MODEL 1
REMARK VINA RESULT: -7.454221071      0.000      0.000
REMARK  19 active torsions:
REMARK  status: ('A' for Active; 'I' for Inactive)
REMARK    1  A    between atoms: N1_1  and  C1_5 
REMARK    2  A    between atoms: C1_5  and  C2_6 
REMARK    3  A    between atoms: C2_6  and  C3_7 
REMARK    4  A    between atoms: C3_7  and  C4_8 
REMARK    5  A    between atoms: C4_8  and  N2_9 
REMARK    6  A    between atoms: N2_9  and  N3_10 
REMARK    7  A    between atoms: N3_10  and  C5_11 
REMARK    8  A    between atoms: C5_11  and  C6_12 
REMARK    9  A    between atoms: C6_12  and  N4_13 
REMARK   10  A    between atoms: N4_13  and  C7_16 
REMARK   11  A    between atoms: C8_20  and  O1_21 
REMARK   12  A    between atoms: O1_21  and  C9_22 
REMARK   13  A    between atoms: C10_23  and  N6_24 
REMARK   14  A    between atoms: C11_28  and  O2_29 
REMARK   15  A    between atoms: C12_31  and  N7_32 
REMARK   16  A    between atoms: C13_36  and  N8_37 
REMARK   17  A    between atoms: C14_41  and  O3_42 
REMARK   18  A    between atoms: C15_44  and  O4_45 
REMARK   19  A    between atoms: C16_47  and  O5_48 
ROOT
HETATM    1  C7  UNL     1       7.118 105.022  81.695  1.00  0.00     0.416 C 
HETATM    2  N5  UNL     1       6.924 106.461  81.732  1.00  0.00    -0.015 N 
ATOM      3  H51 UNL     1       6.877 106.877  82.662  1.00  0.00     0.282 HD
ATOM      4  H52 UNL     1       6.002 106.790  81.445  1.00  0.00     0.282 HD
HETATM    5  C8  UNL     1       8.031 106.898  80.904  1.00  0.00     0.355 C 
HETATM    6  C15 UNL     1       7.855 106.071  79.656  1.00  0.00     0.207 C 
HETATM    7  C16 UNL     1       7.303 104.761  80.221  1.00  0.00     0.209 C 
ENDROOT
BRANCH   5   8
HETATM    8  O1  UNL     1       7.935 108.233  80.556  1.00  0.00    -0.347 OA
BRANCH   8   9
HETATM    9  C9  UNL     1       9.111 108.927  80.525  1.00  0.00     0.188 C 
HETATM   10  C10 UNL     1       9.054 110.108  81.494  1.00  0.00     0.245 C 
HETATM   11  C11 UNL     1       8.096 111.164  81.036  1.00  0.00     0.183 C 
HETATM   12  C12 UNL     1       8.404 111.663  79.645  1.00  0.00     0.246 C 
HETATM   13  C13 UNL     1       8.616 110.537  78.670  1.00  0.00     0.247 C 
HETATM   14  C14 UNL     1       9.532 109.472  79.208  1.00  0.00     0.181 C 
BRANCH  10  15
HETATM   15  N6  UNL     1      10.374 110.704  81.580  1.00  0.00    -0.070 N 
ATOM     16  H63 UNL     1      10.846 110.481  82.456  1.00  0.00     0.274 HD
ATOM     17  H62 UNL     1      11.041 110.267  80.944  1.00  0.00     0.274 HD
ATOM     18  H61 UNL     1      10.291 111.709  81.427  1.00  0.00     0.274 HD
ENDBRANCH  10  15
BRANCH  11  19
HETATM   19  O2  UNL     1       8.228 112.251  81.899  1.00  0.00    -0.391 OA
ATOM     20  H2  UNL     1       7.354 112.565  82.097  1.00  0.00     0.210 HD
ENDBRANCH  11  19
BRANCH  12  21
HETATM   21  N7  UNL     1       9.568 112.539  79.629  1.00  0.00    -0.070 N 
ATOM     22  H73 UNL     1       9.815 112.810  78.677  1.00  0.00     0.274 HD
ATOM     23  H72 UNL     1       9.343 113.461  80.004  1.00  0.00     0.274 HD
ATOM     24  H71 UNL     1      10.362 112.124  80.115  1.00  0.00     0.274 HD
ENDBRANCH  12  21
BRANCH  13  25
HETATM   25  N8  UNL     1       7.353 110.059  78.212  1.00  0.00    -0.070 N 
ATOM     26  H83 UNL     1       7.221 109.067  78.412  1.00  0.00     0.274 HD
ATOM     27  H82 UNL     1       6.579 110.424  78.767  1.00  0.00     0.274 HD
ATOM     28  H81 UNL     1       7.249 110.269  77.219  1.00  0.00     0.274 HD
ENDBRANCH  13  25
BRANCH  14  29
HETATM   29  O3  UNL     1       9.759 108.554  78.216  1.00  0.00    -0.391 OA
ATOM     30  H3  UNL     1      10.032 108.902  77.375  1.00  0.00     0.210 HD
ENDBRANCH  14  29
ENDBRANCH   8   9
ENDBRANCH   5   8
BRANCH   6  31
HETATM   31  O4  UNL     1       9.093 105.835  79.043  1.00  0.00    -0.388 OA
ATOM     32  H4  UNL     1       9.075 106.118  78.137  1.00  0.00     0.210 HD
ENDBRANCH   6  31
BRANCH   1  33
HETATM   33  N4  UNL     1       6.043 104.272  82.261  1.00  0.00    -0.042 N 
ATOM     34  H42 UNL     1       5.179 104.357  81.726  1.00  0.00     0.279 HD
ATOM     35  H41 UNL     1       5.703 104.670  83.136  1.00  0.00     0.279 HD
BRANCH  33  36
HETATM   36  C6  UNL     1       6.478 102.897  82.404  1.00  0.00     0.252 C 
BRANCH  36  37
HETATM   37  C5  UNL     1       5.402 101.934  81.886  1.00  0.00     0.158 C 
BRANCH  37  38
HETATM   38  N3  UNL     1       6.031 100.963  81.018  1.00  0.00    -0.147 NA
BRANCH  38  39
HETATM   39  N2  UNL     1       7.187 101.474  80.459  1.00  0.00    -0.149 NA
BRANCH  39  40
HETATM   40  C4  UNL     1       8.082 100.453  80.023  1.00  0.00     0.130 C 
BRANCH  40  41
HETATM   41  C3  UNL     1       8.916  99.935  81.180  1.00  0.00     0.019 C 
BRANCH  41  42
HETATM   42  C2  UNL     1       8.980  98.440  81.240  1.00  0.00     0.028 C 
BRANCH  42  43
HETATM   43  C1  UNL     1       7.953  97.908  80.246  1.00  0.00     0.229 C 
BRANCH  43  44
HETATM   44  N1  UNL     1       8.584  96.888  79.435  1.00  0.00    -0.079 N 
ATOM     45  H13 UNL     1       9.476  97.194  79.045  1.00  0.00     0.274 HD
ATOM     46  H12 UNL     1       8.935  96.107  79.991  1.00  0.00     0.274 HD
ATOM     47  H11 UNL     1       7.923  96.592  78.716  1.00  0.00     0.274 HD
ENDBRANCH  43  44
ENDBRANCH  42  43
ENDBRANCH  41  42
ENDBRANCH  40  41
ENDBRANCH  39  40
ENDBRANCH  38  39
ENDBRANCH  37  38
ENDBRANCH  36  37
ENDBRANCH  33  36
ENDBRANCH   1  33
BRANCH   7  48
HETATM   48  O5  UNL     1       6.091 104.470  79.593  1.00  0.00    -0.389 OA
ATOM     49  H5  UNL     1       6.133 104.633  78.658  1.00  0.00     0.210 HD
ENDBRANCH   7  48
TORSDOF 19
ENDMDL
MODEL 2
REMARK VINA RESULT: -7.417083552      1.588      1.995
REMARK  19 active torsions:
REMARK  status: ('A' for Active; 'I' for Inactive)
REMARK    1  A    between atoms: N1_1  and  C1_5 
REMARK    2  A    between atoms: C1_5  and  C2_6 
REMARK    3  A    between atoms: C2_6  and  C3_7 
REMARK    4  A    between atoms: C3_7  and  C4_8 
REMARK    5  A    between atoms: C4_8  and  N2_9 
REMARK    6  A    between atoms: N2_9  and  N3_10 
REMARK    7  A    between atoms: N3_10  and  C5_11 
REMARK    8  A    between atoms: C5_11  and  C6_12 
REMARK    9  A    between atoms: C6_12  and  N4_13 
REMARK   10  A    between atoms: N4_13  and  C7_16 
REMARK   11  A    between atoms: C8_20  and  O1_21 
REMARK   12  A    between atoms: O1_21  and  C9_22 
REMARK   13  A    between atoms: C10_23  and  N6_24 
REMARK   14  A    between atoms: C11_28  and  O2_29 
REMARK   15  A    between atoms: C12_31  and  N7_32 
REMARK   16  A    between atoms: C13_36  and  N8_37 
REMARK   17  A    between atoms: C14_41  and  O3_42 
REMARK   18  A    between atoms: C15_44  and  O4_45 
REMARK   19  A    between atoms: C16_47  and  O5_48 
ROOT
HETATM    1  C7  UNL     1       7.389 106.468  81.636  1.00  0.00     0.416 C 
HETATM    2  N5  UNL     1       7.133 107.896  81.566  1.00  0.00    -0.015 N 
ATOM      3  H51 UNL     1       7.103 108.384  82.461  1.00  0.00     0.282 HD
ATOM      4  H52 UNL     1       6.187 108.162  81.292  1.00  0.00     0.282 HD
HETATM    5  C8  UNL     1       8.188 108.308  80.661  1.00  0.00     0.355 C 
HETATM    6  C15 UNL     1       8.001 107.376  79.491  1.00  0.00     0.207 C 
HETATM    7  C16 UNL     1       7.529 106.095  80.181  1.00  0.00     0.209 C 
ENDROOT
BRANCH   5   8
HETATM    8  O1  UNL     1       8.019 109.606  80.211  1.00  0.00    -0.347 OA
BRANCH   8   9
HETATM    9  C9  UNL     1       8.522 110.586  81.017  1.00  0.00     0.188 C 
HETATM   10  C10 UNL     1       8.192 111.964  80.444  1.00  0.00     0.245 C 
HETATM   11  C11 UNL     1       8.938 112.238  79.174  1.00  0.00     0.183 C 
HETATM   12  C12 UNL     1      10.433 112.102  79.340  1.00  0.00     0.246 C 
HETATM   13  C13 UNL     1      10.815 110.823  80.034  1.00  0.00     0.247 C 
HETATM   14  C14 UNL     1       9.988 110.564  81.263  1.00  0.00     0.181 C 
BRANCH  10  15
HETATM   15  N6  UNL     1       8.568 112.975  81.415  1.00  0.00    -0.070 N 
ATOM     16  H63 UNL     1       9.513 113.327  81.265  1.00  0.00     0.274 HD
ATOM     17  H62 UNL     1       8.067 113.852  81.278  1.00  0.00     0.274 HD
ATOM     18  H61 UNL     1       8.438 112.593  82.352  1.00  0.00     0.274 HD
ENDBRANCH  10  15
BRANCH  11  19
HETATM   19  O2  UNL     1       8.685 113.562  78.818  1.00  0.00    -0.391 OA
ATOM     20  H2  UNL     1       8.247 113.551  77.975  1.00  0.00     0.210 HD
ENDBRANCH  11  19
BRANCH  12  21
HETATM   21  N7  UNL     1      11.004 113.231  80.062  1.00  0.00    -0.070 N 
ATOM     22  H73 UNL     1      10.303 113.951  80.238  1.00  0.00     0.274 HD
ATOM     23  H72 UNL     1      11.223 112.982  81.027  1.00  0.00     0.274 HD
ATOM     24  H71 UNL     1      11.818 113.615  79.584  1.00  0.00     0.274 HD
ENDBRANCH  12  21
BRANCH  13  25
HETATM   25  N8  UNL     1      10.828 109.754  79.090  1.00  0.00    -0.070 N 
ATOM     26  H83 UNL     1      11.691 109.730  78.547  1.00  0.00     0.274 HD
ATOM     27  H82 UNL     1      10.915 108.843  79.541  1.00  0.00     0.274 HD
ATOM     28  H81 UNL     1      10.000 109.813  78.497  1.00  0.00     0.274 HD
ENDBRANCH  13  25
BRANCH  14  29
HETATM   29  O3  UNL     1      10.480 109.449  81.891  1.00  0.00    -0.391 OA
ATOM     30  H3  UNL     1      11.158 109.597  82.539  1.00  0.00     0.210 HD
ENDBRANCH  14  29
ENDBRANCH   8   9
ENDBRANCH   5   8
BRANCH   6  31
HETATM   31  O4  UNL     1       9.223 107.142  78.848  1.00  0.00    -0.388 OA
ATOM     32  H4  UNL     1       9.612 106.332  79.156  1.00  0.00     0.210 HD
ENDBRANCH   6  31
BRANCH   1  33
HETATM   33  N4  UNL     1       6.371 105.723  82.304  1.00  0.00    -0.042 N 
ATOM     34  H42 UNL     1       5.511 105.655  81.759  1.00  0.00     0.279 HD
ATOM     35  H41 UNL     1       5.985 106.217  83.109  1.00  0.00     0.279 HD
BRANCH  33  36
HETATM   36  C6  UNL     1       6.915 104.426  82.653  1.00  0.00     0.252 C 
BRANCH  36  37
HETATM   37  C5  UNL     1       5.881 103.322  82.402  1.00  0.00     0.158 C 
BRANCH  37  38
HETATM   38  N3  UNL     1       6.060 102.819  81.058  1.00  0.00    -0.147 NA
BRANCH  38  39
HETATM   39  N2  UNL     1       7.390 102.866  80.685  1.00  0.00    -0.149 NA
BRANCH  39  40
HETATM   40  C4  UNL     1       7.904 101.585  80.330  1.00  0.00     0.130 C 
BRANCH  40  41
HETATM   41  C3  UNL     1       8.574 100.923  81.521  1.00  0.00     0.019 C 
BRANCH  41  42
HETATM   42  C2  UNL     1       9.159  99.582  81.199  1.00  0.00     0.028 C 
BRANCH  42  43
HETATM   43  C1  UNL     1       7.993  98.625  80.977  1.00  0.00     0.229 C 
BRANCH  43  44
HETATM   44  N1  UNL     1       8.198  97.935  79.721  1.00  0.00    -0.079 N 
ATOM     45  H13 UNL     1       9.020  98.271  79.219  1.00  0.00     0.274 HD
ATOM     46  H12 UNL     1       8.498  96.968  79.850  1.00  0.00     0.274 HD
ATOM     47  H11 UNL     1       7.344  98.009  79.167  1.00  0.00     0.274 HD
ENDBRANCH  43  44
ENDBRANCH  42  43
ENDBRANCH  41  42
ENDBRANCH  40  41
ENDBRANCH  39  40
ENDBRANCH  38  39
ENDBRANCH  37  38
ENDBRANCH  36  37
ENDBRANCH  33  36
ENDBRANCH   1  33
BRANCH   7  48
HETATM   48  O5  UNL     1       6.309 105.704  79.630  1.00  0.00    -0.389 OA
ATOM     49  H5  UNL     1       6.389 104.895  79.138  1.00  0.00     0.210 HD
ENDBRANCH   7  48
TORSDOF 19
ENDMDL
MODEL 3
REMARK VINA RESULT: -7.336445653      3.937      8.534
REMARK  19 active torsions:
REMARK  status: ('A' for Active; 'I' for Inactive)
REMARK    1  A    between atoms: N1_1  and  C1_5 
REMARK    2  A    between atoms: C1_5  and  C2_6 
REMARK    3  A    between atoms: C2_6  and  C3_7 
REMARK    4  A    between atoms: C3_7  and  C4_8 
REMARK    5  A    between atoms: C4_8  and  N2_9 
REMARK    6  A    between atoms: N2_9  and  N3_10 
REMARK    7  A    between atoms: N3_10  and  C5_11 
REMARK    8  A    between atoms: C5_11  and  C6_12 
REMARK    9  A    between atoms: C6_12  and  N4_13 
REMARK   10  A    between atoms: N4_13  and  C7_16 
REMARK   11  A    between atoms: C8_20  and  O1_21 
REMARK   12  A    between atoms: O1_21  and  C9_22 
REMARK   13  A    between atoms: C10_23  and  N6_24 
REMARK   14  A    between atoms: C11_28  and  O2_29 
REMARK   15  A    between atoms: C12_31  and  N7_32 
REMARK   16  A    between atoms: C13_36  and  N8_37 
REMARK   17  A    between atoms: C14_41  and  O3_42 
REMARK   18  A    between atoms: C15_44  and  O4_45 
REMARK   19  A    between atoms: C16_47  and  O5_48 
ROOT
HETATM    1  C7  UNL     1      10.252 109.527  81.387  1.00  0.00     0.416 C 
HETATM    2  N5  UNL     1       9.670 109.030  80.152  1.00  0.00    -0.015 N 
ATOM      3  H51 UNL     1      10.331 108.836  79.399  1.00  0.00     0.282 HD
ATOM      4  H52 UNL     1       9.128 109.707  79.616  1.00  0.00     0.282 HD
HETATM    5  C8  UNL     1       8.932 107.886  80.650  1.00  0.00     0.355 C 
HETATM    6  C15 UNL     1       8.115 108.484  81.768  1.00  0.00     0.207 C 
HETATM    7  C16 UNL     1       9.063 109.553  82.314  1.00  0.00     0.209 C 
ENDROOT
BRANCH   5   8
HETATM    8  O1  UNL     1       8.062 107.369  79.707  1.00  0.00    -0.347 OA
BRANCH   8   9
HETATM    9  C9  UNL     1       8.590 107.145  78.468  1.00  0.00     0.188 C 
HETATM   10  C10 UNL     1       7.857 107.984  77.421  1.00  0.00     0.245 C 
HETATM   11  C11 UNL     1       6.449 107.517  77.212  1.00  0.00     0.183 C 
HETATM   12  C12 UNL     1       6.373 106.057  76.836  1.00  0.00     0.246 C 
HETATM   13  C13 UNL     1       7.198 105.190  77.749  1.00  0.00     0.247 C 
HETATM   14  C14 UNL     1       8.578 105.742  77.978  1.00  0.00     0.181 C 
BRANCH  10  15
HETATM   15  N6  UNL     1       8.562 107.872  76.158  1.00  0.00    -0.070 N 
ATOM     16  H63 UNL     1       9.127 108.696  75.952  1.00  0.00     0.274 HD
ATOM     17  H62 UNL     1       9.317 107.188  76.192  1.00  0.00     0.274 HD
ATOM     18  H61 UNL     1       7.885 107.670  75.422  1.00  0.00     0.274 HD
ENDBRANCH  10  15
BRANCH  11  19
HETATM   19  O2  UNL     1       5.923 108.243  76.144  1.00  0.00    -0.391 OA
ATOM     20  H2  UNL     1       6.168 109.152  76.269  1.00  0.00     0.210 HD
ENDBRANCH  11  19
BRANCH  12  21
HETATM   21  N7  UNL     1       6.783 105.830  75.457  1.00  0.00    -0.070 N 
ATOM     22  H73 UNL     1       7.571 106.425  75.202  1.00  0.00     0.274 HD
ATOM     23  H72 UNL     1       7.227 104.919  75.346  1.00  0.00     0.274 HD
ATOM     24  H71 UNL     1       6.006 105.945  74.806  1.00  0.00     0.274 HD
ENDBRANCH  12  21
BRANCH  13  25
HETATM   25  N8  UNL     1       6.462 104.916  78.939  1.00  0.00    -0.070 N 
ATOM     26  H83 UNL     1       6.381 105.737  79.540  1.00  0.00     0.274 HD
ATOM     27  H82 UNL     1       5.468 104.774  78.753  1.00  0.00     0.274 HD
ATOM     28  H81 UNL     1       6.881 104.123  79.424  1.00  0.00     0.274 HD
ENDBRANCH  13  25
BRANCH  14  29
HETATM   29  O3  UNL     1       9.290 104.835  78.719  1.00  0.00    -0.391 OA
ATOM     30  H3  UNL     1       9.120 103.918  78.537  1.00  0.00     0.210 HD
ENDBRANCH  14  29
ENDBRANCH   8   9
ENDBRANCH   5   8
BRANCH   6  31
HETATM   31  O4  UNL     1       7.864 107.526  82.759  1.00  0.00    -0.388 OA
ATOM     32  H4  UNL     1       7.056 107.060  82.575  1.00  0.00     0.210 HD
ENDBRANCH   6  31
BRANCH   1  33
HETATM   33  N4  UNL     1      10.888 110.799  81.264  1.00  0.00    -0.042 N 
ATOM     34  H42 UNL     1      11.713 110.886  81.856  1.00  0.00     0.279 HD
ATOM     35  H41 UNL     1      10.341 111.554  81.679  1.00  0.00     0.279 HD
BRANCH  33  36
HETATM   36  C6  UNL     1      11.179 111.026  79.862  1.00  0.00     0.252 C 
BRANCH  36  37
HETATM   37  C5  UNL     1      10.374 112.217  79.330  1.00  0.00     0.158 C 
BRANCH  37  38
HETATM   38  N3  UNL     1       9.158 111.720  78.725  1.00  0.00    -0.147 NA
BRANCH  38  39
HETATM   39  N2  UNL     1       8.092 111.827  79.598  1.00  0.00    -0.149 NA
BRANCH  39  40
HETATM   40  C4  UNL     1       7.660 113.174  79.772  1.00  0.00     0.130 C 
BRANCH  40  41
HETATM   41  C3  UNL     1       7.135 113.746  78.467  1.00  0.00     0.019 C 
BRANCH  41  42
HETATM   42  C2  UNL     1       5.729 113.328  78.162  1.00  0.00     0.028 C 
BRANCH  42  43
HETATM   43  C1  UNL     1       5.767 112.559  76.846  1.00  0.00     0.229 C 
BRANCH  43  44
HETATM   44  N1  UNL     1       6.337 111.251  77.095  1.00  0.00    -0.079 N 
ATOM     45  H13 UNL     1       6.988 111.251  77.881  1.00  0.00     0.274 HD
ATOM     46  H12 UNL     1       5.657 110.593  77.477  1.00  0.00     0.274 HD
ATOM     47  H11 UNL     1       6.765 110.915  76.232  1.00  0.00     0.274 HD
ENDBRANCH  43  44
ENDBRANCH  42  43
ENDBRANCH  41  42
ENDBRANCH  40  41
ENDBRANCH  39  40
ENDBRANCH  38  39
ENDBRANCH  37  38
ENDBRANCH  36  37
ENDBRANCH  33  36
ENDBRANCH   1  33
BRANCH   7  48
HETATM   48  O5  UNL     1       8.416 110.789  82.289  1.00  0.00    -0.389 OA
ATOM     49  H5  UNL     1       7.614 110.775  82.798  1.00  0.00     0.210 HD
ENDBRANCH   7  48
TORSDOF 19
ENDMDL
MODEL 4
REMARK VINA RESULT: -7.199422151      4.824      8.027
REMARK  19 active torsions:
REMARK  status: ('A' for Active; 'I' for Inactive)
REMARK    1  A    between atoms: N1_1  and  C1_5 
REMARK    2  A    between atoms: C1_5  and  C2_6 
REMARK    3  A    between atoms: C2_6  and  C3_7 
REMARK    4  A    between atoms: C3_7  and  C4_8 
REMARK    5  A    between atoms: C4_8  and  N2_9 
REMARK    6  A    between atoms: N2_9  and  N3_10 
REMARK    7  A    between atoms: N3_10  and  C5_11 
REMARK    8  A    between atoms: C5_11  and  C6_12 
REMARK    9  A    between atoms: C6_12  and  N4_13 
REMARK   10  A    between atoms: N4_13  and  C7_16 
REMARK   11  A    between atoms: C8_20  and  O1_21 
REMARK   12  A    between atoms: O1_21  and  C9_22 
REMARK   13  A    between atoms: C10_23  and  N6_24 
REMARK   14  A    between atoms: C11_28  and  O2_29 
REMARK   15  A    between atoms: C12_31  and  N7_32 
REMARK   16  A    between atoms: C13_36  and  N8_37 
REMARK   17  A    between atoms: C14_41  and  O3_42 
REMARK   18  A    between atoms: C15_44  and  O4_45 
REMARK   19  A    between atoms: C16_47  and  O5_48 
ROOT
HETATM    1  C7  UNL     1       7.872 112.912  76.976  1.00  0.00     0.416 C 
HETATM    2  N5  UNL     1       7.405 111.605  77.408  1.00  0.00    -0.015 N 
ATOM      3  H51 UNL     1       7.466 110.862  76.712  1.00  0.00     0.282 HD
ATOM      4  H52 UNL     1       6.397 111.518  77.538  1.00  0.00     0.282 HD
HETATM    5  C8  UNL     1       8.210 111.418  78.599  1.00  0.00     0.355 C 
HETATM    6  C15 UNL     1       7.953 112.687  79.372  1.00  0.00     0.207 C 
HETATM    7  C16 UNL     1       7.802 113.715  78.250  1.00  0.00     0.209 C 
ENDROOT
BRANCH   5   8
HETATM    8  O1  UNL     1       7.779 110.350  79.365  1.00  0.00    -0.347 OA
BRANCH   8   9
HETATM    9  C9  UNL     1       8.627 109.281  79.427  1.00  0.00     0.188 C 
HETATM   10  C10 UNL     1       7.866 108.026  79.854  1.00  0.00     0.245 C 
HETATM   11  C11 UNL     1       7.409 108.103  81.279  1.00  0.00     0.183 C 
HETATM   12  C12 UNL     1       8.547 108.358  82.239  1.00  0.00     0.246 C 
HETATM   13  C13 UNL     1       9.423 109.498  81.793  1.00  0.00     0.247 C 
HETATM   14  C14 UNL     1       9.794 109.406  80.339  1.00  0.00     0.181 C 
BRANCH  10  15
HETATM   15  N6  UNL     1       8.746 106.881  79.724  1.00  0.00    -0.070 N 
ATOM     16  H63 UNL     1       9.089 106.758  78.771  1.00  0.00     0.274 HD
ATOM     17  H62 UNL     1       9.647 107.027  80.180  1.00  0.00     0.274 HD
ATOM     18  H61 UNL     1       8.263 106.054  80.074  1.00  0.00     0.274 HD
ENDBRANCH  10  15
BRANCH  11  19
HETATM   19  O2  UNL     1       6.864 106.864  81.611  1.00  0.00    -0.391 OA
ATOM     20  H2  UNL     1       5.954 107.006  81.842  1.00  0.00     0.210 HD
ENDBRANCH  11  19
BRANCH  12  21
HETATM   21  N7  UNL     1       9.365 107.170  82.437  1.00  0.00    -0.070 N 
ATOM     22  H73 UNL     1       8.929 106.525  83.096  1.00  0.00     0.274 HD
ATOM     23  H72 UNL     1       9.365 106.577  81.608  1.00  0.00     0.274 HD
ATOM     24  H71 UNL     1      10.315 107.407  82.724  1.00  0.00     0.274 HD
ENDBRANCH  12  21
BRANCH  13  25
HETATM   25  N8  UNL     1       8.828 110.735  82.178  1.00  0.00    -0.070 N 
ATOM     26  H83 UNL     1       8.612 111.325  81.374  1.00  0.00     0.274 HD
ATOM     27  H82 UNL     1       7.878 110.613  82.529  1.00  0.00     0.274 HD
ATOM     28  H81 UNL     1       9.430 111.207  82.852  1.00  0.00     0.274 HD
ENDBRANCH  13  25
BRANCH  14  29
HETATM   29  O3  UNL     1      10.681 110.411  80.053  1.00  0.00    -0.391 OA
ATOM     30  H3  UNL     1      11.561 110.140  79.817  1.00  0.00     0.210 HD
ENDBRANCH  14  29
ENDBRANCH   8   9
ENDBRANCH   5   8
BRANCH   6  31
HETATM   31  O4  UNL     1       9.062 113.013  80.164  1.00  0.00    -0.388 OA
ATOM     32  H4  UNL     1       9.833 112.546  79.865  1.00  0.00     0.210 HD
ENDBRANCH   6  31
BRANCH   1  33
HETATM   33  N4  UNL     1       7.108 113.485  75.915  1.00  0.00    -0.042 N 
ATOM     34  H42 UNL     1       7.653 113.614  75.063  1.00  0.00     0.279 HD
ATOM     35  H41 UNL     1       6.878 114.465  76.081  1.00  0.00     0.279 HD
BRANCH  33  36
HETATM   36  C6  UNL     1       5.933 112.663  75.708  1.00  0.00     0.252 C 
BRANCH  36  37
HETATM   37  C5  UNL     1       5.912 112.101  74.282  1.00  0.00     0.158 C 
BRANCH  37  38
HETATM   38  N3  UNL     1       7.136 111.366  74.057  1.00  0.00    -0.147 NA
BRANCH  38  39
HETATM   39  N2  UNL     1       7.084 110.122  74.656  1.00  0.00    -0.149 NA
BRANCH  39  40
HETATM   40  C4  UNL     1       6.256 109.206  73.945  1.00  0.00     0.130 C 
BRANCH  40  41
HETATM   41  C3  UNL     1       5.896 108.014  74.815  1.00  0.00     0.019 C 
BRANCH  41  42
HETATM   42  C2  UNL     1       6.741 106.808  74.542  1.00  0.00     0.028 C 
BRANCH  42  43
HETATM   43  C1  UNL     1       7.423 106.433  75.853  1.00  0.00     0.229 C 
BRANCH  43  44
HETATM   44  N1  UNL     1       8.381 107.468  76.184  1.00  0.00    -0.079 N 
ATOM     45  H13 UNL     1       8.135 108.372  75.781  1.00  0.00     0.274 HD
ATOM     46  H12 UNL     1       8.341 107.738  77.167  1.00  0.00     0.274 HD
ATOM     47  H11 UNL     1       9.309 107.152  75.901  1.00  0.00     0.274 HD
ENDBRANCH  43  44
ENDBRANCH  42  43
ENDBRANCH  41  42
ENDBRANCH  40  41
ENDBRANCH  39  40
ENDBRANCH  38  39
ENDBRANCH  37  38
ENDBRANCH  36  37
ENDBRANCH  33  36
ENDBRANCH   1  33
BRANCH   7  48
HETATM   48  O5  UNL     1       6.572 114.359  78.386  1.00  0.00    -0.389 OA
ATOM     49  H5  UNL     1       5.848 113.745  78.338  1.00  0.00     0.210 HD
ENDBRANCH   7  48
TORSDOF 19
ENDMDL
MODEL 5
REMARK VINA RESULT: -7.182496268      4.916      8.216
REMARK  19 active torsions:
REMARK  status: ('A' for Active; 'I' for Inactive)
REMARK    1  A    between atoms: N1_1  and  C1_5 
REMARK    2  A    between atoms: C1_5  and  C2_6 
REMARK    3  A    between atoms: C2_6  and  C3_7 
REMARK    4  A    between atoms: C3_7  and  C4_8 
REMARK    5  A    between atoms: C4_8  and  N2_9 
REMARK    6  A    between atoms: N2_9  and  N3_10 
REMARK    7  A    between atoms: N3_10  and  C5_11 
REMARK    8  A    between atoms: C5_11  and  C6_12 
REMARK    9  A    between atoms: C6_12  and  N4_13 
REMARK   10  A    between atoms: N4_13  and  C7_16 
REMARK   11  A    between atoms: C8_20  and  O1_21 
REMARK   12  A    between atoms: O1_21  and  C9_22 
REMARK   13  A    between atoms: C10_23  and  N6_24 
REMARK   14  A    between atoms: C11_28  and  O2_29 
REMARK   15  A    between atoms: C12_31  and  N7_32 
REMARK   16  A    between atoms: C13_36  and  N8_37 
REMARK   17  A    between atoms: C14_41  and  O3_42 
REMARK   18  A    between atoms: C15_44  and  O4_45 
REMARK   19  A    between atoms: C16_47  and  O5_48 
ROOT
HETATM    1  C7  UNL     1       7.697 112.809  76.717  1.00  0.00     0.416 C 
HETATM    2  N5  UNL     1       7.224 111.552  77.272  1.00  0.00    -0.015 N 
ATOM      3  H51 UNL     1       7.155 110.777  76.613  1.00  0.00     0.282 HD
ATOM      4  H52 UNL     1       6.238 111.528  77.534  1.00  0.00     0.282 HD
HETATM    5  C8  UNL     1       8.168 111.372  78.358  1.00  0.00     0.355 C 
HETATM    6  C15 UNL     1       8.079 112.686  79.092  1.00  0.00     0.207 C 
HETATM    7  C16 UNL     1       7.834 113.671  77.948  1.00  0.00     0.209 C 
ENDROOT
BRANCH   5   8
HETATM    8  O1  UNL     1       7.787 110.364  79.226  1.00  0.00    -0.347 OA
BRANCH   8   9
HETATM    9  C9  UNL     1       8.624 109.288  79.293  1.00  0.00     0.188 C 
HETATM   10  C10 UNL     1       7.880 108.073  79.848  1.00  0.00     0.245 C 
HETATM   11  C11 UNL     1       7.528 108.242  81.295  1.00  0.00     0.183 C 
HETATM   12  C12 UNL     1       8.735 108.535  82.154  1.00  0.00     0.246 C 
HETATM   13  C13 UNL     1       9.591 109.631  81.579  1.00  0.00     0.247 C 
HETATM   14  C14 UNL     1       9.855 109.447  80.110  1.00  0.00     0.181 C 
BRANCH  10  15
HETATM   15  N6  UNL     1       8.735 106.907  79.726  1.00  0.00    -0.070 N 
ATOM     16  H63 UNL     1       9.687 107.149  79.452  1.00  0.00     0.274 HD
ATOM     17  H62 UNL     1       8.949 106.485  80.629  1.00  0.00     0.274 HD
ATOM     18  H61 UNL     1       8.300 106.248  79.080  1.00  0.00     0.274 HD
ENDBRANCH  10  15
BRANCH  11  19
HETATM   19  O2  UNL     1       6.993 107.034  81.739  1.00  0.00    -0.391 OA
ATOM     20  H2  UNL     1       6.194 107.234  82.213  1.00  0.00     0.210 HD
ENDBRANCH  11  19
BRANCH  12  21
HETATM   21  N7  UNL     1       9.551 107.347  82.365  1.00  0.00    -0.070 N 
ATOM     22  H73 UNL     1       9.096 106.514  81.992  1.00  0.00     0.274 HD
ATOM     23  H72 UNL     1      10.380 107.357  81.773  1.00  0.00     0.274 HD
ATOM     24  H71 UNL     1       9.797 107.226  83.347  1.00  0.00     0.274 HD
ENDBRANCH  12  21
BRANCH  13  25
HETATM   25  N8  UNL     1       9.040 110.899  81.930  1.00  0.00    -0.070 N 
ATOM     26  H83 UNL     1       8.449 111.280  81.191  1.00  0.00     0.274 HD
ATOM     27  H82 UNL     1       8.331 110.823  82.659  1.00  0.00     0.274 HD
ATOM     28  H81 UNL     1       9.793 111.537  82.189  1.00  0.00     0.274 HD
ENDBRANCH  13  25
BRANCH  14  29
HETATM   29  O3  UNL     1      10.732 110.418  79.702  1.00  0.00    -0.391 OA
ATOM     30  H3  UNL     1      11.109 110.958  80.387  1.00  0.00     0.210 HD
ENDBRANCH  14  29
ENDBRANCH   8   9
ENDBRANCH   5   8
BRANCH   6  31
HETATM   31  O4  UNL     1       9.296 112.983  79.718  1.00  0.00    -0.388 OA
ATOM     32  H4  UNL     1      10.006 112.973  79.087  1.00  0.00     0.210 HD
ENDBRANCH   6  31
BRANCH   1  33
HETATM   33  N4  UNL     1       6.830 113.378  75.736  1.00  0.00    -0.042 N 
ATOM     34  H42 UNL     1       7.319 113.624  74.875  1.00  0.00     0.279 HD
ATOM     35  H41 UNL     1       6.512 114.314  75.987  1.00  0.00     0.279 HD
BRANCH  33  36
HETATM   36  C6  UNL     1       5.734 112.457  75.512  1.00  0.00     0.252 C 
BRANCH  36  37
HETATM   37  C5  UNL     1       5.538 112.206  74.012  1.00  0.00     0.158 C 
BRANCH  37  38
HETATM   38  N3  UNL     1       5.812 110.813  73.738  1.00  0.00    -0.147 NA
BRANCH  38  39
HETATM   39  N2  UNL     1       7.122 110.497  74.042  1.00  0.00    -0.149 NA
BRANCH  39  40
HETATM   40  C4  UNL     1       7.528 109.249  73.485  1.00  0.00     0.130 C 
BRANCH  40  41
HETATM   41  C3  UNL     1       7.048 108.092  74.344  1.00  0.00     0.019 C 
BRANCH  41  42
HETATM   42  C2  UNL     1       7.403 108.244  75.791  1.00  0.00     0.028 C 
BRANCH  42  43
HETATM   43  C1  UNL     1       6.129 107.998  76.592  1.00  0.00     0.229 C 
BRANCH  43  44
HETATM   44  N1  UNL     1       5.120 108.939  76.150  1.00  0.00    -0.079 N 
ATOM     45  H13 UNL     1       5.516 109.718  75.623  1.00  0.00     0.274 HD
ATOM     46  H12 UNL     1       4.527 108.558  75.411  1.00  0.00     0.274 HD
ATOM     47  H11 UNL     1       4.586 109.246  76.963  1.00  0.00     0.274 HD
ENDBRANCH  43  44
ENDBRANCH  42  43
ENDBRANCH  41  42
ENDBRANCH  40  41
ENDBRANCH  39  40
ENDBRANCH  38  39
ENDBRANCH  37  38
ENDBRANCH  36  37
ENDBRANCH  33  36
ENDBRANCH   1  33
BRANCH   7  48
HETATM   48  O5  UNL     1       6.667 114.389  78.207  1.00  0.00    -0.389 OA
ATOM     49  H5  UNL     1       6.634 115.196  77.708  1.00  0.00     0.210 HD
ENDBRANCH   7  48
TORSDOF 19
ENDMDL
