MODEL 1
REMARK VINA RESULT: -6.093173523      0.000      0.000
REMARK  19 active torsions:
REMARK  status: ('A' for Active; 'I' for Inactive)
REMARK       I    between atoms: C1_4  and  N3_6 
REMARK    1  A    between atoms: N3_6  and  C2_8 
REMARK    2  A    between atoms: C3_9  and  C4_10 
REMARK    3  A    between atoms: C4_10  and  N4_11 
REMARK    4  A    between atoms: C5_15  and  O1_16 
REMARK    5  A    between atoms: C6_18  and  O2_19 
REMARK    6  A    between atoms: C7_21  and  N5_22 
REMARK    7  A    between atoms: C8_26  and  N6_27 
REMARK    8  A    between atoms: N6_27  and  C9_29 
REMARK    9  A    between atoms: C9_29  and  C10_30 
REMARK   10  A    between atoms: C9_29  and  C12_36 
REMARK   11  A    between atoms: C10_30  and  C11_31 
REMARK   12  A    between atoms: C11_31  and  N7_32 
REMARK   13  A    between atoms: C12_36  and  N9_40 
REMARK   14  A    between atoms: N9_40  and  C13_42 
REMARK   15  A    between atoms: C13_42  and  C14_43 
REMARK   16  A    between atoms: C14_43  and  O3_44 
REMARK   17  A    between atoms: O3_44  and  N10_45 
REMARK   18  A    between atoms: N10_45  and  C15_46 
REMARK   19  A    between atoms: C15_46  and  N11_47 
ROOT
HETATM    1  C2  UNL     1       9.177 110.678  80.461  1.00  0.00     0.044 C 
HETATM    2  C3  UNL     1      10.616 110.999  80.337  1.00  0.00     0.094 C 
HETATM    3  C5  UNL     1      11.001 112.352  79.876  1.00  0.00     0.161 C 
HETATM    4  C6  UNL     1       9.921 113.343  79.646  1.00  0.00     0.184 C 
HETATM    5  C7  UNL     1       8.520 112.882  79.837  1.00  0.00     0.265 C 
HETATM    6  C8  UNL     1       8.227 111.468  79.569  1.00  0.00     0.062 C 
ENDROOT
BRANCH   6   7
HETATM    7  N6  UNL     1       7.983 110.921  78.341  1.00  0.00    -0.378 N 
ATOM      8  H6  UNL     1       8.611 110.176  78.040  1.00  0.00     0.160 HD
BRANCH   7   9
HETATM    9  C9  UNL     1       6.975 111.271  77.465  1.00  0.00     0.150 C 
BRANCH   9  10
HETATM   10  C10 UNL     1       7.336 112.254  76.425  1.00  0.00     0.060 C 
BRANCH  10  11
HETATM   11  C11 UNL     1       6.848 113.650  76.578  1.00  0.00     0.232 C 
BRANCH  11  12
HETATM   12  N7  UNL     1       5.939 113.950  77.618  1.00  0.00    -0.079 N 
ATOM     13  H73 UNL     1       6.024 113.238  78.343  1.00  0.00     0.274 HD
ATOM     14  H72 UNL     1       6.268 114.780  78.112  1.00  0.00     0.274 HD
ATOM     15  H71 UNL     1       4.952 114.074  77.394  1.00  0.00     0.274 HD
ENDBRANCH  11  12
ENDBRANCH  10  11
ENDBRANCH   9  10
BRANCH   9  16
HETATM   16  C12 UNL     1       6.201 110.133  76.892  1.00  0.00     0.093 C 
HETATM   17  N8  UNL     1       5.059 110.327  76.372  1.00  0.00    -0.387 N 
ATOM     18  H82 UNL     1       4.698 111.280  76.320  1.00  0.00     0.157 HD
ATOM     19  H81 UNL     1       4.530 109.548  75.979  1.00  0.00     0.157 HD
BRANCH  16  20
HETATM   20  N9  UNL     1       6.710 108.789  76.964  1.00  0.00    -0.376 N 
ATOM     21  H9  UNL     1       6.524 108.238  77.802  1.00  0.00     0.160 HD
BRANCH  20  22
HETATM   22  C13 UNL     1       7.470 108.198  75.898  1.00  0.00     0.149 C 
BRANCH  22  23
HETATM   23  C14 UNL     1       8.650 107.382  76.431  1.00  0.00     0.215 C 
BRANCH  23  24
HETATM   24  O3  UNL     1       8.920 107.785  77.725  1.00  0.00    -0.283 OA
BRANCH  24  25
HETATM   25  N10 UNL     1       8.657 106.876  78.661  1.00  0.00    -0.074 NA
BRANCH  25  26
HETATM   26  C15 UNL     1       8.522 105.555  78.097  1.00  0.00     0.371 C 
BRANCH  26  27
HETATM   27  N11 UNL     1       9.254 104.593  78.932  1.00  0.00    -0.064 N 
ATOM     28 3H11 UNL     1      10.179 104.382  78.558  1.00  0.00     0.275 HD
ATOM     29 2H11 UNL     1       9.546 104.998  79.822  1.00  0.00     0.275 HD
ATOM     30 1H11 UNL     1       8.686 103.756  79.057  1.00  0.00     0.275 HD
ENDBRANCH  26  27
ENDBRANCH  25  26
ENDBRANCH  24  25
ENDBRANCH  23  24
ENDBRANCH  22  23
ENDBRANCH  20  22
ENDBRANCH  16  20
ENDBRANCH   9  16
ENDBRANCH   7   9
ENDBRANCH   6   7
BRANCH   1  31
HETATM   31  N3  UNL     1       8.867 109.271  80.537  1.00  0.00    -0.332 N 
HETATM   32  C1  UNL     1       8.931 108.566  81.798  1.00  0.00     0.186 C 
HETATM   33  N1  UNL     1       9.214 107.324  81.869  1.00  0.00    -0.374 N 
HETATM   34  N2  UNL     1       8.652 109.369  82.941  1.00  0.00    -0.064 NA
ATOM     35  H12 UNL     1       9.258 106.826  82.758  1.00  0.00     0.158 HD
ATOM     36  H11 UNL     1       9.413 106.750  81.050  1.00  0.00     0.158 HD
ATOM     37  H3  UNL     1       8.600 108.768  79.691  1.00  0.00     0.168 HD
ENDBRANCH   1  31
BRANCH   5  38
HETATM   38  N5  UNL     1       8.274 113.043  81.323  1.00  0.00    -0.067 N 
ATOM     39  H53 UNL     1       9.093 113.346  81.851  1.00  0.00     0.275 HD
ATOM     40  H52 UNL     1       7.684 113.839  81.565  1.00  0.00     0.275 HD
ATOM     41  H51 UNL     1       7.899 112.140  81.614  1.00  0.00     0.275 HD
ENDBRANCH   5  38
BRANCH   2  42
HETATM   42  C4  UNL     1      11.407 109.989  79.485  1.00  0.00     0.243 C 
BRANCH  42  43
HETATM   43  N4  UNL     1      12.305 109.185  80.238  1.00  0.00    -0.079 N 
ATOM     44  H43 UNL     1      13.270 109.459  80.058  1.00  0.00     0.274 HD
ATOM     45  H42 UNL     1      12.245 109.412  81.230  1.00  0.00     0.274 HD
ATOM     46  H41 UNL     1      12.181 108.183  80.089  1.00  0.00     0.274 HD
ENDBRANCH  42  43
ENDBRANCH   2  42
BRANCH   4  47
HETATM   47  O2  UNL     1      10.080 114.480  80.490  1.00  0.00    -0.390 OA
ATOM     48  H2  UNL     1      10.083 115.283  79.983  1.00  0.00     0.210 HD
ENDBRANCH   4  47
BRANCH   3  49
HETATM   49  O1  UNL     1      11.904 112.298  78.774  1.00  0.00    -0.392 OA
ATOM     50  H1  UNL     1      12.707 111.844  78.999  1.00  0.00     0.210 HD
ENDBRANCH   3  49
TORSDOF 19
ENDMDL
MODEL 2
REMARK VINA RESULT: -5.945069566      2.151      4.226
REMARK  19 active torsions:
REMARK  status: ('A' for Active; 'I' for Inactive)
REMARK       I    between atoms: C1_4  and  N3_6 
REMARK    1  A    between atoms: N3_6  and  C2_8 
REMARK    2  A    between atoms: C3_9  and  C4_10 
REMARK    3  A    between atoms: C4_10  and  N4_11 
REMARK    4  A    between atoms: C5_15  and  O1_16 
REMARK    5  A    between atoms: C6_18  and  O2_19 
REMARK    6  A    between atoms: C7_21  and  N5_22 
REMARK    7  A    between atoms: C8_26  and  N6_27 
REMARK    8  A    between atoms: N6_27  and  C9_29 
REMARK    9  A    between atoms: C9_29  and  C10_30 
REMARK   10  A    between atoms: C9_29  and  C12_36 
REMARK   11  A    between atoms: C10_30  and  C11_31 
REMARK   12  A    between atoms: C11_31  and  N7_32 
REMARK   13  A    between atoms: C12_36  and  N9_40 
REMARK   14  A    between atoms: N9_40  and  C13_42 
REMARK   15  A    between atoms: C13_42  and  C14_43 
REMARK   16  A    between atoms: C14_43  and  O3_44 
REMARK   17  A    between atoms: O3_44  and  N10_45 
REMARK   18  A    between atoms: N10_45  and  C15_46 
REMARK   19  A    between atoms: C15_46  and  N11_47 
ROOT
HETATM    1  C2  UNL     1       9.124 111.202  80.374  1.00  0.00     0.044 C 
HETATM    2  C3  UNL     1      10.140 112.239  80.088  1.00  0.00     0.094 C 
HETATM    3  C5  UNL     1      10.030 113.007  78.828  1.00  0.00     0.161 C 
HETATM    4  C6  UNL     1       8.856 112.754  77.958  1.00  0.00     0.184 C 
HETATM    5  C7  UNL     1       7.902 111.697  78.390  1.00  0.00     0.265 C 
HETATM    6  C8  UNL     1       8.440 110.573  79.167  1.00  0.00     0.062 C 
ENDROOT
BRANCH   6   7
HETATM    7  N6  UNL     1       9.055 109.467  78.652  1.00  0.00    -0.378 N 
ATOM      8  H6  UNL     1      10.015 109.587  78.330  1.00  0.00     0.160 HD
BRANCH   7   9
HETATM    9  C9  UNL     1       8.514 108.204  78.522  1.00  0.00     0.150 C 
BRANCH   9  10
HETATM   10  C10 UNL     1       7.448 107.857  79.483  1.00  0.00     0.060 C 
BRANCH  10  11
HETATM   11  C11 UNL     1       7.796 106.975  80.629  1.00  0.00     0.232 C 
BRANCH  11  12
HETATM   12  N7  UNL     1       6.960 106.964  81.768  1.00  0.00    -0.079 N 
ATOM     13  H73 UNL     1       5.988 106.996  81.460  1.00  0.00     0.274 HD
ATOM     14  H72 UNL     1       7.004 106.041  82.198  1.00  0.00     0.274 HD
ATOM     15  H71 UNL     1       7.098 107.669  82.491  1.00  0.00     0.274 HD
ENDBRANCH  11  12
ENDBRANCH  10  11
ENDBRANCH   9  10
BRANCH   9  16
HETATM   16  C12 UNL     1       8.144 107.806  77.134  1.00  0.00     0.093 C 
HETATM   17  N8  UNL     1       8.480 106.669  76.678  1.00  0.00    -0.387 N 
ATOM     18  H82 UNL     1       8.974 106.021  77.291  1.00  0.00     0.157 HD
ATOM     19  H81 UNL     1       8.227 106.397  75.728  1.00  0.00     0.157 HD
BRANCH  16  20
HETATM   20  N9  UNL     1       7.447 108.720  76.269  1.00  0.00    -0.376 N 
ATOM     21  H9  UNL     1       6.954 109.511  76.684  1.00  0.00     0.160 HD
BRANCH  20  22
HETATM   22  C13 UNL     1       7.421 108.558  74.842  1.00  0.00     0.149 C 
BRANCH  22  23
HETATM   23  C14 UNL     1       6.573 109.640  74.167  1.00  0.00     0.215 C 
BRANCH  23  24
HETATM   24  O3  UNL     1       7.407 110.652  73.733  1.00  0.00    -0.283 OA
BRANCH  24  25
HETATM   25  N10 UNL     1       7.410 111.741  74.498  1.00  0.00    -0.074 NA
BRANCH  25  26
HETATM   26  C15 UNL     1       6.079 112.091  74.932  1.00  0.00     0.371 C 
BRANCH  26  27
HETATM   27  N11 UNL     1       6.106 113.420  75.557  1.00  0.00    -0.064 N 
ATOM     28 3H11 UNL     1       7.007 113.626  75.989  1.00  0.00     0.275 HD
ATOM     29 2H11 UNL     1       6.100 114.172  74.868  1.00  0.00     0.275 HD
ATOM     30 1H11 UNL     1       5.334 113.497  76.219  1.00  0.00     0.275 HD
ENDBRANCH  26  27
ENDBRANCH  25  26
ENDBRANCH  24  25
ENDBRANCH  23  24
ENDBRANCH  22  23
ENDBRANCH  20  22
ENDBRANCH  16  20
ENDBRANCH   9  16
ENDBRANCH   7   9
ENDBRANCH   6   7
BRANCH   1  31
HETATM   31  N3  UNL     1       9.490 110.250  81.395  1.00  0.00    -0.332 N 
HETATM   32  C1  UNL     1       8.641 110.036  82.547  1.00  0.00     0.186 C 
HETATM   33  N1  UNL     1       9.108 109.681  83.678  1.00  0.00    -0.374 N 
HETATM   34  N2  UNL     1       7.253 110.252  82.308  1.00  0.00    -0.064 NA
ATOM     35  H12 UNL     1       8.510 109.529  84.491  1.00  0.00     0.158 HD
ATOM     36  H11 UNL     1      10.102 109.526  83.849  1.00  0.00     0.158 HD
ATOM     37  H3  UNL     1      10.358 109.722  81.304  1.00  0.00     0.168 HD
ENDBRANCH   1  31
BRANCH   5  38
HETATM   38  N5  UNL     1       6.969 112.407  79.348  1.00  0.00    -0.067 N 
ATOM     39  H53 UNL     1       6.562 111.801  80.061  1.00  0.00     0.275 HD
ATOM     40  H52 UNL     1       7.437 113.041  79.996  1.00  0.00     0.275 HD
ATOM     41  H51 UNL     1       6.284 112.859  78.743  1.00  0.00     0.275 HD
ENDBRANCH   5  38
BRANCH   2  42
HETATM   42  C4  UNL     1      11.591 111.731  80.184  1.00  0.00     0.243 C 
BRANCH  42  43
HETATM   43  N4  UNL     1      12.518 112.724  80.601  1.00  0.00    -0.079 N 
ATOM     44  H43 UNL     1      13.136 112.984  79.833  1.00  0.00     0.274 HD
ATOM     45  H42 UNL     1      12.047 113.616  80.751  1.00  0.00     0.274 HD
ATOM     46  H41 UNL     1      13.059 112.459  81.425  1.00  0.00     0.274 HD
ENDBRANCH  42  43
ENDBRANCH   2  42
BRANCH   4  47
HETATM   47  O2  UNL     1       8.081 113.938  77.787  1.00  0.00    -0.390 OA
ATOM     48  H2  UNL     1       7.324 113.936  78.362  1.00  0.00     0.210 HD
ENDBRANCH   4  47
BRANCH   3  49
HETATM   49  O1  UNL     1      11.246 112.979  78.085  1.00  0.00    -0.392 OA
ATOM     50  H1  UNL     1      11.121 112.605  77.220  1.00  0.00     0.210 HD
ENDBRANCH   3  49
TORSDOF 19
ENDMDL
MODEL 3
REMARK VINA RESULT: -5.866775217      2.233      3.715
REMARK  19 active torsions:
REMARK  status: ('A' for Active; 'I' for Inactive)
REMARK       I    between atoms: C1_4  and  N3_6 
REMARK    1  A    between atoms: N3_6  and  C2_8 
REMARK    2  A    between atoms: C3_9  and  C4_10 
REMARK    3  A    between atoms: C4_10  and  N4_11 
REMARK    4  A    between atoms: C5_15  and  O1_16 
REMARK    5  A    between atoms: C6_18  and  O2_19 
REMARK    6  A    between atoms: C7_21  and  N5_22 
REMARK    7  A    between atoms: C8_26  and  N6_27 
REMARK    8  A    between atoms: N6_27  and  C9_29 
REMARK    9  A    between atoms: C9_29  and  C10_30 
REMARK   10  A    between atoms: C9_29  and  C12_36 
REMARK   11  A    between atoms: C10_30  and  C11_31 
REMARK   12  A    between atoms: C11_31  and  N7_32 
REMARK   13  A    between atoms: C12_36  and  N9_40 
REMARK   14  A    between atoms: N9_40  and  C13_42 
REMARK   15  A    between atoms: C13_42  and  C14_43 
REMARK   16  A    between atoms: C14_43  and  O3_44 
REMARK   17  A    between atoms: O3_44  and  N10_45 
REMARK   18  A    between atoms: N10_45  and  C15_46 
REMARK   19  A    between atoms: C15_46  and  N11_47 
ROOT
HETATM    1  C2  UNL     1       9.225 111.157  80.555  1.00  0.00     0.044 C 
HETATM    2  C3  UNL     1      10.241 112.171  80.193  1.00  0.00     0.094 C 
HETATM    3  C5  UNL     1      10.112 112.867  78.893  1.00  0.00     0.161 C 
HETATM    4  C6  UNL     1       8.921 112.572  78.060  1.00  0.00     0.184 C 
HETATM    5  C7  UNL     1       7.970 111.546  78.568  1.00  0.00     0.265 C 
HETATM    6  C8  UNL     1       8.516 110.465  79.398  1.00  0.00     0.062 C 
ENDROOT
BRANCH   6   7
HETATM    7  N6  UNL     1       9.116 109.328  78.936  1.00  0.00    -0.378 N 
ATOM      8  H6  UNL     1      10.027 109.441  78.491  1.00  0.00     0.160 HD
BRANCH   7   9
HETATM    9  C9  UNL     1       8.620 108.042  79.009  1.00  0.00     0.150 C 
BRANCH   9  10
HETATM   10  C10 UNL     1       7.689 107.772  80.122  1.00  0.00     0.060 C 
BRANCH  10  11
HETATM   11  C11 UNL     1       8.123 106.827  81.186  1.00  0.00     0.232 C 
BRANCH  11  12
HETATM   12  N7  UNL     1       7.423 106.805  82.413  1.00  0.00    -0.079 N 
ATOM     13  H73 UNL     1       7.078 107.744  82.610  1.00  0.00     0.274 HD
ATOM     14  H72 UNL     1       6.551 106.293  82.284  1.00  0.00     0.274 HD
ATOM     15  H71 UNL     1       7.893 106.447  83.245  1.00  0.00     0.274 HD
ENDBRANCH  11  12
ENDBRANCH  10  11
ENDBRANCH   9  10
BRANCH   9  16
HETATM   16  C12 UNL     1       8.110 107.480  77.726  1.00  0.00     0.093 C 
HETATM   17  N8  UNL     1       7.835 108.246  76.750  1.00  0.00    -0.387 N 
ATOM     18  H82 UNL     1       8.004 109.246  76.850  1.00  0.00     0.157 HD
ATOM     19  H81 UNL     1       7.486 107.861  75.872  1.00  0.00     0.157 HD
BRANCH  16  20
HETATM   20  N9  UNL     1       7.872 106.068  77.586  1.00  0.00    -0.376 N 
ATOM     21  H9  UNL     1       6.938 105.750  77.327  1.00  0.00     0.160 HD
BRANCH  20  22
HETATM   22  C13 UNL     1       8.903 105.090  77.799  1.00  0.00     0.149 C 
BRANCH  22  23
HETATM   23  C14 UNL     1       8.452 103.997  78.771  1.00  0.00     0.215 C 
BRANCH  23  24
HETATM   24  O3  UNL     1       7.109 103.746  78.565  1.00  0.00    -0.283 OA
BRANCH  24  25
HETATM   25  N10 UNL     1       6.333 103.945  79.628  1.00  0.00    -0.074 NA
BRANCH  25  26
HETATM   26  C15 UNL     1       6.870 103.305  80.806  1.00  0.00     0.371 C 
BRANCH  26  27
HETATM   27  N11 UNL     1       5.982 103.566  81.947  1.00  0.00    -0.064 N 
ATOM     28 3H11 UNL     1       4.997 103.472  81.700  1.00  0.00     0.275 HD
ATOM     29 2H11 UNL     1       6.027 102.827  82.648  1.00  0.00     0.275 HD
ATOM     30 1H11 UNL     1       6.197 104.483  82.337  1.00  0.00     0.275 HD
ENDBRANCH  26  27
ENDBRANCH  25  26
ENDBRANCH  24  25
ENDBRANCH  23  24
ENDBRANCH  22  23
ENDBRANCH  20  22
ENDBRANCH  16  20
ENDBRANCH   9  16
ENDBRANCH   7   9
ENDBRANCH   6   7
BRANCH   1  31
HETATM   31  N3  UNL     1       9.605 110.263  81.622  1.00  0.00    -0.332 N 
HETATM   32  C1  UNL     1       8.733 110.052  82.757  1.00  0.00     0.186 C 
HETATM   33  N1  UNL     1       9.183 109.762  83.915  1.00  0.00    -0.374 N 
HETATM   34  N2  UNL     1       7.344 110.193  82.473  1.00  0.00    -0.064 NA
ATOM     35  H12 UNL     1       8.569 109.613  84.715  1.00  0.00     0.158 HD
ATOM     36  H11 UNL     1      10.177 109.661  84.118  1.00  0.00     0.158 HD
ATOM     37  H3  UNL     1      10.498 109.774  81.575  1.00  0.00     0.168 HD
ENDBRANCH   1  31
BRANCH   5  38
HETATM   38  N5  UNL     1       7.057 112.315  79.501  1.00  0.00    -0.067 N 
ATOM     39  H53 UNL     1       7.393 113.249  79.738  1.00  0.00     0.275 HD
ATOM     40  H52 UNL     1       6.180 112.615  79.076  1.00  0.00     0.275 HD
ATOM     41  H51 UNL     1       6.942 111.696  80.304  1.00  0.00     0.275 HD
ENDBRANCH   5  38
BRANCH   2  42
HETATM   42  C4  UNL     1      11.690 111.660  80.291  1.00  0.00     0.243 C 
BRANCH  42  43
HETATM   43  N4  UNL     1      12.609 112.636  80.765  1.00  0.00    -0.079 N 
ATOM     44  H43 UNL     1      13.551 112.435  80.429  1.00  0.00     0.274 HD
ATOM     45  H42 UNL     1      12.451 113.532  80.304  1.00  0.00     0.274 HD
ATOM     46  H41 UNL     1      12.604 112.746  81.779  1.00  0.00     0.274 HD
ENDBRANCH  42  43
ENDBRANCH   2  42
BRANCH   4  47
HETATM   47  O2  UNL     1       8.148 113.748  77.835  1.00  0.00    -0.390 OA
ATOM     48  H2  UNL     1       8.342 114.413  78.486  1.00  0.00     0.210 HD
ENDBRANCH   4  47
BRANCH   3  49
HETATM   49  O1  UNL     1      11.314 112.789  78.131  1.00  0.00    -0.392 OA
ATOM     50  H1  UNL     1      11.901 113.511  78.325  1.00  0.00     0.210 HD
ENDBRANCH   3  49
TORSDOF 19
ENDMDL
MODEL 4
REMARK VINA RESULT: -5.807546742      2.789      5.616
REMARK  19 active torsions:
REMARK  status: ('A' for Active; 'I' for Inactive)
REMARK       I    between atoms: C1_4  and  N3_6 
REMARK    1  A    between atoms: N3_6  and  C2_8 
REMARK    2  A    between atoms: C3_9  and  C4_10 
REMARK    3  A    between atoms: C4_10  and  N4_11 
REMARK    4  A    between atoms: C5_15  and  O1_16 
REMARK    5  A    between atoms: C6_18  and  O2_19 
REMARK    6  A    between atoms: C7_21  and  N5_22 
REMARK    7  A    between atoms: C8_26  and  N6_27 
REMARK    8  A    between atoms: N6_27  and  C9_29 
REMARK    9  A    between atoms: C9_29  and  C10_30 
REMARK   10  A    between atoms: C9_29  and  C12_36 
REMARK   11  A    between atoms: C10_30  and  C11_31 
REMARK   12  A    between atoms: C11_31  and  N7_32 
REMARK   13  A    between atoms: C12_36  and  N9_40 
REMARK   14  A    between atoms: N9_40  and  C13_42 
REMARK   15  A    between atoms: C13_42  and  C14_43 
REMARK   16  A    between atoms: C14_43  and  O3_44 
REMARK   17  A    between atoms: O3_44  and  N10_45 
REMARK   18  A    between atoms: N10_45  and  C15_46 
REMARK   19  A    between atoms: C15_46  and  N11_47 
ROOT
HETATM    1  C2  UNL     1       8.662 109.977  78.733  1.00  0.00     0.044 C 
HETATM    2  C3  UNL     1       8.633 111.413  79.089  1.00  0.00     0.094 C 
HETATM    3  C5  UNL     1       9.422 111.868  80.256  1.00  0.00     0.161 C 
HETATM    4  C6  UNL     1      10.267 110.871  80.956  1.00  0.00     0.184 C 
HETATM    5  C7  UNL     1      10.213 109.467  80.467  1.00  0.00     0.265 C 
HETATM    6  C8  UNL     1       8.955 109.004  79.867  1.00  0.00     0.062 C 
ENDROOT
BRANCH   6   7
HETATM    7  N6  UNL     1       7.863 108.552  80.551  1.00  0.00    -0.378 N 
ATOM      8  H6  UNL     1       7.323 109.250  81.063  1.00  0.00     0.160 HD
BRANCH   7   9
HETATM    9  C9  UNL     1       7.412 107.249  80.622  1.00  0.00     0.150 C 
BRANCH   9  10
HETATM   10  C10 UNL     1       7.881 106.344  79.554  1.00  0.00     0.060 C 
BRANCH  10  11
HETATM   11  C11 UNL     1       6.868 105.543  78.818  1.00  0.00     0.232 C 
BRANCH  11  12
HETATM   12  N7  UNL     1       7.211 104.249  78.365  1.00  0.00    -0.079 N 
ATOM     13  H73 UNL     1       6.358 103.761  78.092  1.00  0.00     0.274 HD
ATOM     14  H72 UNL     1       7.689 104.332  77.468  1.00  0.00     0.274 HD
ATOM     15  H71 UNL     1       7.758 103.639  78.972  1.00  0.00     0.274 HD
ENDBRANCH  11  12
ENDBRANCH  10  11
ENDBRANCH   9  10
BRANCH   9  16
HETATM   16  C12 UNL     1       7.518 106.607  81.964  1.00  0.00     0.093 C 
HETATM   17  N8  UNL     1       8.542 106.799  82.691  1.00  0.00    -0.387 N 
ATOM     18  H82 UNL     1       9.271 107.429  82.355  1.00  0.00     0.157 HD
ATOM     19  H81 UNL     1       8.615 106.359  83.608  1.00  0.00     0.157 HD
BRANCH  16  20
HETATM   20  N9  UNL     1       6.490 105.719  82.436  1.00  0.00    -0.376 N 
ATOM     21  H9  UNL     1       5.519 106.031  82.409  1.00  0.00     0.160 HD
BRANCH  20  22
HETATM   22  C13 UNL     1       6.783 104.408  82.946  1.00  0.00     0.149 C 
BRANCH  22  23
HETATM   23  C14 UNL     1       6.351 103.313  81.966  1.00  0.00     0.215 C 
BRANCH  23  24
HETATM   24  O3  UNL     1       7.417 103.010  81.141  1.00  0.00    -0.283 OA
BRANCH  24  25
HETATM   25  N10 UNL     1       7.266 101.904  80.416  1.00  0.00    -0.074 NA
BRANCH  25  26
HETATM   26  C15 UNL     1       8.238 100.898  80.772  1.00  0.00     0.371 C 
BRANCH  26  27
HETATM   27  N11 UNL     1       8.269  99.864  79.729  1.00  0.00    -0.064 N 
ATOM     28 3H11 UNL     1       7.457  99.248  79.771  1.00  0.00     0.275 HD
ATOM     29 2H11 UNL     1       8.112 100.248  78.798  1.00  0.00     0.275 HD
ATOM     30 1H11 UNL     1       9.148  99.350  79.792  1.00  0.00     0.275 HD
ENDBRANCH  26  27
ENDBRANCH  25  26
ENDBRANCH  24  25
ENDBRANCH  23  24
ENDBRANCH  22  23
ENDBRANCH  20  22
ENDBRANCH  16  20
ENDBRANCH   9  16
ENDBRANCH   7   9
ENDBRANCH   6   7
BRANCH   1  31
HETATM   31  N3  UNL     1       7.604 109.542  77.854  1.00  0.00    -0.332 N 
HETATM   32  C1  UNL     1       7.890 108.712  76.704  1.00  0.00     0.186 C 
HETATM   33  N1  UNL     1       7.181 108.750  75.645  1.00  0.00    -0.374 N 
HETATM   34  N2  UNL     1       9.019 107.856  76.857  1.00  0.00    -0.064 NA
ATOM     35  H12 UNL     1       7.382 108.165  74.834  1.00  0.00     0.158 HD
ATOM     36  H11 UNL     1       6.372 109.363  75.536  1.00  0.00     0.158 HD
ATOM     37  H3  UNL     1       6.642 109.823  78.045  1.00  0.00     0.168 HD
ENDBRANCH   1  31
BRANCH   5  38
HETATM   38  N5  UNL     1      11.211 109.430  79.328  1.00  0.00    -0.067 N 
ATOM     39  H53 UNL     1      12.025 110.029  79.466  1.00  0.00     0.275 HD
ATOM     40  H52 UNL     1      11.728 108.554  79.252  1.00  0.00     0.275 HD
ATOM     41  H51 UNL     1      10.657 109.661  78.503  1.00  0.00     0.275 HD
ENDBRANCH   5  38
BRANCH   2  42
HETATM   42  C4  UNL     1       7.212 111.985  79.251  1.00  0.00     0.243 C 
BRANCH  42  43
HETATM   43  N4  UNL     1       7.064 113.303  78.740  1.00  0.00    -0.079 N 
ATOM     44  H43 UNL     1       7.147 113.306  77.724  1.00  0.00     0.274 HD
ATOM     45  H42 UNL     1       6.099 113.619  78.835  1.00  0.00     0.274 HD
ATOM     46  H41 UNL     1       7.706 113.978  79.156  1.00  0.00     0.274 HD
ENDBRANCH  42  43
ENDBRANCH   2  42
BRANCH   4  47
HETATM   47  O2  UNL     1      11.641 111.248  80.918  1.00  0.00    -0.390 OA
ATOM     48  H2  UNL     1      12.206 110.485  80.967  1.00  0.00     0.210 HD
ENDBRANCH   4  47
BRANCH   3  49
HETATM   49  O1  UNL     1       8.624 112.612  81.174  1.00  0.00    -0.392 OA
ATOM     50  H1  UNL     1       8.162 112.044  81.779  1.00  0.00     0.210 HD
ENDBRANCH   3  49
TORSDOF 19
ENDMDL
MODEL 5
REMARK VINA RESULT: -5.791501385      1.787      5.158
REMARK  19 active torsions:
REMARK  status: ('A' for Active; 'I' for Inactive)
REMARK       I    between atoms: C1_4  and  N3_6 
REMARK    1  A    between atoms: N3_6  and  C2_8 
REMARK    2  A    between atoms: C3_9  and  C4_10 
REMARK    3  A    between atoms: C4_10  and  N4_11 
REMARK    4  A    between atoms: C5_15  and  O1_16 
REMARK    5  A    between atoms: C6_18  and  O2_19 
REMARK    6  A    between atoms: C7_21  and  N5_22 
REMARK    7  A    between atoms: C8_26  and  N6_27 
REMARK    8  A    between atoms: N6_27  and  C9_29 
REMARK    9  A    between atoms: C9_29  and  C10_30 
REMARK   10  A    between atoms: C9_29  and  C12_36 
REMARK   11  A    between atoms: C10_30  and  C11_31 
REMARK   12  A    between atoms: C11_31  and  N7_32 
REMARK   13  A    between atoms: C12_36  and  N9_40 
REMARK   14  A    between atoms: N9_40  and  C13_42 
REMARK   15  A    between atoms: C13_42  and  C14_43 
REMARK   16  A    between atoms: C14_43  and  O3_44 
REMARK   17  A    between atoms: O3_44  and  N10_45 
REMARK   18  A    between atoms: N10_45  and  C15_46 
REMARK   19  A    between atoms: C15_46  and  N11_47 
ROOT
HETATM    1  C2  UNL     1       8.447 112.265  78.089  1.00  0.00     0.044 C 
HETATM    2  C3  UNL     1       8.102 113.187  79.194  1.00  0.00     0.094 C 
HETATM    3  C5  UNL     1       8.939 113.171  80.415  1.00  0.00     0.161 C 
HETATM    4  C6  UNL     1      10.132 112.290  80.430  1.00  0.00     0.184 C 
HETATM    5  C7  UNL     1      10.366 111.437  79.233  1.00  0.00     0.265 C 
HETATM    6  C8  UNL     1       9.189 110.992  78.475  1.00  0.00     0.062 C 
ENDROOT
BRANCH   6   7
HETATM    7  N6  UNL     1       8.399 109.921  78.783  1.00  0.00    -0.378 N 
ATOM      8  H6  UNL     1       7.497 109.868  78.309  1.00  0.00     0.160 HD
BRANCH   7   9
HETATM    9  C9  UNL     1       8.693 108.903  79.668  1.00  0.00     0.150 C 
BRANCH   9  10
HETATM   10  C10 UNL     1       8.242 109.107  81.059  1.00  0.00     0.060 C 
BRANCH  10  11
HETATM   11  C11 UNL     1       9.276 109.202  82.124  1.00  0.00     0.232 C 
BRANCH  11  12
HETATM   12  N7  UNL     1       8.899 109.652  83.409  1.00  0.00    -0.079 N 
ATOM     13  H73 UNL     1       8.028 109.193  83.675  1.00  0.00     0.274 HD
ATOM     14  H72 UNL     1       9.547 109.264  84.095  1.00  0.00     0.274 HD
ATOM     15  H71 UNL     1       8.807 110.653  83.577  1.00  0.00     0.274 HD
ENDBRANCH  11  12
ENDBRANCH  10  11
ENDBRANCH   9  10
BRANCH   9  16
HETATM   16  C12 UNL     1       8.374 107.528  79.189  1.00  0.00     0.093 C 
HETATM   17  N8  UNL     1       8.793 106.511  79.824  1.00  0.00    -0.387 N 
ATOM     18  H82 UNL     1       9.319 106.653  80.687  1.00  0.00     0.157 HD
ATOM     19  H81 UNL     1       8.575 105.569  79.497  1.00  0.00     0.157 HD
BRANCH  16  20
HETATM   20  N9  UNL     1       7.631 107.327  77.974  1.00  0.00    -0.376 N 
ATOM     21  H9  UNL     1       6.617 107.234  78.027  1.00  0.00     0.160 HD
BRANCH  20  22
HETATM   22  C13 UNL     1       8.269 107.254  76.688  1.00  0.00     0.149 C 
BRANCH  22  23
HETATM   23  C14 UNL     1       7.476 108.014  75.622  1.00  0.00     0.215 C 
BRANCH  23  24
HETATM   24  O3  UNL     1       7.227 109.293  76.081  1.00  0.00    -0.283 OA
BRANCH  24  25
HETATM   25  N10 UNL     1       6.074 109.441  76.728  1.00  0.00    -0.074 NA
BRANCH  25  26
HETATM   26  C15 UNL     1       4.945 109.344  75.834  1.00  0.00     0.371 C 
BRANCH  26  27
HETATM   27  N11 UNL     1       4.005 110.436  76.118  1.00  0.00    -0.064 N 
ATOM     28 3H11 UNL     1       4.350 111.339  75.791  1.00  0.00     0.275 HD
ATOM     29 2H11 UNL     1       3.166 110.384  75.540  1.00  0.00     0.275 HD
ATOM     30 1H11 UNL     1       3.788 110.443  77.114  1.00  0.00     0.275 HD
ENDBRANCH  26  27
ENDBRANCH  25  26
ENDBRANCH  24  25
ENDBRANCH  23  24
ENDBRANCH  22  23
ENDBRANCH  20  22
ENDBRANCH  16  20
ENDBRANCH   9  16
ENDBRANCH   7   9
ENDBRANCH   6   7
BRANCH   1  31
HETATM   31  N3  UNL     1       7.401 112.055  77.117  1.00  0.00    -0.332 N 
HETATM   32  C1  UNL     1       7.285 112.913  75.958  1.00  0.00     0.186 C 
HETATM   33  N1  UNL     1       6.164 113.153  75.399  1.00  0.00    -0.374 N 
HETATM   34  N2  UNL     1       8.518 113.459  75.498  1.00  0.00    -0.064 NA
ATOM     35  H12 UNL     1       6.081 113.757  74.582  1.00  0.00     0.158 HD
ATOM     36  H11 UNL     1       5.281 112.761  75.729  1.00  0.00     0.158 HD
ATOM     37  H3  UNL     1       6.736 111.294  77.249  1.00  0.00     0.168 HD
ENDBRANCH   1  31
BRANCH   5  38
HETATM   38  N5  UNL     1      11.113 112.340  78.273  1.00  0.00    -0.067 N 
ATOM     39  H53 UNL     1      10.560 113.121  77.917  1.00  0.00     0.275 HD
ATOM     40  H52 UNL     1      11.838 112.908  78.712  1.00  0.00     0.275 HD
ATOM     41  H51 UNL     1      11.458 111.708  77.551  1.00  0.00     0.275 HD
ENDBRANCH   5  38
BRANCH   2  42
HETATM   42  C4  UNL     1       6.634 113.089  79.650  1.00  0.00     0.243 C 
BRANCH  42  43
HETATM   43  N4  UNL     1       5.774 114.023  79.012  1.00  0.00    -0.079 N 
ATOM     44  H43 UNL     1       6.259 114.904  78.846  1.00  0.00     0.274 HD
ATOM     45  H42 UNL     1       5.591 113.744  78.049  1.00  0.00     0.274 HD
ATOM     46  H41 UNL     1       4.899 114.182  79.513  1.00  0.00     0.274 HD
ENDBRANCH  42  43
ENDBRANCH   2  42
BRANCH   4  47
HETATM   47  O2  UNL     1      11.325 113.047  80.613  1.00  0.00    -0.390 OA
ATOM     48  H2  UNL     1      11.603 113.031  81.522  1.00  0.00     0.210 HD
ENDBRANCH   4  47
BRANCH   3  49
HETATM   49  O1  UNL     1       8.152 113.004  81.592  1.00  0.00    -0.392 OA
ATOM     50  H1  UNL     1       8.538 113.447  82.339  1.00  0.00     0.210 HD
ENDBRANCH   3  49
TORSDOF 19
ENDMDL
