MODEL 1
REMARK VINA RESULT: -6.268901349      0.000      0.000
REMARK  5 active torsions:
REMARK  status: ('A' for Active; 'I' for Inactive)
REMARK    1  A    between atoms: C2_2  and  C3_3 
REMARK    2  A    between atoms: C3_3  and  N1_4 
REMARK    3  A    between atoms: N1_4  and  C4_7 
REMARK    4  A    between atoms: C4_7  and  C5_8 
REMARK    5  A    between atoms: C5_8  and  C6_9 
ROOT
HETATM    1  N1  UNL     1       1.999  -1.014   6.147  1.00  0.00    -0.072 N 
ATOM      2  H11 UNL     1       2.420  -1.937   6.033  1.00  0.00     0.277 HD
ATOM      3  H12 UNL     1       2.860  -0.467   6.137  1.00  0.00     0.277 HD
ENDROOT
BRANCH   1   4
HETATM    4  C3  UNL     1       1.266  -0.883   7.387  1.00  0.00     0.259 C 
BRANCH   4   5
HETATM    5  C2  UNL     1       1.334  -2.048   8.267  1.00  0.00    -0.010 C 
HETATM    6  C1  UNL     1       1.357  -3.273   7.796  1.00  0.00     0.008 C 
ENDBRANCH   4   5
ENDBRANCH   1   4
BRANCH   1   7
HETATM    7  C4  UNL     1       1.091  -0.663   5.040  1.00  0.00     0.233 C 
BRANCH   7   8
HETATM    8  C5  UNL     1       1.341   0.775   4.728  1.00  0.00     0.032 C 
BRANCH   8   9
HETATM    9  C6  UNL     1       0.087   1.610   4.629  1.00  0.00    -0.013 C 
HETATM   10  C7  UNL     1      -1.163   0.970   5.203  1.00  0.00     0.005 C 
HETATM   11  C8  UNL     1      -1.915   1.555   4.025  1.00  0.00     0.001 C 
HETATM   12  C9  UNL     1      -0.599   1.515   3.270  1.00  0.00     0.005 C 
ENDBRANCH   8   9
ENDBRANCH   7   8
ENDBRANCH   1   7
TORSDOF 5
ENDMDL
MODEL 2
REMARK VINA RESULT: -6.196960884      1.257      1.659
REMARK  5 active torsions:
REMARK  status: ('A' for Active; 'I' for Inactive)
REMARK    1  A    between atoms: C2_2  and  C3_3 
REMARK    2  A    between atoms: C3_3  and  N1_4 
REMARK    3  A    between atoms: N1_4  and  C4_7 
REMARK    4  A    between atoms: C4_7  and  C5_8 
REMARK    5  A    between atoms: C5_8  and  C6_9 
ROOT
HETATM    1  N1  UNL     1       1.681  -0.283   5.680  1.00  0.00    -0.072 N 
ATOM      2  H11 UNL     1       2.576  -0.773   5.683  1.00  0.00     0.277 HD
ATOM      3  H12 UNL     1       1.837   0.294   6.507  1.00  0.00     0.277 HD
ENDROOT
BRANCH   1   4
HETATM    4  C3  UNL     1       0.555  -1.178   5.828  1.00  0.00     0.259 C 
BRANCH   4   5
HETATM    5  C2  UNL     1       0.033  -1.291   7.189  1.00  0.00    -0.010 C 
HETATM    6  C1  UNL     1      -0.189  -0.236   7.936  1.00  0.00     0.008 C 
ENDBRANCH   4   5
ENDBRANCH   1   4
BRANCH   1   7
HETATM    7  C4  UNL     1       1.474   0.517   4.460  1.00  0.00     0.233 C 
BRANCH   7   8
HETATM    8  C5  UNL     1       0.560   1.635   4.838  1.00  0.00     0.032 C 
BRANCH   8   9
HETATM    9  C6  UNL     1      -0.567   1.866   3.860  1.00  0.00    -0.013 C 
HETATM   10  C7  UNL     1      -1.898   1.255   4.251  1.00  0.00     0.005 C 
HETATM   11  C8  UNL     1      -2.079   0.893   2.790  1.00  0.00     0.001 C 
HETATM   12  C9  UNL     1      -0.565   0.887   2.690  1.00  0.00     0.005 C 
ENDBRANCH   8   9
ENDBRANCH   7   8
ENDBRANCH   1   7
TORSDOF 5
ENDMDL
MODEL 3
REMARK VINA RESULT: -6.166764705      2.587      4.665
REMARK  5 active torsions:
REMARK  status: ('A' for Active; 'I' for Inactive)
REMARK    1  A    between atoms: C2_2  and  C3_3 
REMARK    2  A    between atoms: C3_3  and  N1_4 
REMARK    3  A    between atoms: N1_4  and  C4_7 
REMARK    4  A    between atoms: C4_7  and  C5_8 
REMARK    5  A    between atoms: C5_8  and  C6_9 
ROOT
HETATM    1  N1  UNL     1      -2.133   0.693   2.290  1.00  0.00    -0.072 N 
ATOM      2  H11 UNL     1      -2.704   1.512   2.500  1.00  0.00     0.277 HD
ATOM      3  H12 UNL     1      -2.383   0.598   1.305  1.00  0.00     0.277 HD
ENDROOT
BRANCH   1   4
HETATM    4  C3  UNL     1      -2.505  -0.464   3.075  1.00  0.00     0.259 C 
BRANCH   4   5
HETATM    5  C2  UNL     1      -3.593  -0.239   4.024  1.00  0.00    -0.010 C 
HETATM    6  C1  UNL     1      -3.989   0.969   4.351  1.00  0.00     0.008 C 
ENDBRANCH   4   5
ENDBRANCH   1   4
BRANCH   1   7
HETATM    7  C4  UNL     1      -0.693   0.938   2.489  1.00  0.00     0.233 C 
BRANCH   7   8
HETATM    8  C5  UNL     1      -0.585   1.979   3.554  1.00  0.00     0.032 C 
BRANCH   8   9
HETATM    9  C6  UNL     1       0.298   1.585   4.713  1.00  0.00    -0.013 C 
HETATM   10  C7  UNL     1       1.161   0.359   4.480  1.00  0.00     0.005 C 
HETATM   11  C8  UNL     1       0.858  -0.036   5.912  1.00  0.00     0.001 C 
HETATM   12  C9  UNL     1      -0.426   0.761   5.774  1.00  0.00     0.005 C 
ENDBRANCH   8   9
ENDBRANCH   7   8
ENDBRANCH   1   7
TORSDOF 5
ENDMDL
MODEL 4
REMARK VINA RESULT: -6.136880580      3.083      4.971
REMARK  5 active torsions:
REMARK  status: ('A' for Active; 'I' for Inactive)
REMARK    1  A    between atoms: C2_2  and  C3_3 
REMARK    2  A    between atoms: C3_3  and  N1_4 
REMARK    3  A    between atoms: N1_4  and  C4_7 
REMARK    4  A    between atoms: C4_7  and  C5_8 
REMARK    5  A    between atoms: C5_8  and  C6_9 
ROOT
HETATM    1  N1  UNL     1      -2.729  -0.950   3.886  1.00  0.00    -0.072 N 
ATOM      2  H11 UNL     1      -3.171  -1.855   4.053  1.00  0.00     0.277 HD
ATOM      3  H12 UNL     1      -2.399  -0.780   4.836  1.00  0.00     0.277 HD
ENDROOT
BRANCH   1   4
HETATM    4  C3  UNL     1      -3.667   0.053   3.432  1.00  0.00     0.259 C 
BRANCH   4   5
HETATM    5  C2  UNL     1      -4.140   0.967   4.470  1.00  0.00    -0.010 C 
HETATM    6  C1  UNL     1      -5.355   1.463   4.456  1.00  0.00     0.008 C 
ENDBRANCH   4   5
ENDBRANCH   1   4
BRANCH   1   7
HETATM    7  C4  UNL     1      -1.629  -1.026   2.907  1.00  0.00     0.233 C 
BRANCH   7   8
HETATM    8  C5  UNL     1      -1.340   0.377   2.488  1.00  0.00     0.032 C 
BRANCH   8   9
HETATM    9  C6  UNL     1      -0.039   0.924   3.024  1.00  0.00    -0.013 C 
HETATM   10  C7  UNL     1       0.852  -0.091   3.715  1.00  0.00     0.005 C 
HETATM   11  C8  UNL     1       1.170   0.989   4.730  1.00  0.00     0.001 C 
HETATM   12  C9  UNL     1      -0.178   1.594   4.388  1.00  0.00     0.005 C 
ENDBRANCH   8   9
ENDBRANCH   7   8
ENDBRANCH   1   7
TORSDOF 5
ENDMDL
MODEL 5
REMARK VINA RESULT: -6.094195089      1.923      2.950
REMARK  5 active torsions:
REMARK  status: ('A' for Active; 'I' for Inactive)
REMARK    1  A    between atoms: C2_2  and  C3_3 
REMARK    2  A    between atoms: C3_3  and  N1_4 
REMARK    3  A    between atoms: N1_4  and  C4_7 
REMARK    4  A    between atoms: C4_7  and  C5_8 
REMARK    5  A    between atoms: C5_8  and  C6_9 
ROOT
HETATM    1  N1  UNL     1      -1.052  -0.453   6.339  1.00  0.00    -0.072 N 
ATOM      2  H11 UNL     1      -0.789   0.518   6.509  1.00  0.00     0.277 HD
ATOM      3  H12 UNL     1      -1.387  -0.672   7.278  1.00  0.00     0.277 HD
ENDROOT
BRANCH   1   4
HETATM    4  C3  UNL     1       0.070  -1.274   5.941  1.00  0.00     0.259 C 
BRANCH   4   5
HETATM    5  C2  UNL     1       1.258  -0.531   5.525  1.00  0.00    -0.010 C 
HETATM    6  C1  UNL     1       1.708  -0.575   4.293  1.00  0.00     0.008 C 
ENDBRANCH   4   5
ENDBRANCH   1   4
BRANCH   1   7
HETATM    7  C4  UNL     1      -2.104  -0.587   5.315  1.00  0.00     0.233 C 
BRANCH   7   8
HETATM    8  C5  UNL     1      -2.562   0.798   4.997  1.00  0.00     0.032 C 
BRANCH   8   9
HETATM    9  C6  UNL     1      -2.169   1.274   3.618  1.00  0.00    -0.013 C 
HETATM   10  C7  UNL     1      -1.601   0.206   2.703  1.00  0.00     0.005 C 
HETATM   11  C8  UNL     1      -0.613   1.249   2.221  1.00  0.00     0.001 C 
HETATM   12  C9  UNL     1      -0.788   1.921   3.570  1.00  0.00     0.005 C 
ENDBRANCH   8   9
ENDBRANCH   7   8
ENDBRANCH   1   7
TORSDOF 5
ENDMDL
