MODEL 1
REMARK VINA RESULT: -7.147284476      0.000      0.000
REMARK  3 active torsions:
REMARK  status: ('A' for Active; 'I' for Inactive)
REMARK    1  A    between atoms: N1_2  and  C3_4 
REMARK    2  A    between atoms: C6_13  and  N5_14 
REMARK    3  A    between atoms: N5_14  and  C7_16 
ROOT
HETATM    1  C3  UNL     1       9.782  46.488  20.031  1.00  0.00     0.135 A 
HETATM    2  N2  UNL     1       8.756  46.117  19.245  1.00  0.00    -0.337 N 
ATOM      3  H2  UNL     1       7.812  46.399  19.510  1.00  0.00     0.168 HD
HETATM    4  C4  UNL     1       8.919  45.391  18.122  1.00  0.00     0.183 A 
HETATM    5  N3  UNL     1      10.131  44.984  17.707  1.00  0.00    -0.336 N 
ATOM      6  H3  UNL     1      10.245  44.434  16.855  1.00  0.00     0.168 HD
HETATM    7  C5  UNL     1      11.193  45.336  18.470  1.00  0.00     0.153 A 
HETATM    8  N4  UNL     1      12.521  45.100  18.351  1.00  0.00    -0.174 N 
ATOM      9  H4  UNL     1      12.952  44.572  17.594  1.00  0.00     0.186 HD
HETATM   10  C6  UNL     1      13.199  45.667  19.382  1.00  0.00     0.686 A 
HETATM   11  N8  UNL     1      12.255  46.270  20.160  1.00  0.00    -0.184 N 
ATOM     12  H8  UNL     1      12.445  46.786  21.019  1.00  0.00     0.184 HD
HETATM   13  C14 UNL     1      11.036  46.080  19.623  1.00  0.00     0.137 A 
ENDROOT
BRANCH  10  14
HETATM   14  N5  UNL     1      14.547  45.615  19.583  1.00  0.00    -0.175 N 
ATOM     15  H5  UNL     1      14.756  45.147  20.464  1.00  0.00     0.186 HD
BRANCH  14  16
HETATM   16  C7  UNL     1      15.592  45.962  19.022  1.00  0.00     0.133 A 
HETATM   17  N6  UNL     1      15.488  46.700  17.871  1.00  0.00    -0.351 N 
HETATM   18  C8  UNL     1      16.539  47.133  17.174  1.00  0.00     0.092 A 
ATOM     19  H6  UNL     1      14.555  46.930  17.529  1.00  0.00     0.166 HD
HETATM   20  C9  UNL     1      17.794  46.821  17.636  1.00  0.00     0.047 A 
HETATM   21  C10 UNL     1      17.951  46.074  18.801  1.00  0.00     0.047 A 
HETATM   22  N7  UNL     1      19.080  45.651  19.439  1.00  0.00    -0.365 N 
HETATM   23  C13 UNL     1      16.842  45.643  19.496  1.00  0.00     0.036 A 
HETATM   24  C11 UNL     1      18.687  44.967  20.516  1.00  0.00     0.089 A 
ATOM     25  H7  UNL     1      20.042  45.826  19.148  1.00  0.00     0.165 HD
HETATM   26  C12 UNL     1      17.312  44.936  20.592  1.00  0.00     0.034 A 
ENDBRANCH  14  16
ENDBRANCH  10  14
BRANCH   1  27
HETATM   27  N1  UNL     1       9.609  47.246  21.204  1.00  0.00    -0.374 N 
HETATM   28  C1  UNL     1       8.654  46.744  22.197  1.00  0.00     0.150 C 
HETATM   29  C2  UNL     1      10.317  48.460  21.451  1.00  0.00     0.150 C 
ENDBRANCH   1  27
TORSDOF 3
ENDMDL
MODEL 2
REMARK VINA RESULT: -6.717326881      1.667      7.179
REMARK  3 active torsions:
REMARK  status: ('A' for Active; 'I' for Inactive)
REMARK    1  A    between atoms: N1_2  and  C3_4 
REMARK    2  A    between atoms: C6_13  and  N5_14 
REMARK    3  A    between atoms: N5_14  and  C7_16 
ROOT
HETATM    1  C3  UNL     1      16.408  47.354  16.207  1.00  0.00     0.135 A 
HETATM    2  N2  UNL     1      17.748  47.436  16.279  1.00  0.00    -0.337 N 
ATOM      3  H2  UNL     1      18.255  47.832  15.487  1.00  0.00     0.168 HD
HETATM    4  C4  UNL     1      18.451  47.021  17.351  1.00  0.00     0.183 A 
HETATM    5  N3  UNL     1      17.855  46.490  18.431  1.00  0.00    -0.336 N 
ATOM      6  H3  UNL     1      18.395  46.177  19.239  1.00  0.00     0.168 HD
HETATM    7  C5  UNL     1      16.505  46.387  18.401  1.00  0.00     0.153 A 
HETATM    8  N4  UNL     1      15.604  45.912  19.294  1.00  0.00    -0.174 N 
ATOM      9  H4  UNL     1      15.840  45.527  20.208  1.00  0.00     0.186 HD
HETATM   10  C6  UNL     1      14.343  46.023  18.803  1.00  0.00     0.686 A 
HETATM   11  N8  UNL     1      14.474  46.583  17.567  1.00  0.00    -0.184 N 
ATOM     12  H8  UNL     1      13.703  46.797  16.935  1.00  0.00     0.184 HD
HETATM   13  C14 UNL     1      15.775  46.810  17.307  1.00  0.00     0.137 A 
ENDROOT
BRANCH  10  14
HETATM   14  N5  UNL     1      13.199  45.631  19.432  1.00  0.00    -0.175 N 
ATOM     15  H5  UNL     1      13.418  45.201  20.331  1.00  0.00     0.186 HD
BRANCH  14  16
HETATM   16  C7  UNL     1      11.976  45.637  19.246  1.00  0.00     0.133 A 
HETATM   17  N6  UNL     1      11.489  44.950  18.165  1.00  0.00    -0.351 N 
HETATM   18  C8  UNL     1      10.194  44.881  17.856  1.00  0.00     0.092 A 
ATOM     19  H6  UNL     1      12.154  44.464  17.563  1.00  0.00     0.166 HD
HETATM   20  C9  UNL     1       9.301  45.537  18.668  1.00  0.00     0.047 A 
HETATM   21  C10 UNL     1       9.748  46.248  19.779  1.00  0.00     0.047 A 
HETATM   22  N7  UNL     1       9.057  46.964  20.711  1.00  0.00    -0.365 N 
HETATM   23  C13 UNL     1      11.094  46.298  20.067  1.00  0.00     0.036 A 
HETATM   24  C11 UNL     1       9.953  47.454  21.571  1.00  0.00     0.089 A 
ATOM     25  H7  UNL     1       8.046  47.099  20.745  1.00  0.00     0.165 HD
HETATM   26  C12 UNL     1      11.226  47.068  21.212  1.00  0.00     0.034 A 
ENDBRANCH  14  16
ENDBRANCH  10  14
BRANCH   1  27
HETATM   27  N1  UNL     1      15.676  47.787  15.087  1.00  0.00    -0.374 N 
HETATM   28  C1  UNL     1      15.240  49.188  15.067  1.00  0.00     0.150 C 
HETATM   29  C2  UNL     1      15.350  46.927  13.995  1.00  0.00     0.150 C 
ENDBRANCH   1  27
TORSDOF 3
ENDMDL
MODEL 3
REMARK VINA RESULT: -6.344869791      1.677      7.275
REMARK  3 active torsions:
REMARK  status: ('A' for Active; 'I' for Inactive)
REMARK    1  A    between atoms: N1_2  and  C3_4 
REMARK    2  A    between atoms: C6_13  and  N5_14 
REMARK    3  A    between atoms: N5_14  and  C7_16 
ROOT
HETATM    1  C3  UNL     1      16.401  47.407  16.158  1.00  0.00     0.135 A 
HETATM    2  N2  UNL     1      17.729  47.594  16.261  1.00  0.00    -0.337 N 
ATOM      3  H2  UNL     1      18.223  48.022  15.478  1.00  0.00     0.168 HD
HETATM    4  C4  UNL     1      18.436  47.243  17.353  1.00  0.00     0.183 A 
HETATM    5  N3  UNL     1      17.855  46.676  18.425  1.00  0.00    -0.336 N 
ATOM      6  H3  UNL     1      18.398  46.414  19.248  1.00  0.00     0.168 HD
HETATM    7  C5  UNL     1      16.519  46.469  18.363  1.00  0.00     0.153 A 
HETATM    8  N4  UNL     1      15.636  45.934  19.239  1.00  0.00    -0.174 N 
ATOM      9  H4  UNL     1      15.878  45.575  20.162  1.00  0.00     0.186 HD
HETATM   10  C6  UNL     1      14.383  45.942  18.717  1.00  0.00     0.686 A 
HETATM   11  N8  UNL     1      14.500  46.500  17.479  1.00  0.00    -0.184 N 
ATOM     12  H8  UNL     1      13.731  46.648  16.826  1.00  0.00     0.184 HD
HETATM   13  C14 UNL     1      15.785  46.825  17.248  1.00  0.00     0.137 A 
ENDROOT
BRANCH  10  14
HETATM   14  N5  UNL     1      13.257  45.467  19.323  1.00  0.00    -0.175 N 
ATOM     15  H5  UNL     1      13.392  44.500  19.614  1.00  0.00     0.186 HD
BRANCH  14  16
HETATM   16  C7  UNL     1      12.122  45.853  19.626  1.00  0.00     0.133 A 
HETATM   17  N6  UNL     1      11.982  46.598  20.768  1.00  0.00    -0.351 N 
HETATM   18  C8  UNL     1      10.814  47.071  21.204  1.00  0.00     0.092 A 
ATOM     19  H6  UNL     1      12.818  46.802  21.316  1.00  0.00     0.166 HD
HETATM   20  C9  UNL     1       9.690  46.795  20.464  1.00  0.00     0.047 A 
HETATM   21  C10 UNL     1       9.781  46.042  19.296  1.00  0.00     0.047 A 
HETATM   22  N7  UNL     1       8.816  45.649  18.416  1.00  0.00    -0.365 N 
HETATM   23  C13 UNL     1      11.005  45.569  18.877  1.00  0.00     0.036 A 
HETATM   24  C11 UNL     1       9.424  44.943  17.460  1.00  0.00     0.089 A 
ATOM     25  H7  UNL     1       7.820  45.857  18.477  1.00  0.00     0.165 HD
HETATM   26  C12 UNL     1      10.777  44.866  17.703  1.00  0.00     0.034 A 
ENDBRANCH  14  16
ENDBRANCH  10  14
BRANCH   1  27
HETATM   27  N1  UNL     1      15.666  47.774  15.016  1.00  0.00    -0.374 N 
HETATM   28  C1  UNL     1      15.108  49.130  14.980  1.00  0.00     0.150 C 
HETATM   29  C2  UNL     1      15.449  46.888  13.918  1.00  0.00     0.150 C 
ENDBRANCH   1  27
TORSDOF 3
ENDMDL
MODEL 4
REMARK VINA RESULT: -6.333010863      1.122      7.287
REMARK  3 active torsions:
REMARK  status: ('A' for Active; 'I' for Inactive)
REMARK    1  A    between atoms: N1_2  and  C3_4 
REMARK    2  A    between atoms: C6_13  and  N5_14 
REMARK    3  A    between atoms: N5_14  and  C7_16 
ROOT
HETATM    1  C3  UNL     1      18.068  45.979  18.931  1.00  0.00     0.135 A 
HETATM    2  N2  UNL     1      18.732  46.681  17.997  1.00  0.00    -0.337 N 
ATOM      3  H2  UNL     1      19.752  46.698  18.033  1.00  0.00     0.168 HD
HETATM    4  C4  UNL     1      18.113  47.363  17.014  1.00  0.00     0.183 A 
HETATM    5  N3  UNL     1      16.773  47.388  16.899  1.00  0.00    -0.336 N 
ATOM      6  H3  UNL     1      16.312  47.907  16.152  1.00  0.00     0.168 HD
HETATM    7  C5  UNL     1      16.064  46.693  17.820  1.00  0.00     0.153 A 
HETATM    8  N4  UNL     1      14.735  46.507  18.000  1.00  0.00    -0.174 N 
ATOM      9  H4  UNL     1      14.008  46.904  17.406  1.00  0.00     0.186 HD
HETATM   10  C6  UNL     1      14.507  45.718  19.081  1.00  0.00     0.686 A 
HETATM   11  N8  UNL     1      15.736  45.410  19.581  1.00  0.00    -0.184 N 
ATOM     12  H8  UNL     1      15.907  44.827  20.401  1.00  0.00     0.184 HD
HETATM   13  C14 UNL     1      16.691  45.991  18.832  1.00  0.00     0.137 A 
ENDROOT
BRANCH  10  14
HETATM   14  N5  UNL     1      13.285  45.339  19.555  1.00  0.00    -0.175 N 
ATOM     15  H5  UNL     1      13.386  44.858  20.448  1.00  0.00     0.186 HD
BRANCH  14  16
HETATM   16  C7  UNL     1      12.094  45.401  19.232  1.00  0.00     0.133 A 
HETATM   17  N6  UNL     1      11.700  44.732  18.103  1.00  0.00    -0.351 N 
HETATM   18  C8  UNL     1      10.445  44.722  17.650  1.00  0.00     0.092 A 
ATOM     19  H6  UNL     1      12.405  44.213  17.579  1.00  0.00     0.166 HD
HETATM   20  C9  UNL     1       9.498  45.422  18.356  1.00  0.00     0.047 A 
HETATM   21  C10 UNL     1       9.850  46.117  19.511  1.00  0.00     0.047 A 
HETATM   22  N7  UNL     1       9.092  46.868  20.360  1.00  0.00    -0.365 N 
HETATM   23  C13 UNL     1      11.156  46.106  19.949  1.00  0.00     0.036 A 
HETATM   24  C11 UNL     1       9.907  47.320  21.315  1.00  0.00     0.089 A 
ATOM     25  H7  UNL     1       8.092  47.050  20.280  1.00  0.00     0.165 HD
HETATM   26  C12 UNL     1      11.193  46.874  21.103  1.00  0.00     0.034 A 
ENDBRANCH  14  16
ENDBRANCH  10  14
BRANCH   1  27
HETATM   27  N1  UNL     1      18.717  45.268  19.956  1.00  0.00    -0.374 N 
HETATM   28  C1  UNL     1      20.183  45.251  19.942  1.00  0.00     0.150 C 
HETATM   29  C2  UNL     1      18.010  44.577  20.986  1.00  0.00     0.150 C 
ENDBRANCH   1  27
TORSDOF 3
ENDMDL
MODEL 5
REMARK VINA RESULT: -6.276835892      1.382      3.016
REMARK  3 active torsions:
REMARK  status: ('A' for Active; 'I' for Inactive)
REMARK    1  A    between atoms: N1_2  and  C3_4 
REMARK    2  A    between atoms: C6_13  and  N5_14 
REMARK    3  A    between atoms: N5_14  and  C7_16 
ROOT
HETATM    1  C3  UNL     1      10.576  45.169  16.954  1.00  0.00     0.135 A 
HETATM    2  N2  UNL     1       9.305  45.264  17.379  1.00  0.00    -0.337 N 
ATOM      3  H2  UNL     1       8.554  45.135  16.701  1.00  0.00     0.168 HD
HETATM    4  C4  UNL     1       8.977  45.522  18.660  1.00  0.00     0.183 A 
HETATM    5  N3  UNL     1       9.910  45.703  19.611  1.00  0.00    -0.336 N 
ATOM      6  H3  UNL     1       9.653  45.897  20.579  1.00  0.00     0.168 HD
HETATM    7  C5  UNL     1      11.205  45.616  19.227  1.00  0.00     0.153 A 
HETATM    8  N4  UNL     1      12.370  45.741  19.906  1.00  0.00    -0.174 N 
ATOM      9  H4  UNL     1      12.443  45.939  20.903  1.00  0.00     0.186 HD
HETATM   10  C6  UNL     1      13.428  45.567  19.072  1.00  0.00     0.686 A 
HETATM   11  N8  UNL     1      12.894  45.327  17.841  1.00  0.00    -0.184 N 
ATOM     12  H8  UNL     1      13.432  45.154  16.991  1.00  0.00     0.184 HD
HETATM   13  C14 UNL     1      11.551  45.352  17.915  1.00  0.00     0.137 A 
ENDROOT
BRANCH  10  14
HETATM   14  N5  UNL     1      14.744  45.638  19.420  1.00  0.00    -0.175 N 
ATOM     15  H5  UNL     1      14.880  45.285  20.367  1.00  0.00     0.186 HD
BRANCH  14  16
HETATM   16  C7  UNL     1      15.824  45.999  18.937  1.00  0.00     0.133 A 
HETATM   17  N6  UNL     1      15.792  46.797  17.823  1.00  0.00    -0.351 N 
HETATM   18  C8  UNL     1      16.885  47.252  17.209  1.00  0.00     0.092 A 
ATOM     19  H6  UNL     1      14.883  47.058  17.442  1.00  0.00     0.166 HD
HETATM   20  C9  UNL     1      18.109  46.899  17.724  1.00  0.00     0.047 A 
HETATM   21  C10 UNL     1      18.192  46.091  18.855  1.00  0.00     0.047 A 
HETATM   22  N7  UNL     1      19.278  45.620  19.531  1.00  0.00    -0.365 N 
HETATM   23  C13 UNL     1      17.041  45.639  19.463  1.00  0.00     0.036 A 
HETATM   24  C11 UNL     1      18.819  44.887  20.547  1.00  0.00     0.089 A 
ATOM     25  H7  UNL     1      20.257  45.796  19.304  1.00  0.00     0.165 HD
HETATM   26  C12 UNL     1      17.441  44.869  20.545  1.00  0.00     0.034 A 
ENDBRANCH  14  16
ENDBRANCH  10  14
BRANCH   1  27
HETATM   27  N1  UNL     1      10.916  44.901  15.616  1.00  0.00    -0.374 N 
HETATM   28  C1  UNL     1      10.829  46.012  14.662  1.00  0.00     0.150 C 
HETATM   29  C2  UNL     1      11.333  43.612  15.167  1.00  0.00     0.150 C 
ENDBRANCH   1  27
TORSDOF 3
ENDMDL
