MODEL 1
REMARK VINA RESULT: -6.923910685      0.000      0.000
REMARK  2 active torsions:
REMARK  status: ('A' for Active; 'I' for Inactive)
REMARK       I    between atoms: N2_3  and  C2_5 
REMARK    1  A    between atoms: N4_7  and  C3_9 
REMARK    2  A    between atoms: C12_18  and  C13_19 
ROOT
HETATM    1  C3  UNL     1      13.680 -12.349  21.397  1.00  0.00     0.088 C 
HETATM    2  C4  UNL     1      13.503 -12.391  19.897  1.00  0.00     0.026 C 
HETATM    3  C5  UNL     1      14.779 -13.131  19.473  1.00  0.00     0.008 C 
HETATM    4  C6  UNL     1      15.825 -12.421  20.261  1.00  0.00     0.001 C 
HETATM    5  C7  UNL     1      15.170 -12.247  21.617  1.00  0.00     0.014 C 
HETATM    6  C8  UNL     1      15.854 -13.565  22.007  1.00  0.00     0.018 C 
HETATM    7  C9  UNL     1      16.836 -13.283  20.941  1.00  0.00    -0.024 C 
HETATM    8  C10 UNL     1      18.153 -12.711  21.280  1.00  0.00     0.011 C 
HETATM    9  C11 UNL     1      18.702 -13.470  20.062  1.00  0.00     0.015 C 
HETATM   10  C12 UNL     1      17.475 -14.375  20.201  1.00  0.00     0.084 C 
ENDROOT
BRANCH   1  11
HETATM   11  N4  UNL     1      12.989 -11.263  22.025  1.00  0.00    -0.359 N 
HETATM   12  C2  UNL     1      12.050 -11.318  22.881  1.00  0.00     0.189 C 
HETATM   13  N2  UNL     1      11.501 -10.093  23.379  1.00  0.00    -0.329 N 
HETATM   14  N3  UNL     1      11.494 -12.513  23.390  1.00  0.00    -0.064 NA
HETATM   15  C1  UNL     1      11.484  -9.859  24.641  1.00  0.00     0.192 C 
ATOM     16  H2  UNL     1      11.122  -9.404  22.729  1.00  0.00     0.168 HD
HETATM   17  N1  UNL     1      10.937  -8.640  25.121  1.00  0.00    -0.097 NA
ATOM     18  H4  UNL     1      13.287 -10.327  21.751  1.00  0.00     0.162 HD
ENDBRANCH   1  11
BRANCH  10  19
HETATM   19  C13 UNL     1      17.876 -15.564  21.021  1.00  0.00     0.236 C 
HETATM   20  N5  UNL     1      17.081 -16.722  21.121  1.00  0.00    -0.062 NA
HETATM   21  O1  UNL     1      18.975 -15.573  21.673  1.00  0.00    -0.276 OA
ENDBRANCH  10  19
TORSDOF 2
ENDMDL
MODEL 2
REMARK VINA RESULT: -6.729648234      3.000      3.864
REMARK  2 active torsions:
REMARK  status: ('A' for Active; 'I' for Inactive)
REMARK       I    between atoms: N2_3  and  C2_5 
REMARK    1  A    between atoms: N4_7  and  C3_9 
REMARK    2  A    between atoms: C12_18  and  C13_19 
ROOT
HETATM    1  C3  UNL     1      15.550 -11.914  20.700  1.00  0.00     0.088 C 
HETATM    2  C4  UNL     1      16.894 -12.425  21.165  1.00  0.00     0.026 C 
HETATM    3  C5  UNL     1      17.307 -13.292  19.968  1.00  0.00     0.008 C 
HETATM    4  C6  UNL     1      16.064 -14.069  19.706  1.00  0.00     0.001 C 
HETATM    5  C7  UNL     1      14.972 -13.029  19.861  1.00  0.00     0.014 C 
HETATM    6  C8  UNL     1      15.092 -12.819  18.345  1.00  0.00     0.018 C 
HETATM    7  C9  UNL     1      15.649 -14.185  18.277  1.00  0.00    -0.024 C 
HETATM    8  C10 UNL     1      14.791 -15.315  17.869  1.00  0.00     0.011 C 
HETATM    9  C11 UNL     1      16.059 -15.957  17.287  1.00  0.00     0.015 C 
HETATM   10  C12 UNL     1      16.641 -14.541  17.258  1.00  0.00     0.084 C 
ENDROOT
BRANCH   1  11
HETATM   11  N4  UNL     1      14.668 -11.565  21.774  1.00  0.00    -0.359 N 
HETATM   12  C2  UNL     1      13.635 -10.824  21.733  1.00  0.00     0.189 C 
HETATM   13  N2  UNL     1      12.895 -10.609  22.940  1.00  0.00    -0.329 N 
HETATM   14  N3  UNL     1      13.150 -10.182  20.571  1.00  0.00    -0.064 NA
HETATM   15  C1  UNL     1      11.644 -10.889  22.989  1.00  0.00     0.192 C 
ATOM     16  H2  UNL     1      13.365 -10.233  23.765  1.00  0.00     0.168 HD
HETATM   17  N1  UNL     1      10.923 -10.671  24.192  1.00  0.00    -0.097 NA
ATOM     18  H4  UNL     1      14.897 -11.961  22.686  1.00  0.00     0.162 HD
ENDBRANCH   1  11
BRANCH  10  19
HETATM   19  C13 UNL     1      16.397 -13.975  15.892  1.00  0.00     0.236 C 
HETATM   20  N5  UNL     1      16.969 -12.763  15.458  1.00  0.00    -0.062 NA
HETATM   21  O1  UNL     1      15.647 -14.581  15.052  1.00  0.00    -0.276 OA
ENDBRANCH  10  19
TORSDOF 2
ENDMDL
MODEL 3
REMARK VINA RESULT: -6.578780596      1.285      1.308
REMARK  2 active torsions:
REMARK  status: ('A' for Active; 'I' for Inactive)
REMARK       I    between atoms: N2_3  and  C2_5 
REMARK    1  A    between atoms: N4_7  and  C3_9 
REMARK    2  A    between atoms: C12_18  and  C13_19 
ROOT
HETATM    1  C3  UNL     1      14.509 -13.006  21.465  1.00  0.00     0.088 C 
HETATM    2  C4  UNL     1      14.294 -13.250  19.990  1.00  0.00     0.026 C 
HETATM    3  C5  UNL     1      15.648 -13.855  19.593  1.00  0.00     0.008 C 
HETATM    4  C6  UNL     1      16.607 -12.921  20.246  1.00  0.00     0.001 C 
HETATM    5  C7  UNL     1      15.977 -12.677  21.602  1.00  0.00     0.014 C 
HETATM    6  C8  UNL     1      16.850 -13.835  22.107  1.00  0.00     0.018 C 
HETATM    7  C9  UNL     1      17.750 -13.551  20.971  1.00  0.00    -0.024 C 
HETATM    8  C10 UNL     1      18.984 -12.770  21.182  1.00  0.00     0.011 C 
HETATM    9  C11 UNL     1      19.596 -13.586  20.033  1.00  0.00     0.015 C 
HETATM   10  C12 UNL     1      18.512 -14.627  20.332  1.00  0.00     0.084 C 
ENDROOT
BRANCH   1  11
HETATM   11  N4  UNL     1      13.692 -11.957  21.998  1.00  0.00    -0.359 N 
HETATM   12  C2  UNL     1      12.513 -12.040  22.468  1.00  0.00     0.189 C 
HETATM   13  N2  UNL     1      11.881 -10.849  22.950  1.00  0.00    -0.329 N 
HETATM   14  N3  UNL     1      11.763 -13.234  22.553  1.00  0.00    -0.064 NA
HETATM   15  C1  UNL     1      11.438 -10.795  24.153  1.00  0.00     0.192 C 
ATOM     16  H2  UNL     1      11.782 -10.040  22.336  1.00  0.00     0.168 HD
HETATM   17  N1  UNL     1      10.813  -9.609  24.619  1.00  0.00    -0.097 NA
ATOM     18  H4  UNL     1      14.109 -11.026  22.000  1.00  0.00     0.162 HD
ENDBRANCH   1  11
BRANCH  10  19
HETATM   19  C13 UNL     1      19.101 -15.644  21.262  1.00  0.00     0.236 C 
HETATM   20  N5  UNL     1      20.408 -15.539  21.775  1.00  0.00    -0.062 NA
HETATM   21  O1  UNL     1      18.426 -16.665  21.633  1.00  0.00    -0.276 OA
ENDBRANCH  10  19
TORSDOF 2
ENDMDL
MODEL 4
REMARK VINA RESULT: -6.553499082      4.700      6.433
REMARK  2 active torsions:
REMARK  status: ('A' for Active; 'I' for Inactive)
REMARK       I    between atoms: N2_3  and  C2_5 
REMARK    1  A    between atoms: N4_7  and  C3_9 
REMARK    2  A    between atoms: C12_18  and  C13_19 
ROOT
HETATM    1  C3  UNL     1      18.626 -14.641  22.053  1.00  0.00     0.088 C 
HETATM    2  C4  UNL     1      18.191 -16.024  21.628  1.00  0.00     0.026 C 
HETATM    3  C5  UNL     1      17.368 -15.699  20.374  1.00  0.00     0.008 C 
HETATM    4  C6  UNL     1      16.521 -14.568  20.844  1.00  0.00     0.001 C 
HETATM    5  C7  UNL     1      17.490 -13.729  21.652  1.00  0.00     0.014 C 
HETATM    6  C8  UNL     1      17.729 -12.936  20.359  1.00  0.00     0.018 C 
HETATM    7  C9  UNL     1      16.401 -13.405  19.916  1.00  0.00    -0.024 C 
HETATM    8  C10 UNL     1      15.228 -12.517  20.028  1.00  0.00     0.011 C 
HETATM    9  C11 UNL     1      14.672 -13.236  18.789  1.00  0.00     0.015 C 
HETATM   10  C12 UNL     1      16.121 -13.634  18.496  1.00  0.00     0.084 C 
ENDROOT
BRANCH   1  11
HETATM   11  N4  UNL     1      18.905 -14.533  23.453  1.00  0.00    -0.359 N 
HETATM   12  C2  UNL     1      20.033 -14.598  24.038  1.00  0.00     0.189 C 
HETATM   13  N2  UNL     1      20.078 -14.463  25.463  1.00  0.00    -0.329 N 
HETATM   14  N3  UNL     1      21.269 -14.798  23.382  1.00  0.00    -0.064 NA
HETATM   15  C1  UNL     1      20.811 -13.559  26.003  1.00  0.00     0.192 C 
ATOM     16  H2  UNL     1      19.525 -15.088  26.051  1.00  0.00     0.168 HD
HETATM   17  N1  UNL     1      20.846 -13.436  27.416  1.00  0.00    -0.097 NA
ATOM     18  H4  UNL     1      18.098 -14.385  24.059  1.00  0.00     0.162 HD
ENDBRANCH   1  11
BRANCH  10  19
HETATM   19  C13 UNL     1      16.692 -12.619  17.552  1.00  0.00     0.236 C 
HETATM   20  N5  UNL     1      17.813 -12.880  16.741  1.00  0.00    -0.062 NA
HETATM   21  O1  UNL     1      16.173 -11.456  17.444  1.00  0.00    -0.276 OA
ENDBRANCH  10  19
TORSDOF 2
ENDMDL
MODEL 5
REMARK VINA RESULT: -6.520042408      3.124      6.967
REMARK  2 active torsions:
REMARK  status: ('A' for Active; 'I' for Inactive)
REMARK       I    between atoms: N2_3  and  C2_5 
REMARK    1  A    between atoms: N4_7  and  C3_9 
REMARK    2  A    between atoms: C12_18  and  C13_19 
ROOT
HETATM    1  C3  UNL     1      17.413 -13.857  20.937  1.00  0.00     0.088 C 
HETATM    2  C4  UNL     1      17.093 -14.440  19.580  1.00  0.00     0.026 C 
HETATM    3  C5  UNL     1      15.629 -14.009  19.415  1.00  0.00     0.008 C 
HETATM    4  C6  UNL     1      15.048 -14.372  20.737  1.00  0.00     0.001 C 
HETATM    5  C7  UNL     1      16.120 -13.929  21.714  1.00  0.00     0.014 C 
HETATM    6  C8  UNL     1      15.351 -12.603  21.805  1.00  0.00     0.018 C 
HETATM    7  C9  UNL     1      14.157 -13.354  21.367  1.00  0.00    -0.024 C 
HETATM    8  C10 UNL     1      13.154 -13.793  22.357  1.00  0.00     0.011 C 
HETATM    9  C11 UNL     1      12.110 -13.643  21.240  1.00  0.00     0.015 C 
HETATM   10  C12 UNL     1      13.115 -12.705  20.566  1.00  0.00     0.084 C 
ENDROOT
BRANCH   1  11
HETATM   11  N4  UNL     1      18.466 -14.544  21.622  1.00  0.00    -0.359 N 
HETATM   12  C2  UNL     1      19.721 -14.365  21.516  1.00  0.00     0.189 C 
HETATM   13  N2  UNL     1      20.600 -15.175  22.305  1.00  0.00    -0.329 N 
HETATM   14  N3  UNL     1      20.330 -13.414  20.667  1.00  0.00    -0.064 NA
HETATM   15  C1  UNL     1      21.451 -14.626  23.093  1.00  0.00     0.192 C 
ATOM     16  H2  UNL     1      20.549 -16.192  22.241  1.00  0.00     0.168 HD
HETATM   17  N1  UNL     1      22.316 -15.440  23.869  1.00  0.00    -0.097 NA
ATOM     18  H4  UNL     1      18.173 -15.269  22.277  1.00  0.00     0.162 HD
ENDBRANCH   1  11
BRANCH  10  19
HETATM   19  C13 UNL     1      12.770 -11.302  20.967  1.00  0.00     0.236 C 
HETATM   20  N5  UNL     1      12.011 -11.005  22.116  1.00  0.00    -0.062 NA
HETATM   21  O1  UNL     1      13.158 -10.304  20.270  1.00  0.00    -0.276 OA
ENDBRANCH  10  19
TORSDOF 2
ENDMDL
