MODEL 1
REMARK VINA RESULT: -7.037479048      0.000      0.000
REMARK  5 active torsions:
REMARK  status: ('A' for Active; 'I' for Inactive)
REMARK    1  A    between atoms: C2_3  and  C3_5 
REMARK       I    between atoms: C3_5  and  N2_7 
REMARK    2  A    between atoms: N2_7  and  N3_9 
REMARK    3  A    between atoms: N3_9  and  C4_11 
REMARK    4  A    between atoms: C4_11  and  N4_13 
REMARK    5  A    between atoms: N4_13  and  C5_15 
ROOT
HETATM    1  C1  UNL     1      11.056 -11.526  24.768  1.00  0.00     0.264 C 
HETATM    2  N1  UNL     1      11.647 -11.296  23.548  1.00  0.00    -0.412 NA
HETATM    3  C2  UNL     1      12.225 -11.072  22.356  1.00  0.00     0.380 C 
HETATM    4  O1  UNL     1      11.800 -10.369  21.390  1.00  0.00    -0.246 OA
ENDROOT
BRANCH   3   5
HETATM    5  C3  UNL     1      13.542 -11.697  22.029  1.00  0.00     0.342 C 
HETATM    6  O2  UNL     1      13.766 -12.815  22.520  1.00  0.00    -0.259 OA
HETATM    7  N2  UNL     1      14.469 -11.056  21.213  1.00  0.00    -0.259 N 
ATOM      8  H2  UNL     1      14.227 -10.134  20.849  1.00  0.00     0.190 HD
BRANCH   7   9
HETATM    9  N3  UNL     1      15.694 -11.588  20.862  1.00  0.00    -0.273 N 
ATOM     10  H3  UNL     1      16.553 -11.177  21.227  1.00  0.00     0.189 HD
BRANCH   9  11
HETATM   11  C4  UNL     1      15.757 -12.732  19.975  1.00  0.00     0.186 C 
HETATM   12  S1  UNL     1      14.796 -12.769  18.690  1.00  0.00    -0.040 SA
BRANCH  11  13
HETATM   13  N4  UNL     1      16.636 -13.775  20.280  1.00  0.00    -0.361 N 
ATOM     14  H4  UNL     1      16.285 -14.724  20.401  1.00  0.00     0.162 HD
BRANCH  13  15
HETATM   15  C5  UNL     1      18.048 -13.498  20.421  1.00  0.00     0.083 C 
HETATM   16  C6  UNL     1      18.614 -13.343  19.004  1.00  0.00     0.025 C 
HETATM   17  C7  UNL     1      20.122 -13.280  19.032  1.00  0.00     0.002 C 
HETATM   18  C8  UNL     1      20.585 -13.075  20.434  1.00  0.00     0.000 C 
HETATM   19  C9  UNL     1      20.193 -14.241  21.316  1.00  0.00     0.002 C 
HETATM   20  C10 UNL     1      18.760 -14.669  21.097  1.00  0.00     0.025 C 
ENDBRANCH  13  15
ENDBRANCH  11  13
ENDBRANCH   9  11
ENDBRANCH   7   9
ENDBRANCH   3   5
TORSDOF 4
ENDMDL
MODEL 2
REMARK VINA RESULT: -6.653587747      0.922      1.159
REMARK  5 active torsions:
REMARK  status: ('A' for Active; 'I' for Inactive)
REMARK    1  A    between atoms: C2_3  and  C3_5 
REMARK       I    between atoms: C3_5  and  N2_7 
REMARK    2  A    between atoms: N2_7  and  N3_9 
REMARK    3  A    between atoms: N3_9  and  C4_11 
REMARK    4  A    between atoms: C4_11  and  N4_13 
REMARK    5  A    between atoms: N4_13  and  C5_15 
ROOT
HETATM    1  C1  UNL     1      11.543  -9.469  24.506  1.00  0.00     0.264 C 
HETATM    2  N1  UNL     1      11.811 -10.415  23.545  1.00  0.00    -0.412 NA
HETATM    3  C2  UNL     1      12.072 -11.340  22.607  1.00  0.00     0.380 C 
HETATM    4  O1  UNL     1      11.488 -12.446  22.400  1.00  0.00    -0.246 OA
ENDROOT
BRANCH   3   5
HETATM    5  C3  UNL     1      13.186 -11.129  21.634  1.00  0.00     0.342 C 
HETATM    6  O2  UNL     1      12.994 -10.292  20.737  1.00  0.00    -0.259 OA
HETATM    7  N2  UNL     1      14.380 -11.837  21.731  1.00  0.00    -0.259 N 
ATOM      8  H2  UNL     1      14.471 -12.518  22.485  1.00  0.00     0.190 HD
BRANCH   7   9
HETATM    9  N3  UNL     1      15.451 -11.677  20.873  1.00  0.00    -0.273 N 
ATOM     10  H3  UNL     1      16.010 -10.825  20.907  1.00  0.00     0.189 HD
BRANCH   9  11
HETATM   11  C4  UNL     1      15.777 -12.722  19.924  1.00  0.00     0.186 C 
HETATM   12  S1  UNL     1      15.094 -12.691  18.472  1.00  0.00    -0.040 SA
BRANCH  11  13
HETATM   13  N4  UNL     1      16.660 -13.734  20.313  1.00  0.00    -0.361 N 
ATOM     14  H4  UNL     1      16.310 -14.669  20.519  1.00  0.00     0.162 HD
BRANCH  13  15
HETATM   15  C5  UNL     1      18.072 -13.445  20.421  1.00  0.00     0.083 C 
HETATM   16  C6  UNL     1      18.619 -13.366  18.991  1.00  0.00     0.025 C 
HETATM   17  C7  UNL     1      20.127 -13.297  18.995  1.00  0.00     0.002 C 
HETATM   18  C8  UNL     1      20.607 -13.016  20.379  1.00  0.00     0.000 C 
HETATM   19  C9  UNL     1      20.231 -14.134  21.327  1.00  0.00     0.002 C 
HETATM   20  C10 UNL     1      18.797 -14.577  21.150  1.00  0.00     0.025 C 
ENDBRANCH  13  15
ENDBRANCH  11  13
ENDBRANCH   9  11
ENDBRANCH   7   9
ENDBRANCH   3   5
TORSDOF 4
ENDMDL
MODEL 3
REMARK VINA RESULT: -6.613037889      0.716      1.098
REMARK  5 active torsions:
REMARK  status: ('A' for Active; 'I' for Inactive)
REMARK    1  A    between atoms: C2_3  and  C3_5 
REMARK       I    between atoms: C3_5  and  N2_7 
REMARK    2  A    between atoms: N2_7  and  N3_9 
REMARK    3  A    between atoms: N3_9  and  C4_11 
REMARK    4  A    between atoms: C4_11  and  N4_13 
REMARK    5  A    between atoms: N4_13  and  C5_15 
ROOT
HETATM    1  C1  UNL     1      11.109 -11.077  24.491  1.00  0.00     0.264 C 
HETATM    2  N1  UNL     1      11.785 -10.971  23.299  1.00  0.00    -0.412 NA
HETATM    3  C2  UNL     1      12.445 -10.868  22.134  1.00  0.00     0.380 C 
HETATM    4  O1  UNL     1      12.155 -10.166  21.119  1.00  0.00    -0.246 OA
ENDROOT
BRANCH   3   5
HETATM    5  C3  UNL     1      13.696 -11.653  21.906  1.00  0.00     0.342 C 
HETATM    6  O2  UNL     1      13.776 -12.754  22.476  1.00  0.00    -0.259 OA
HETATM    7  N2  UNL     1      14.719 -11.172  21.095  1.00  0.00    -0.259 N 
ATOM      8  H2  UNL     1      14.595 -10.255  20.665  1.00  0.00     0.190 HD
BRANCH   7   9
HETATM    9  N3  UNL     1      15.891 -11.856  20.835  1.00  0.00    -0.273 N 
ATOM     10  H3  UNL     1      16.667 -11.810  21.494  1.00  0.00     0.189 HD
BRANCH   9  11
HETATM   11  C4  UNL     1      16.014 -12.639  19.621  1.00  0.00     0.186 C 
HETATM   12  S1  UNL     1      14.746 -12.758  18.644  1.00  0.00    -0.040 SA
BRANCH  11  13
HETATM   13  N4  UNL     1      17.226 -13.281  19.354  1.00  0.00    -0.361 N 
ATOM     14  H4  UNL     1      17.515 -13.454  18.391  1.00  0.00     0.162 HD
BRANCH  13  15
HETATM   15  C5  UNL     1      18.069 -13.699  20.452  1.00  0.00     0.083 C 
HETATM   16  C6  UNL     1      19.519 -13.458  20.014  1.00  0.00     0.025 C 
HETATM   17  C7  UNL     1      20.485 -14.074  20.996  1.00  0.00     0.002 C 
HETATM   18  C8  UNL     1      19.756 -14.454  22.240  1.00  0.00     0.000 C 
HETATM   19  C9  UNL     1      18.707 -15.508  21.959  1.00  0.00     0.002 C 
HETATM   20  C10 UNL     1      17.892 -15.192  20.726  1.00  0.00     0.025 C 
ENDBRANCH  13  15
ENDBRANCH  11  13
ENDBRANCH   9  11
ENDBRANCH   7   9
ENDBRANCH   3   5
TORSDOF 4
ENDMDL
MODEL 4
REMARK VINA RESULT: -6.608925939      3.638      6.643
REMARK  5 active torsions:
REMARK  status: ('A' for Active; 'I' for Inactive)
REMARK    1  A    between atoms: C2_3  and  C3_5 
REMARK       I    between atoms: C3_5  and  N2_7 
REMARK    2  A    between atoms: N2_7  and  N3_9 
REMARK    3  A    between atoms: N3_9  and  C4_11 
REMARK    4  A    between atoms: C4_11  and  N4_13 
REMARK    5  A    between atoms: N4_13  and  C5_15 
ROOT
HETATM    1  C1  UNL     1      14.416 -12.362  13.482  1.00  0.00     0.264 C 
HETATM    2  N1  UNL     1      14.574 -11.833  14.741  1.00  0.00    -0.412 NA
HETATM    3  C2  UNL     1      14.728 -11.316  15.971  1.00  0.00     0.380 C 
HETATM    4  O1  UNL     1      14.107 -10.351  16.508  1.00  0.00    -0.246 OA
ENDROOT
BRANCH   3   5
HETATM    5  C3  UNL     1      15.751 -11.883  16.902  1.00  0.00     0.342 C 
HETATM    6  O2  UNL     1      16.878 -12.098  16.429  1.00  0.00    -0.259 OA
HETATM    7  N2  UNL     1      15.450 -12.155  18.233  1.00  0.00    -0.259 N 
ATOM      8  H2  UNL     1      14.501 -11.965  18.556  1.00  0.00     0.190 HD
BRANCH   7   9
HETATM    9  N3  UNL     1      16.354 -12.665  19.145  1.00  0.00    -0.273 N 
ATOM     10  H3  UNL     1      17.159 -13.200  18.822  1.00  0.00     0.189 HD
BRANCH   9  11
HETATM   11  C4  UNL     1      16.155 -12.436  20.563  1.00  0.00     0.186 C 
HETATM   12  S1  UNL     1      16.975 -13.328  21.614  1.00  0.00    -0.040 SA
BRANCH  11  13
HETATM   13  N4  UNL     1      15.239 -11.459  20.965  1.00  0.00    -0.361 N 
ATOM     14  H4  UNL     1      15.374 -10.486  20.693  1.00  0.00     0.162 HD
BRANCH  13  15
HETATM   15  C5  UNL     1      14.099 -11.839  21.768  1.00  0.00     0.083 C 
HETATM   16  C6  UNL     1      13.339 -12.912  20.980  1.00  0.00     0.025 C 
HETATM   17  C7  UNL     1      12.008 -13.211  21.626  1.00  0.00     0.002 C 
HETATM   18  C8  UNL     1      11.970 -12.607  22.989  1.00  0.00     0.000 C 
HETATM   19  C9  UNL     1      12.081 -11.099  22.923  1.00  0.00     0.002 C 
HETATM   20  C10 UNL     1      13.167 -10.645  21.976  1.00  0.00     0.025 C 
ENDBRANCH  13  15
ENDBRANCH  11  13
ENDBRANCH   9  11
ENDBRANCH   7   9
ENDBRANCH   3   5
TORSDOF 4
ENDMDL
MODEL 5
REMARK VINA RESULT: -6.542500387      0.770      1.524
REMARK  5 active torsions:
REMARK  status: ('A' for Active; 'I' for Inactive)
REMARK    1  A    between atoms: C2_3  and  C3_5 
REMARK       I    between atoms: C3_5  and  N2_7 
REMARK    2  A    between atoms: N2_7  and  N3_9 
REMARK    3  A    between atoms: N3_9  and  C4_11 
REMARK    4  A    between atoms: C4_11  and  N4_13 
REMARK    5  A    between atoms: N4_13  and  C5_15 
ROOT
HETATM    1  C1  UNL     1      11.088 -11.465  24.493  1.00  0.00     0.264 C 
HETATM    2  N1  UNL     1      11.775 -11.249  23.322  1.00  0.00    -0.412 NA
HETATM    3  C2  UNL     1      12.445 -11.038  22.178  1.00  0.00     0.380 C 
HETATM    4  O1  UNL     1      12.122 -10.308  21.193  1.00  0.00    -0.246 OA
ENDROOT
BRANCH   3   5
HETATM    5  C3  UNL     1      13.755 -11.717  21.938  1.00  0.00     0.342 C 
HETATM    6  O2  UNL     1      13.903 -12.840  22.448  1.00  0.00    -0.259 OA
HETATM    7  N2  UNL     1      14.756 -11.118  21.180  1.00  0.00    -0.259 N 
ATOM      8  H2  UNL     1      14.575 -10.190  20.798  1.00  0.00     0.190 HD
BRANCH   7   9
HETATM    9  N3  UNL     1      15.980 -11.701  20.911  1.00  0.00    -0.273 N 
ATOM     10  H3  UNL     1      16.829 -11.324  21.332  1.00  0.00     0.189 HD
BRANCH   9  11
HETATM   11  C4  UNL     1      16.054 -12.848  20.028  1.00  0.00     0.186 C 
HETATM   12  S1  UNL     1      15.746 -12.645  18.467  1.00  0.00    -0.040 SA
BRANCH  11  13
HETATM   13  N4  UNL     1      16.371 -14.096  20.571  1.00  0.00    -0.361 N 
ATOM     14  H4  UNL     1      15.634 -14.771  20.770  1.00  0.00     0.162 HD
BRANCH  13  15
HETATM   15  C5  UNL     1      17.751 -14.424  20.848  1.00  0.00     0.083 C 
HETATM   16  C6  UNL     1      17.936 -14.319  22.367  1.00  0.00     0.025 C 
HETATM   17  C7  UNL     1      19.396 -14.417  22.738  1.00  0.00     0.002 C 
HETATM   18  C8  UNL     1      20.178 -14.892  21.561  1.00  0.00     0.000 C 
HETATM   19  C9  UNL     1      20.097 -13.906  20.416  1.00  0.00     0.002 C 
HETATM   20  C10 UNL     1      18.687 -13.416  20.180  1.00  0.00     0.025 C 
ENDBRANCH  13  15
ENDBRANCH  11  13
ENDBRANCH   9  11
ENDBRANCH   7   9
ENDBRANCH   3   5
TORSDOF 4
ENDMDL
