MODEL 1
REMARK VINA RESULT: -7.403728936      0.000      0.000
REMARK  5 active torsions:
REMARK  status: ('A' for Active; 'I' for Inactive)
REMARK    1  A    between atoms: C2_2  and  C3_3 
REMARK       I    between atoms: C3_3  and  N1_5 
REMARK    2  A    between atoms: N1_5  and  N2_7 
REMARK    3  A    between atoms: N2_7  and  C4_9 
REMARK    4  A    between atoms: C4_9  and  N3_11 
REMARK    5  A    between atoms: N3_11  and  C5_13 
ROOT
HETATM    1  C4  UNL     1      14.010 -11.904  20.976  1.00  0.00     0.186 C 
HETATM    2  S1  UNL     1      13.591 -13.545  20.954  1.00  0.00    -0.040 SA
ENDROOT
BRANCH   1   3
HETATM    3  N2  UNL     1      15.352 -11.662  20.952  1.00  0.00    -0.274 N 
ATOM      4  H2  UNL     1      15.635 -10.762  20.563  1.00  0.00     0.189 HD
BRANCH   3   5
HETATM    5  N1  UNL     1      16.382 -12.481  21.389  1.00  0.00    -0.267 N 
HETATM    6  C3  UNL     1      17.168 -13.163  20.428  1.00  0.00     0.244 C 
HETATM    7  O1  UNL     1      16.900 -13.077  19.218  1.00  0.00    -0.271 OA
ATOM      8  H1  UNL     1      16.570 -12.591  22.386  1.00  0.00     0.190 HD
BRANCH   6   9
HETATM    9  C2  UNL     1      18.331 -13.973  20.836  1.00  0.00     0.039 A 
HETATM   10  C1  UNL     1      18.523 -14.337  22.309  1.00  0.00     0.025 C 
HETATM   11  C10 UNL     1      19.194 -14.604  19.818  1.00  0.00     0.020 A 
HETATM   12  C11 UNL     1      19.662 -13.268  20.294  1.00  0.00     0.020 A 
ENDBRANCH   6   9
ENDBRANCH   3   5
ENDBRANCH   1   3
BRANCH   1  13
HETATM   13  N3  UNL     1      12.982 -10.935  21.056  1.00  0.00    -0.361 N 
ATOM     14  H3  UNL     1      12.811 -10.294  20.281  1.00  0.00     0.162 HD
BRANCH  13  15
HETATM   15  C5  UNL     1      12.180 -10.871  22.256  1.00  0.00     0.087 C 
HETATM   16  C6  UNL     1      12.025 -12.187  23.004  1.00  0.00     0.052 C 
HETATM   17  C7  UNL     1      11.321 -11.799  24.301  1.00  0.00     0.234 C 
HETATM   18  N4  UNL     1      10.813 -10.476  24.316  1.00  0.00    -0.075 N 
HETATM   19  C8  UNL     1      11.817  -9.443  24.252  1.00  0.00     0.234 C 
ATOM     20  H42 UNL     1      10.129 -10.352  23.570  1.00  0.00     0.277 HD
ATOM     21  H41 UNL     1      10.215 -10.337  25.129  1.00  0.00     0.277 HD
HETATM   22  C9  UNL     1      12.828  -9.854  23.217  1.00  0.00     0.052 C 
ENDBRANCH  13  15
ENDBRANCH   1  13
TORSDOF 5
ENDMDL
MODEL 2
REMARK VINA RESULT: -7.366123516      0.606      1.321
REMARK  5 active torsions:
REMARK  status: ('A' for Active; 'I' for Inactive)
REMARK    1  A    between atoms: C2_2  and  C3_3 
REMARK       I    between atoms: C3_3  and  N1_5 
REMARK    2  A    between atoms: N1_5  and  N2_7 
REMARK    3  A    between atoms: N2_7  and  C4_9 
REMARK    4  A    between atoms: C4_9  and  N3_11 
REMARK    5  A    between atoms: N3_11  and  C5_13 
ROOT
HETATM    1  C4  UNL     1      14.483 -11.949  21.164  1.00  0.00     0.186 C 
HETATM    2  S1  UNL     1      13.914 -13.543  21.082  1.00  0.00    -0.040 SA
ENDROOT
BRANCH   1   3
HETATM    3  N2  UNL     1      15.830 -11.818  20.997  1.00  0.00    -0.274 N 
ATOM      4  H2  UNL     1      16.140 -10.964  20.534  1.00  0.00     0.189 HD
BRANCH   3   5
HETATM    5  N1  UNL     1      16.833 -12.697  21.376  1.00  0.00    -0.267 N 
HETATM    6  C3  UNL     1      17.591 -13.344  20.371  1.00  0.00     0.244 C 
HETATM    7  O1  UNL     1      17.322 -13.174  19.170  1.00  0.00    -0.271 OA
ATOM      8  H1  UNL     1      17.021 -12.876  22.364  1.00  0.00     0.190 HD
BRANCH   6   9
HETATM    9  C2  UNL     1      18.728 -14.217  20.721  1.00  0.00     0.039 A 
HETATM   10  C1  UNL     1      18.860 -14.755  22.146  1.00  0.00     0.025 C 
HETATM   11  C10 UNL     1      19.619 -14.738  19.667  1.00  0.00     0.020 A 
HETATM   12  C11 UNL     1      20.088 -13.476  20.313  1.00  0.00     0.020 A 
ENDBRANCH   6   9
ENDBRANCH   3   5
ENDBRANCH   1   3
BRANCH   1  13
HETATM   13  N3  UNL     1      13.563 -10.907  21.431  1.00  0.00    -0.361 N 
ATOM     14  H3  UNL     1      13.396 -10.172  20.743  1.00  0.00     0.162 HD
BRANCH  13  15
HETATM   15  C5  UNL     1      12.867 -10.903  22.697  1.00  0.00     0.087 C 
HETATM   16  C6  UNL     1      12.407  -9.535  23.181  1.00  0.00     0.052 C 
HETATM   17  C7  UNL     1      11.549  -9.842  24.405  1.00  0.00     0.234 C 
HETATM   18  N4  UNL     1      11.640 -11.180  24.862  1.00  0.00    -0.075 N 
HETATM   19  C8  UNL     1      11.134 -12.168  23.942  1.00  0.00     0.234 C 
ATOM     20  H42 UNL     1      12.601 -11.399  25.123  1.00  0.00     0.277 HD
ATOM     21  H41 UNL     1      11.184 -11.275  25.769  1.00  0.00     0.277 HD
HETATM   22  C9  UNL     1      11.622 -11.803  22.568  1.00  0.00     0.052 C 
ENDBRANCH  13  15
ENDBRANCH   1  13
TORSDOF 5
ENDMDL
MODEL 3
REMARK VINA RESULT: -7.048296039      1.109      1.490
REMARK  5 active torsions:
REMARK  status: ('A' for Active; 'I' for Inactive)
REMARK    1  A    between atoms: C2_2  and  C3_3 
REMARK       I    between atoms: C3_3  and  N1_5 
REMARK    2  A    between atoms: N1_5  and  N2_7 
REMARK    3  A    between atoms: N2_7  and  C4_9 
REMARK    4  A    between atoms: C4_9  and  N3_11 
REMARK    5  A    between atoms: N3_11  and  C5_13 
ROOT
HETATM    1  C4  UNL     1      13.628 -12.823  21.254  1.00  0.00     0.186 C 
HETATM    2  S1  UNL     1      12.980 -14.384  21.363  1.00  0.00    -0.040 SA
ENDROOT
BRANCH   1   3
HETATM    3  N2  UNL     1      14.991 -12.771  21.283  1.00  0.00    -0.274 N 
ATOM      4  H2  UNL     1      15.401 -12.258  22.063  1.00  0.00     0.189 HD
BRANCH   3   5
HETATM    5  N1  UNL     1      15.891 -13.327  20.387  1.00  0.00    -0.267 N 
HETATM    6  C3  UNL     1      17.268 -13.025  20.525  1.00  0.00     0.244 C 
HETATM    7  O1  UNL     1      17.655 -12.227  21.395  1.00  0.00    -0.271 OA
ATOM      8  H1  UNL     1      15.567 -13.943  19.641  1.00  0.00     0.190 HD
BRANCH   6   9
HETATM    9  C2  UNL     1      18.275 -13.663  19.656  1.00  0.00     0.039 A 
HETATM   10  C1  UNL     1      18.006 -13.800  18.157  1.00  0.00     0.025 C 
HETATM   11  C10 UNL     1      19.617 -13.983  20.181  1.00  0.00     0.020 A 
HETATM   12  C11 UNL     1      18.633 -15.103  20.257  1.00  0.00     0.020 A 
ENDBRANCH   6   9
ENDBRANCH   3   5
ENDBRANCH   1   3
BRANCH   1  13
HETATM   13  N3  UNL     1      12.747 -11.718  21.185  1.00  0.00    -0.361 N 
ATOM     14  H3  UNL     1      12.609 -11.217  20.307  1.00  0.00     0.162 HD
BRANCH  13  15
HETATM   15  C5  UNL     1      12.045 -11.313  22.382  1.00  0.00     0.087 C 
HETATM   16  C6  UNL     1      11.845 -12.409  23.419  1.00  0.00     0.052 C 
HETATM   17  C7  UNL     1      11.273 -11.677  24.629  1.00  0.00     0.234 C 
HETATM   18  N4  UNL     1      10.873 -10.343  24.370  1.00  0.00    -0.075 N 
HETATM   19  C8  UNL     1      11.946  -9.448  24.014  1.00  0.00     0.234 C 
ATOM     20  H42 UNL     1      10.146 -10.325  23.654  1.00  0.00     0.277 HD
ATOM     21  H41 UNL     1      10.350  -9.971  25.162  1.00  0.00     0.277 HD
HETATM   22  C9  UNL     1      12.841 -10.172  23.047  1.00  0.00     0.052 C 
ENDBRANCH  13  15
ENDBRANCH   1  13
TORSDOF 5
ENDMDL
MODEL 4
REMARK VINA RESULT: -6.965332226      1.807      2.335
REMARK  5 active torsions:
REMARK  status: ('A' for Active; 'I' for Inactive)
REMARK    1  A    between atoms: C2_2  and  C3_3 
REMARK       I    between atoms: C3_3  and  N1_5 
REMARK    2  A    between atoms: N1_5  and  N2_7 
REMARK    3  A    between atoms: N2_7  and  C4_9 
REMARK    4  A    between atoms: C4_9  and  N3_11 
REMARK    5  A    between atoms: N3_11  and  C5_13 
ROOT
HETATM    1  C4  UNL     1      13.100 -14.439  21.752  1.00  0.00     0.186 C 
HETATM    2  S1  UNL     1      12.904 -16.096  21.460  1.00  0.00    -0.040 SA
ENDROOT
BRANCH   1   3
HETATM    3  N2  UNL     1      13.928 -13.802  20.876  1.00  0.00    -0.274 N 
ATOM      4  H2  UNL     1      13.538 -12.982  20.411  1.00  0.00     0.189 HD
BRANCH   3   5
HETATM    5  N1  UNL     1      15.233 -14.125  20.536  1.00  0.00    -0.267 N 
HETATM    6  C3  UNL     1      16.197 -13.091  20.463  1.00  0.00     0.244 C 
HETATM    7  O1  UNL     1      15.866 -11.906  20.639  1.00  0.00    -0.271 OA
ATOM      8  H1  UNL     1      15.494 -15.093  20.342  1.00  0.00     0.190 HD
BRANCH   6   9
HETATM    9  C2  UNL     1      17.616 -13.394  20.197  1.00  0.00     0.039 A 
HETATM   10  C1  UNL     1      18.027 -13.967  18.841  1.00  0.00     0.025 C 
HETATM   11  C10 UNL     1      18.661 -12.960  21.144  1.00  0.00     0.020 A 
HETATM   12  C11 UNL     1      18.163 -14.351  21.358  1.00  0.00     0.020 A 
ENDBRANCH   6   9
ENDBRANCH   3   5
ENDBRANCH   1   3
BRANCH   1  13
HETATM   13  N3  UNL     1      12.448 -13.858  22.866  1.00  0.00    -0.361 N 
ATOM     14  H3  UNL     1      11.969 -14.443  23.552  1.00  0.00     0.162 HD
BRANCH  13  15
HETATM   15  C5  UNL     1      12.474 -12.421  23.014  1.00  0.00     0.087 C 
HETATM   16  C6  UNL     1      12.392 -11.633  21.714  1.00  0.00     0.052 C 
HETATM   17  C7  UNL     1      12.240 -10.184  22.166  1.00  0.00     0.234 C 
HETATM   18  N4  UNL     1      12.470  -9.975  23.548  1.00  0.00    -0.075 N 
HETATM   19  C8  UNL     1      11.520 -10.615  24.423  1.00  0.00     0.234 C 
ATOM     20  H42 UNL     1      13.420 -10.254  23.794  1.00  0.00     0.277 HD
ATOM     21  H41 UNL     1      12.521  -8.977  23.751  1.00  0.00     0.277 HD
HETATM   22  C9  UNL     1      11.280 -12.003  23.896  1.00  0.00     0.052 C 
ENDBRANCH  13  15
ENDBRANCH   1  13
TORSDOF 5
ENDMDL
MODEL 5
REMARK VINA RESULT: -6.861473356      1.141      1.679
REMARK  5 active torsions:
REMARK  status: ('A' for Active; 'I' for Inactive)
REMARK    1  A    between atoms: C2_2  and  C3_3 
REMARK       I    between atoms: C3_3  and  N1_5 
REMARK    2  A    between atoms: N1_5  and  N2_7 
REMARK    3  A    between atoms: N2_7  and  C4_9 
REMARK    4  A    between atoms: C4_9  and  N3_11 
REMARK    5  A    between atoms: N3_11  and  C5_13 
ROOT
HETATM    1  C4  UNL     1      14.642 -12.376  20.990  1.00  0.00     0.186 C 
HETATM    2  S1  UNL     1      14.001 -11.958  19.479  1.00  0.00    -0.040 SA
ENDROOT
BRANCH   1   3
HETATM    3  N2  UNL     1      15.978 -12.138  21.124  1.00  0.00    -0.274 N 
ATOM      4  H2  UNL     1      16.250 -11.158  21.195  1.00  0.00     0.189 HD
BRANCH   3   5
HETATM    5  N1  UNL     1      17.014 -13.058  21.178  1.00  0.00    -0.267 N 
HETATM    6  C3  UNL     1      17.609 -13.489  19.967  1.00  0.00     0.244 C 
HETATM    7  O1  UNL     1      17.168 -13.097  18.873  1.00  0.00    -0.271 OA
ATOM      8  H1  UNL     1      17.342 -13.418  22.074  1.00  0.00     0.190 HD
BRANCH   6   9
HETATM    9  C2  UNL     1      18.773 -14.395  19.974  1.00  0.00     0.039 A 
HETATM   10  C1  UNL     1      18.772 -15.624  20.884  1.00  0.00     0.025 C 
HETATM   11  C10 UNL     1      19.843 -14.241  18.969  1.00  0.00     0.020 A 
HETATM   12  C11 UNL     1      20.091 -13.533  20.260  1.00  0.00     0.020 A 
ENDBRANCH   6   9
ENDBRANCH   3   5
ENDBRANCH   1   3
BRANCH   1  13
HETATM   13  N3  UNL     1      13.790 -12.959  21.958  1.00  0.00    -0.361 N 
ATOM     14  H3  UNL     1      13.699 -13.973  22.027  1.00  0.00     0.162 HD
BRANCH  13  15
HETATM   15  C5  UNL     1      13.053 -12.090  22.846  1.00  0.00     0.087 C 
HETATM   16  C6  UNL     1      12.916 -10.648  22.379  1.00  0.00     0.052 C 
HETATM   17  C7  UNL     1      11.949 -10.022  23.379  1.00  0.00     0.234 C 
HETATM   18  N4  UNL     1      11.687 -10.823  24.518  1.00  0.00    -0.075 N 
HETATM   19  C8  UNL     1      11.002 -12.061  24.242  1.00  0.00     0.234 C 
ATOM     20  H42 UNL     1      12.551 -11.003  25.029  1.00  0.00     0.277 HD
ATOM     21  H41 UNL     1      11.176 -10.285  25.217  1.00  0.00     0.277 HD
HETATM   22  C9  UNL     1      11.634 -12.667  23.019  1.00  0.00     0.052 C 
ENDBRANCH  13  15
ENDBRANCH   1  13
TORSDOF 5
ENDMDL
