MODEL 1
REMARK VINA RESULT: -6.186718200      0.000      0.000
REMARK  3 active torsions:
REMARK  status: ('A' for Active; 'I' for Inactive)
REMARK    1  A    between atoms: C3_3  and  N1_4 
REMARK       I    between atoms: N1_4  and  C4_6 
REMARK       I    between atoms: C4_6  and  N3_10 
REMARK    2  A    between atoms: N3_10  and  N4_12 
REMARK       I    between atoms: N4_12  and  C5_14 
REMARK    3  A    between atoms: C5_14  and  C6_16 
ROOT
HETATM    1  C1  UNL     1      29.328  15.677  14.561  1.00  0.00     0.014 C 
HETATM    2  C2  UNL     1      29.351  15.631  15.777  1.00  0.00    -0.097 C 
HETATM    3  C3  UNL     1      29.361  15.555  17.245  1.00  0.00     0.231 C 
ENDROOT
BRANCH   3   4
HETATM    4  N1  UNL     1      28.667  14.368  17.712  1.00  0.00    -0.215 N 
HETATM    5  C4  UNL     1      28.062  14.302  18.996  1.00  0.00     0.687 C 
HETATM    6  N2  UNL     1      27.437  15.344  19.430  1.00  0.00    -0.234 N 
HETATM    7  N3  UNL     1      28.107  13.163  19.841  1.00  0.00    -0.130 N 
ATOM      8  H22 UNL     1      27.405  16.162  18.822  1.00  0.00     0.174 HD
ATOM      9  H21 UNL     1      27.002  15.296  20.352  1.00  0.00     0.174 HD
ATOM     10  H3  UNL     1      28.865  13.121  20.522  1.00  0.00     0.205 HD
ATOM     11  H1  UNL     1      28.612  13.555  17.099  1.00  0.00     0.178 HD
BRANCH   7  12
HETATM   12  N4  UNL     1      27.216  12.102  19.826  1.00  0.00    -0.255 N 
HETATM   13  C5  UNL     1      26.976  11.254  18.738  1.00  0.00     0.245 C 
HETATM   14  O1  UNL     1      27.610  11.446  17.672  1.00  0.00    -0.271 OA
ATOM     15  H4  UNL     1      26.690  11.923  20.681  1.00  0.00     0.190 HD
BRANCH  13  16
HETATM   16  C6  UNL     1      26.023  10.134  18.741  1.00  0.00     0.047 C 
HETATM   17  C7  UNL     1      24.825  10.327  19.681  1.00  0.00     0.024 C 
HETATM   18  C8  UNL     1      24.502   8.883  20.010  1.00  0.00    -0.013 C 
HETATM   19  C9  UNL     1      24.194   8.129  18.743  1.00  0.00     0.010 C 
HETATM   20  C13 UNL     1      25.922   8.360  20.292  1.00  0.00     0.011 C 
HETATM   21  C10 UNL     1      25.496   8.277  17.978  1.00  0.00    -0.008 C 
HETATM   22  C11 UNL     1      25.539   9.688  17.376  1.00  0.00     0.025 C 
HETATM   23  C12 UNL     1      26.533   8.758  18.960  1.00  0.00     0.008 C 
ENDBRANCH  13  16
ENDBRANCH   7  12
ENDBRANCH   3   4
TORSDOF 3
ENDMDL
MODEL 2
REMARK VINA RESULT: -6.059974685      4.842      5.764
REMARK  3 active torsions:
REMARK  status: ('A' for Active; 'I' for Inactive)
REMARK    1  A    between atoms: C3_3  and  N1_4 
REMARK       I    between atoms: N1_4  and  C4_6 
REMARK       I    between atoms: C4_6  and  N3_10 
REMARK    2  A    between atoms: N3_10  and  N4_12 
REMARK       I    between atoms: N4_12  and  C5_14 
REMARK    3  A    between atoms: C5_14  and  C6_16 
ROOT
HETATM    1  C1  UNL     1      29.322  15.395  17.303  1.00  0.00     0.014 C 
HETATM    2  C2  UNL     1      29.309  14.178  17.263  1.00  0.00    -0.097 C 
HETATM    3  C3  UNL     1      29.301  12.709  17.240  1.00  0.00     0.231 C 
ENDROOT
BRANCH   3   4
HETATM    4  N1  UNL     1      29.421  12.163  18.580  1.00  0.00    -0.215 N 
HETATM    5  C4  UNL     1      28.570  12.573  19.642  1.00  0.00     0.687 C 
HETATM    6  N2  UNL     1      27.321  12.763  19.384  1.00  0.00    -0.234 N 
HETATM    7  N3  UNL     1      29.008  12.795  20.973  1.00  0.00    -0.130 N 
ATOM      8  H22 UNL     1      27.007  12.603  18.427  1.00  0.00     0.174 HD
ATOM      9  H21 UNL     1      26.710  13.057  20.147  1.00  0.00     0.174 HD
ATOM     10  H3  UNL     1      29.280  13.747  21.219  1.00  0.00     0.205 HD
ATOM     11  H1  UNL     1      30.139  11.463  18.766  1.00  0.00     0.178 HD
BRANCH   7  12
HETATM   12  N4  UNL     1      29.099  11.838  21.971  1.00  0.00    -0.255 N 
HETATM   13  C5  UNL     1      29.307  12.094  23.332  1.00  0.00     0.245 C 
HETATM   14  O1  UNL     1      29.421  13.285  23.710  1.00  0.00    -0.271 OA
ATOM     15  H4  UNL     1      29.008  10.862  21.690  1.00  0.00     0.190 HD
BRANCH  13  16
HETATM   16  C6  UNL     1      29.404  11.062  24.375  1.00  0.00     0.047 C 
HETATM   17  C7  UNL     1      29.389   9.623  23.843  1.00  0.00     0.024 C 
HETATM   18  C8  UNL     1      28.785   8.900  25.031  1.00  0.00    -0.013 C 
HETATM   19  C9  UNL     1      29.647   9.113  26.247  1.00  0.00     0.010 C 
HETATM   20  C13 UNL     1      27.627   9.860  25.354  1.00  0.00     0.011 C 
HETATM   21  C10 UNL     1      29.596  10.622  26.395  1.00  0.00    -0.008 C 
HETATM   22  C11 UNL     1      30.546  11.236  25.356  1.00  0.00     0.025 C 
HETATM   23  C12 UNL     1      28.468  11.113  25.525  1.00  0.00     0.008 C 
ENDBRANCH  13  16
ENDBRANCH   7  12
ENDBRANCH   3   4
TORSDOF 3
ENDMDL
MODEL 3
REMARK VINA RESULT: -5.990791767      4.607      7.002
REMARK  3 active torsions:
REMARK  status: ('A' for Active; 'I' for Inactive)
REMARK    1  A    between atoms: C3_3  and  N1_4 
REMARK       I    between atoms: N1_4  and  C4_6 
REMARK       I    between atoms: C4_6  and  N3_10 
REMARK    2  A    between atoms: N3_10  and  N4_12 
REMARK       I    between atoms: N4_12  and  C5_14 
REMARK    3  A    between atoms: C5_14  and  C6_16 
ROOT
HETATM    1  C1  UNL     1      27.354  10.435  27.875  1.00  0.00     0.014 C 
HETATM    2  C2  UNL     1      28.462  10.523  27.382  1.00  0.00    -0.097 C 
HETATM    3  C3  UNL     1      29.791  10.627  26.761  1.00  0.00     0.231 C 
ENDROOT
BRANCH   3   4
HETATM    4  N1  UNL     1      29.685  10.783  25.321  1.00  0.00    -0.215 N 
HETATM    5  C4  UNL     1      29.112  11.939  24.725  1.00  0.00     0.687 C 
HETATM    6  N2  UNL     1      29.378  13.088  25.247  1.00  0.00    -0.234 N 
HETATM    7  N3  UNL     1      28.257  11.911  23.594  1.00  0.00    -0.130 N 
ATOM      8  H22 UNL     1      29.992  13.107  26.060  1.00  0.00     0.174 HD
ATOM      9  H21 UNL     1      28.966  13.918  24.818  1.00  0.00     0.174 HD
ATOM     10  H3  UNL     1      27.254  11.868  23.772  1.00  0.00     0.205 HD
ATOM     11  H1  UNL     1      30.033  10.038  24.717  1.00  0.00     0.178 HD
BRANCH   7  12
HETATM   12  N4  UNL     1      28.659  11.937  22.268  1.00  0.00    -0.255 N 
HETATM   13  C5  UNL     1      28.011  11.296  21.206  1.00  0.00     0.245 C 
HETATM   14  O1  UNL     1      26.971  10.636  21.444  1.00  0.00    -0.271 OA
ATOM     15  H4  UNL     1      29.501  12.469  22.047  1.00  0.00     0.190 HD
BRANCH  13  16
HETATM   16  C6  UNL     1      28.457  11.334  19.804  1.00  0.00     0.047 C 
HETATM   17  C7  UNL     1      29.957  11.077  19.612  1.00  0.00     0.024 C 
HETATM   18  C8  UNL     1      30.206  11.858  18.337  1.00  0.00    -0.013 C 
HETATM   19  C9  UNL     1      29.329  11.326  17.235  1.00  0.00     0.010 C 
HETATM   20  C13 UNL     1      29.447  13.153  18.678  1.00  0.00     0.011 C 
HETATM   21  C10 UNL     1      27.944  11.565  17.806  1.00  0.00    -0.008 C 
HETATM   22  C11 UNL     1      27.660  10.472  18.846  1.00  0.00     0.025 C 
HETATM   23  C12 UNL     1      28.103  12.509  18.970  1.00  0.00     0.008 C 
ENDBRANCH  13  16
ENDBRANCH   7  12
ENDBRANCH   3   4
TORSDOF 3
ENDMDL
MODEL 4
REMARK VINA RESULT: -5.958820026      4.952      6.855
REMARK  3 active torsions:
REMARK  status: ('A' for Active; 'I' for Inactive)
REMARK    1  A    between atoms: C3_3  and  N1_4 
REMARK       I    between atoms: N1_4  and  C4_6 
REMARK       I    between atoms: C4_6  and  N3_10 
REMARK    2  A    between atoms: N3_10  and  N4_12 
REMARK       I    between atoms: N4_12  and  C5_14 
REMARK    3  A    between atoms: C5_14  and  C6_16 
ROOT
HETATM    1  C1  UNL     1      32.701  12.007  27.458  1.00  0.00     0.014 C 
HETATM    2  C2  UNL     1      31.654  11.518  27.077  1.00  0.00    -0.097 C 
HETATM    3  C3  UNL     1      30.391  10.942  26.592  1.00  0.00     0.231 C 
ENDROOT
BRANCH   3   4
HETATM    4  N1  UNL     1      30.245  11.131  25.160  1.00  0.00    -0.215 N 
HETATM    5  C4  UNL     1      29.364  12.101  24.611  1.00  0.00     0.687 C 
HETATM    6  N2  UNL     1      29.287  13.251  25.189  1.00  0.00    -0.234 N 
HETATM    7  N3  UNL     1      28.552  11.884  23.467  1.00  0.00    -0.130 N 
ATOM      8  H22 UNL     1      29.871  13.406  26.011  1.00  0.00     0.174 HD
ATOM      9  H21 UNL     1      28.654  13.948  24.794  1.00  0.00     0.174 HD
ATOM     10  H3  UNL     1      27.604  11.546  23.629  1.00  0.00     0.205 HD
ATOM     11  H1  UNL     1      30.793  10.548  24.526  1.00  0.00     0.178 HD
BRANCH   7  12
HETATM   12  N4  UNL     1      28.930  12.089  22.150  1.00  0.00    -0.255 N 
HETATM   13  C5  UNL     1      28.209  11.682  21.021  1.00  0.00     0.245 C 
HETATM   14  O1  UNL     1      27.120  11.080  21.186  1.00  0.00    -0.271 OA
ATOM     15  H4  UNL     1      29.810  12.579  21.988  1.00  0.00     0.190 HD
BRANCH  13  16
HETATM   16  C6  UNL     1      28.629  11.908  19.629  1.00  0.00     0.047 C 
HETATM   17  C7  UNL     1      27.562  11.560  18.584  1.00  0.00     0.024 C 
HETATM   18  C8  UNL     1      28.444  11.195  17.406  1.00  0.00    -0.013 C 
HETATM   19  C9  UNL     1      29.322  12.365  17.046  1.00  0.00     0.010 C 
HETATM   20  C13 UNL     1      29.471  10.302  18.123  1.00  0.00     0.011 C 
HETATM   21  C10 UNL     1      30.109  12.558  18.328  1.00  0.00    -0.008 C 
HETATM   22  C11 UNL     1      29.206  13.278  19.340  1.00  0.00     0.025 C 
HETATM   23  C12 UNL     1      29.908  11.319  19.162  1.00  0.00     0.008 C 
ENDBRANCH  13  16
ENDBRANCH   7  12
ENDBRANCH   3   4
TORSDOF 3
ENDMDL
MODEL 5
REMARK VINA RESULT: -5.930789563      4.603      6.929
REMARK  3 active torsions:
REMARK  status: ('A' for Active; 'I' for Inactive)
REMARK    1  A    between atoms: C3_3  and  N1_4 
REMARK       I    between atoms: N1_4  and  C4_6 
REMARK       I    between atoms: C4_6  and  N3_10 
REMARK    2  A    between atoms: N3_10  and  N4_12 
REMARK       I    between atoms: N4_12  and  C5_14 
REMARK    3  A    between atoms: C5_14  and  C6_16 
ROOT
HETATM    1  C1  UNL     1      27.903  10.214  27.714  1.00  0.00     0.014 C 
HETATM    2  C2  UNL     1      28.978  10.514  27.229  1.00  0.00    -0.097 C 
HETATM    3  C3  UNL     1      30.267  10.872  26.618  1.00  0.00     0.231 C 
ENDROOT
BRANCH   3   4
HETATM    4  N1  UNL     1      30.132  11.064  25.186  1.00  0.00    -0.215 N 
HETATM    5  C4  UNL     1      29.325  12.095  24.633  1.00  0.00     0.687 C 
HETATM    6  N2  UNL     1      29.337  13.251  25.205  1.00  0.00    -0.234 N 
HETATM    7  N3  UNL     1      28.497  11.934  23.492  1.00  0.00    -0.130 N 
ATOM      8  H22 UNL     1      29.932  13.366  26.025  1.00  0.00     0.174 HD
ATOM      9  H21 UNL     1      28.757  13.991  24.808  1.00  0.00     0.174 HD
ATOM     10  H3  UNL     1      27.526  11.669  23.658  1.00  0.00     0.205 HD
ATOM     11  H1  UNL     1      30.633  10.438  24.554  1.00  0.00     0.178 HD
BRANCH   7  12
HETATM   12  N4  UNL     1      28.886  12.104  22.173  1.00  0.00    -0.255 N 
HETATM   13  C5  UNL     1      28.169  11.675  21.049  1.00  0.00     0.245 C 
HETATM   14  O1  UNL     1      27.075  11.086  21.221  1.00  0.00    -0.271 OA
ATOM     15  H4  UNL     1      29.771  12.582  22.006  1.00  0.00     0.190 HD
BRANCH  13  16
HETATM   16  C6  UNL     1      28.602  11.863  19.656  1.00  0.00     0.047 C 
HETATM   17  C7  UNL     1      27.540  11.498  18.611  1.00  0.00     0.024 C 
HETATM   18  C8  UNL     1      28.427  11.097  17.450  1.00  0.00    -0.013 C 
HETATM   19  C9  UNL     1      29.317  12.250  17.068  1.00  0.00     0.010 C 
HETATM   20  C13 UNL     1      29.442  10.213  18.196  1.00  0.00     0.011 C 
HETATM   21  C10 UNL     1      30.097  12.468  18.350  1.00  0.00    -0.008 C 
HETATM   22  C11 UNL     1      29.193  13.221  19.337  1.00  0.00     0.025 C 
HETATM   23  C12 UNL     1      29.880  11.252  19.213  1.00  0.00     0.008 C 
ENDBRANCH  13  16
ENDBRANCH   7  12
ENDBRANCH   3   4
TORSDOF 3
ENDMDL
