MODEL 1
REMARK VINA RESULT: -8.227783884      0.000      0.000
REMARK  2 active torsions:
REMARK  status: ('A' for Active; 'I' for Inactive)
REMARK       I    between atoms: N4_11  and  C5_13 
REMARK       I    between atoms: C5_13  and  N5_15 
REMARK    1  A    between atoms: N5_15  and  C6_17 
REMARK    2  A    between atoms: C6_17  and  C7_18 
ROOT
HETATM    1  C1  UNL     1      44.320  -3.963  25.612  1.00  0.00     0.070 C 
HETATM    2  C2  UNL     1      44.076  -2.895  26.624  1.00  0.00     0.025 A 
HETATM    3  N1  UNL     1      44.465  -1.612  26.597  1.00  0.00    -0.343 N 
ATOM      4  H1  UNL     1      45.003  -1.187  25.842  1.00  0.00     0.167 HD
HETATM    5  C3  UNL     1      44.046  -0.953  27.710  1.00  0.00     0.136 A 
HETATM    6  N2  UNL     1      44.019   0.211  28.377  1.00  0.00    -0.283 N 
ATOM      7  H2  UNL     1      44.453   1.070  28.041  1.00  0.00     0.188 HD
HETATM    8  N3  UNL     1      43.364   0.113  29.517  1.00  0.00    -0.283 N 
ATOM      9  H3  UNL     1      43.209   0.858  30.196  1.00  0.00     0.188 HD
HETATM   10  C4  UNL     1      42.943  -1.152  29.614  1.00  0.00     0.139 A 
HETATM   11  N4  UNL     1      42.270  -1.641  30.583  1.00  0.00    -0.293 N 
ATOM     12  H4  UNL     1      41.982  -2.620  30.589  1.00  0.00     0.172 HD
HETATM   13  C5  UNL     1      41.931  -0.748  31.674  1.00  0.00     0.325 C 
HETATM   14  O1  UNL     1      40.812  -0.230  31.574  1.00  0.00    -0.247 OA
HETATM   15  N5  UNL     1      42.870  -0.571  32.689  1.00  0.00    -0.322 N 
ATOM     16  H5  UNL     1      43.732  -1.095  32.538  1.00  0.00     0.169 HD
HETATM   17  C13 UNL     1      43.350  -1.856  28.499  1.00  0.00     0.074 A 
HETATM   18  C14 UNL     1      43.383  -3.049  27.807  1.00  0.00     0.051 A 
HETATM   19 BR1  UNL     1      42.559  -4.656  28.457  1.00  0.00    -0.048 Br
ENDROOT
BRANCH  15  20
HETATM   20  C6  UNL     1      42.876   0.181  33.879  1.00  0.00     0.070 C 
BRANCH  20  21
HETATM   21  C7  UNL     1      44.219   0.537  34.408  1.00  0.00     0.024 C 
HETATM   22  C8  UNL     1      44.398   2.065  34.386  1.00  0.00     0.010 C 
HETATM   23  C9  UNL     1      44.300   2.668  35.770  1.00  0.00     0.001 C 
HETATM   24  C10 UNL     1      45.428   2.151  36.653  1.00  0.00     0.000 C 
HETATM   25  C11 UNL     1      45.876   0.783  36.168  1.00  0.00     0.001 C 
HETATM   26  C12 UNL     1      44.592   0.036  35.741  1.00  0.00     0.010 C 
ENDBRANCH  20  21
ENDBRANCH  15  20
TORSDOF 2
ENDMDL
MODEL 2
REMARK VINA RESULT: -7.914526630      0.816      1.109
REMARK  2 active torsions:
REMARK  status: ('A' for Active; 'I' for Inactive)
REMARK       I    between atoms: N4_11  and  C5_13 
REMARK       I    between atoms: C5_13  and  N5_15 
REMARK    1  A    between atoms: N5_15  and  C6_17 
REMARK    2  A    between atoms: C6_17  and  C7_18 
ROOT
HETATM    1  C1  UNL     1      44.111  -4.115  25.711  1.00  0.00     0.070 C 
HETATM    2  C2  UNL     1      43.964  -2.983  26.670  1.00  0.00     0.025 A 
HETATM    3  N1  UNL     1      44.217  -1.681  26.473  1.00  0.00    -0.343 N 
ATOM      4  H1  UNL     1      44.559  -1.285  25.598  1.00  0.00     0.167 HD
HETATM    5  C3  UNL     1      43.956  -0.959  27.595  1.00  0.00     0.136 A 
HETATM    6  N2  UNL     1      43.945   0.255  28.167  1.00  0.00    -0.283 N 
ATOM      7  H2  UNL     1      44.225   1.112  27.689  1.00  0.00     0.188 HD
HETATM    8  N3  UNL     1      43.531   0.209  29.417  1.00  0.00    -0.283 N 
ATOM      9  H3  UNL     1      43.438   0.999  30.057  1.00  0.00     0.188 HD
HETATM   10  C4  UNL     1      43.258  -1.071  29.688  1.00  0.00     0.139 A 
HETATM   11  N4  UNL     1      42.829  -1.521  30.803  1.00  0.00    -0.293 N 
ATOM     12  H4  UNL     1      42.642  -2.515  30.938  1.00  0.00     0.172 HD
HETATM   13  C5  UNL     1      42.620  -0.562  31.871  1.00  0.00     0.325 C 
HETATM   14  O1  UNL     1      41.458  -0.146  31.955  1.00  0.00    -0.247 OA
HETATM   15  N5  UNL     1      43.714  -0.221  32.666  1.00  0.00    -0.322 N 
ATOM     16  H5  UNL     1      44.577  -0.688  32.388  1.00  0.00     0.169 HD
HETATM   17  C13 UNL     1      43.511  -1.839  28.569  1.00  0.00     0.074 A 
HETATM   18  C14 UNL     1      43.525  -3.082  27.974  1.00  0.00     0.051 A 
HETATM   19 BR1  UNL     1      42.994  -4.684  28.890  1.00  0.00    -0.048 Br
ENDROOT
BRANCH  15  20
HETATM   20  C6  UNL     1      43.874   0.633  33.773  1.00  0.00     0.070 C 
BRANCH  20  21
HETATM   21  C7  UNL     1      44.277  -0.027  35.042  1.00  0.00     0.024 C 
HETATM   22  C8  UNL     1      45.685   0.444  35.448  1.00  0.00     0.010 C 
HETATM   23  C9  UNL     1      45.645   1.414  36.609  1.00  0.00     0.001 C 
HETATM   24  C10 UNL     1      45.083   0.733  37.849  1.00  0.00     0.000 C 
HETATM   25  C11 UNL     1      44.161  -0.403  37.440  1.00  0.00     0.001 C 
HETATM   26  C12 UNL     1      43.382   0.101  36.203  1.00  0.00     0.010 C 
ENDBRANCH  20  21
ENDBRANCH  15  20
TORSDOF 2
ENDMDL
MODEL 3
REMARK VINA RESULT: -7.481241562      1.525      2.263
REMARK  2 active torsions:
REMARK  status: ('A' for Active; 'I' for Inactive)
REMARK       I    between atoms: N4_11  and  C5_13 
REMARK       I    between atoms: C5_13  and  N5_15 
REMARK    1  A    between atoms: N5_15  and  C6_17 
REMARK    2  A    between atoms: C6_17  and  C7_18 
ROOT
HETATM    1  C1  UNL     1      44.074  -3.929  25.200  1.00  0.00     0.070 C 
HETATM    2  C2  UNL     1      43.961  -2.861  26.235  1.00  0.00     0.025 A 
HETATM    3  N1  UNL     1      44.334  -1.575  26.155  1.00  0.00    -0.343 N 
ATOM      4  H1  UNL     1      44.764  -1.149  25.334  1.00  0.00     0.167 HD
HETATM    5  C3  UNL     1      44.064  -0.917  27.313  1.00  0.00     0.136 A 
HETATM    6  N2  UNL     1      44.119   0.248  27.976  1.00  0.00    -0.283 N 
ATOM      7  H2  UNL     1      44.500   1.110  27.584  1.00  0.00     0.188 HD
HETATM    8  N3  UNL     1      43.624   0.148  29.194  1.00  0.00    -0.283 N 
ATOM      9  H3  UNL     1      43.557   0.894  29.887  1.00  0.00     0.188 HD
HETATM   10  C4  UNL     1      43.228  -1.119  29.347  1.00  0.00     0.139 A 
HETATM   11  N4  UNL     1      42.693  -1.610  30.398  1.00  0.00    -0.293 N 
ATOM     12  H4  UNL     1      42.415  -2.591  30.444  1.00  0.00     0.172 HD
HETATM   13  C5  UNL     1      42.497  -0.717  31.524  1.00  0.00     0.325 C 
HETATM   14  O1  UNL     1      41.372  -0.206  31.574  1.00  0.00    -0.247 OA
HETATM   15  N5  UNL     1      43.563  -0.533  32.404  1.00  0.00    -0.322 N 
ATOM     16  H5  UNL     1      44.400  -1.052  32.140  1.00  0.00     0.169 HD
HETATM   17  C13 UNL     1      43.486  -1.823  28.189  1.00  0.00     0.074 A 
HETATM   18  C14 UNL     1      43.433  -3.016  27.500  1.00  0.00     0.051 A 
HETATM   19 BR1  UNL     1      42.713  -4.627  28.256  1.00  0.00    -0.048 Br
ENDROOT
BRANCH  15  20
HETATM   20  C6  UNL     1      43.723   0.222  33.582  1.00  0.00     0.070 C 
BRANCH  20  21
HETATM   21  C7  UNL     1      43.027  -0.307  34.784  1.00  0.00     0.024 C 
HETATM   22  C8  UNL     1      41.976   0.710  35.265  1.00  0.00     0.010 C 
HETATM   23  C9  UNL     1      40.567   0.269  34.933  1.00  0.00     0.001 C 
HETATM   24  C10 UNL     1      40.232  -1.022  35.666  1.00  0.00     0.000 C 
HETATM   25  C11 UNL     1      41.504  -1.805  35.941  1.00  0.00     0.001 C 
HETATM   26  C12 UNL     1      42.394  -1.632  34.690  1.00  0.00     0.010 C 
ENDBRANCH  20  21
ENDBRANCH  15  20
TORSDOF 2
ENDMDL
MODEL 4
REMARK VINA RESULT: -7.416247765      3.777      5.236
REMARK  2 active torsions:
REMARK  status: ('A' for Active; 'I' for Inactive)
REMARK       I    between atoms: N4_11  and  C5_13 
REMARK       I    between atoms: C5_13  and  N5_15 
REMARK    1  A    between atoms: N5_15  and  C6_17 
REMARK    2  A    between atoms: C6_17  and  C7_18 
ROOT
HETATM    1  C1  UNL     1      44.273  -3.539  24.126  1.00  0.00     0.070 C 
HETATM    2  C2  UNL     1      43.816  -3.433  25.541  1.00  0.00     0.025 A 
HETATM    3  N1  UNL     1      43.495  -4.419  26.392  1.00  0.00    -0.343 N 
ATOM      4  H1  UNL     1      43.526  -5.412  26.164  1.00  0.00     0.167 HD
HETATM    5  C3  UNL     1      43.123  -3.917  27.600  1.00  0.00     0.136 A 
HETATM    6  N2  UNL     1      42.706  -4.193  28.845  1.00  0.00    -0.283 N 
ATOM      7  H2  UNL     1      42.550  -5.137  29.198  1.00  0.00     0.188 HD
HETATM    8  N3  UNL     1      42.521  -3.100  29.558  1.00  0.00    -0.283 N 
ATOM      9  H3  UNL     1      42.207  -3.051  30.528  1.00  0.00     0.188 HD
HETATM   10  C4  UNL     1      42.824  -2.066  28.767  1.00  0.00     0.139 A 
HETATM   11  N4  UNL     1      42.770  -0.834  29.098  1.00  0.00    -0.293 N 
ATOM     12  H4  UNL     1      43.016  -0.095  28.439  1.00  0.00     0.172 HD
HETATM   13  C5  UNL     1      42.344  -0.527  30.450  1.00  0.00     0.325 C 
HETATM   14  O1  UNL     1      43.274  -0.373  31.251  1.00  0.00    -0.247 OA
HETATM   15  N5  UNL     1      40.974  -0.439  30.699  1.00  0.00    -0.322 N 
ATOM     16  H5  UNL     1      40.401  -0.624  29.875  1.00  0.00     0.169 HD
HETATM   17  C13 UNL     1      43.208  -2.535  27.527  1.00  0.00     0.074 A 
HETATM   18  C14 UNL     1      43.637  -2.261  26.246  1.00  0.00     0.051 A 
HETATM   19 BR1  UNL     1      43.925  -0.476  25.601  1.00  0.00    -0.048 Br
ENDROOT
BRANCH  15  20
HETATM   20  C6  UNL     1      40.218  -0.148  31.850  1.00  0.00     0.070 C 
BRANCH  20  21
HETATM   21  C7  UNL     1      38.774   0.117  31.621  1.00  0.00     0.024 C 
HETATM   22  C8  UNL     1      38.133  -1.084  30.903  1.00  0.00     0.010 C 
HETATM   23  C9  UNL     1      37.269  -1.907  31.834  1.00  0.00     0.001 C 
HETATM   24  C10 UNL     1      36.098  -1.077  32.340  1.00  0.00     0.000 C 
HETATM   25  C11 UNL     1      36.467   0.396  32.331  1.00  0.00     0.001 C 
HETATM   26  C12 UNL     1      37.943   0.472  32.783  1.00  0.00     0.010 C 
ENDBRANCH  20  21
ENDBRANCH  15  20
TORSDOF 2
ENDMDL
MODEL 5
REMARK VINA RESULT: -7.409217625      3.836      5.315
REMARK  2 active torsions:
REMARK  status: ('A' for Active; 'I' for Inactive)
REMARK       I    between atoms: N4_11  and  C5_13 
REMARK       I    between atoms: C5_13  and  N5_15 
REMARK    1  A    between atoms: N5_15  and  C6_17 
REMARK    2  A    between atoms: C6_17  and  C7_18 
ROOT
HETATM    1  C1  UNL     1      44.369  -3.542  24.149  1.00  0.00     0.070 C 
HETATM    2  C2  UNL     1      43.868  -3.429  25.549  1.00  0.00     0.025 A 
HETATM    3  N1  UNL     1      43.524  -4.411  26.396  1.00  0.00    -0.343 N 
ATOM      4  H1  UNL     1      43.565  -5.406  26.174  1.00  0.00     0.167 HD
HETATM    5  C3  UNL     1      43.114  -3.903  27.588  1.00  0.00     0.136 A 
HETATM    6  N2  UNL     1      42.659  -4.173  28.821  1.00  0.00    -0.283 N 
ATOM      7  H2  UNL     1      42.494  -5.116  29.175  1.00  0.00     0.188 HD
HETATM    8  N3  UNL     1      42.449  -3.076  29.522  1.00  0.00    -0.283 N 
ATOM      9  H3  UNL     1      42.105  -3.024  30.481  1.00  0.00     0.188 HD
HETATM   10  C4  UNL     1      42.773  -2.046  28.735  1.00  0.00     0.139 A 
HETATM   11  N4  UNL     1      42.705  -0.812  29.057  1.00  0.00    -0.293 N 
ATOM     12  H4  UNL     1      42.970  -0.077  28.401  1.00  0.00     0.172 HD
HETATM   13  C5  UNL     1      42.236  -0.499  30.393  1.00  0.00     0.325 C 
HETATM   14  O1  UNL     1      43.141  -0.338  31.221  1.00  0.00    -0.247 OA
HETATM   15  N5  UNL     1      40.859  -0.414  30.599  1.00  0.00    -0.322 N 
ATOM     16  H5  UNL     1      40.313  -0.606  29.759  1.00  0.00     0.169 HD
HETATM   17  C13 UNL     1      43.196  -2.522  27.510  1.00  0.00     0.074 A 
HETATM   18  C14 UNL     1      43.664  -2.253  26.242  1.00  0.00     0.051 A 
HETATM   19 BR1  UNL     1      43.967  -0.472  25.595  1.00  0.00    -0.048 Br
ENDROOT
BRANCH  15  20
HETATM   20  C6  UNL     1      40.067  -0.118  31.724  1.00  0.00     0.070 C 
BRANCH  20  21
HETATM   21  C7  UNL     1      38.838  -0.940  31.880  1.00  0.00     0.024 C 
HETATM   22  C8  UNL     1      37.920  -0.306  32.939  1.00  0.00     0.010 C 
HETATM   23  C9  UNL     1      36.721   0.376  32.316  1.00  0.00     0.001 C 
HETATM   24  C10 UNL     1      35.850  -0.644  31.596  1.00  0.00     0.000 C 
HETATM   25  C11 UNL     1      36.696  -1.822  31.149  1.00  0.00     0.001 C 
HETATM   26  C12 UNL     1      38.043  -1.230  30.676  1.00  0.00     0.010 C 
ENDBRANCH  20  21
ENDBRANCH  15  20
TORSDOF 2
ENDMDL
