MODEL 1
REMARK VINA RESULT: -6.809846372      0.000      0.000
REMARK  9 active torsions:
REMARK  status: ('A' for Active; 'I' for Inactive)
REMARK    1  A    between atoms: C2_2  and  N1_3 
REMARK    2  A    between atoms: C2_2  and  C15_20 
REMARK    3  A    between atoms: N1_3  and  C3_5 
REMARK    4  A    between atoms: C3_5  and  N2_7 
REMARK    5  A    between atoms: N2_7  and  C4_9 
REMARK    6  A    between atoms: C15_20  and  O1_21 
REMARK    7  A    between atoms: C15_20  and  N3_23 
REMARK    8  A    between atoms: N3_23  and  C16_25 
REMARK    9  A    between atoms: C16_25  and  O2_27 
ROOT
HETATM    1  C3  UNL     1       8.646   6.103  22.825  1.00  0.00     0.168 C 
HETATM    2  S1  UNL     1       9.986   7.000  23.069  1.00  0.00    -0.041 SA
ENDROOT
BRANCH   1   3
HETATM    3  N1  UNL     1       8.715   4.697  22.652  1.00  0.00    -0.356 N 
ATOM      4  H1  UNL     1       8.336   4.261  21.811  1.00  0.00     0.162 HD
BRANCH   3   5
HETATM    5  C2  UNL     1       9.334   3.884  23.687  1.00  0.00     0.154 C 
HETATM    6  C1  UNL     1       8.244   3.706  24.740  1.00  0.00     0.041 C 
BRANCH   5   7
HETATM    7  C15 UNL     1       9.709   2.609  23.075  1.00  0.00     0.141 C 
BRANCH   7   8
HETATM    8  O1  UNL     1       9.918   2.553  21.791  1.00  0.00    -0.348 OA
ATOM      9  H1  UNL     1      10.426   3.237  21.371  1.00  0.00     0.219 HD
ENDBRANCH   7   8
BRANCH   7  10
HETATM   10  N3  UNL     1       9.875   1.405  23.742  1.00  0.00    -0.307 N 
ATOM     11  H3  UNL     1      10.748   1.274  24.252  1.00  0.00     0.170 HD
BRANCH  10  12
HETATM   12  C16 UNL     1       8.949   0.352  23.780  1.00  0.00     0.231 C 
HETATM   13  N4  UNL     1       8.360  -0.211  24.929  1.00  0.00    -0.056 NA
BRANCH  12  14
HETATM   14  O2  UNL     1       8.601  -0.157  22.635  1.00  0.00    -0.335 OA
ATOM     15  H2  UNL     1       7.689  -0.059  22.387  1.00  0.00     0.220 HD
ENDBRANCH  12  14
ENDBRANCH  10  12
ENDBRANCH   7  10
ENDBRANCH   5   7
ENDBRANCH   3   5
ENDBRANCH   1   3
BRANCH   1  16
HETATM   16  N2  UNL     1       7.385   6.719  22.780  1.00  0.00    -0.358 N 
ATOM     17  H2  UNL     1       7.068   7.004  21.853  1.00  0.00     0.162 HD
BRANCH  16  18
HETATM   18  C4  UNL     1       6.488   7.002  23.849  1.00  0.00     0.034 C 
HETATM   19  C5  UNL     1       5.841   8.329  23.654  1.00  0.00     0.035 C 
HETATM   20  C6  UNL     1       4.706   8.538  24.636  1.00  0.00    -0.011 C 
HETATM   21  C7  UNL     1       3.713   7.426  24.551  1.00  0.00     0.009 C 
HETATM   22  C12 UNL     1       5.354   8.585  26.009  1.00  0.00     0.014 C 
HETATM   23  C8  UNL     1       4.401   6.111  24.873  1.00  0.00    -0.011 C 
HETATM   24  C9  UNL     1       4.980   6.198  26.248  1.00  0.00     0.014 C 
HETATM   25  C14 UNL     1       5.448   5.871  23.842  1.00  0.00     0.035 C 
HETATM   26  C10 UNL     1       6.049   7.282  26.238  1.00  0.00    -0.041 C 
HETATM   27  C11 UNL     1       6.721   7.323  27.602  1.00  0.00     0.015 C 
HETATM   28  C13 UNL     1       7.107   6.948  25.226  1.00  0.00     0.040 C 
ENDBRANCH  16  18
ENDBRANCH   1  16
TORSDOF 9
ENDMDL
MODEL 2
REMARK VINA RESULT: -6.766838474      0.734      1.873
REMARK  9 active torsions:
REMARK  status: ('A' for Active; 'I' for Inactive)
REMARK    1  A    between atoms: C2_2  and  N1_3 
REMARK    2  A    between atoms: C2_2  and  C15_20 
REMARK    3  A    between atoms: N1_3  and  C3_5 
REMARK    4  A    between atoms: C3_5  and  N2_7 
REMARK    5  A    between atoms: N2_7  and  C4_9 
REMARK    6  A    between atoms: C15_20  and  O1_21 
REMARK    7  A    between atoms: C15_20  and  N3_23 
REMARK    8  A    between atoms: N3_23  and  C16_25 
REMARK    9  A    between atoms: C16_25  and  O2_27 
ROOT
HETATM    1  C3  UNL     1       9.253   6.229  22.909  1.00  0.00     0.168 C 
HETATM    2  S1  UNL     1      10.673   6.893  23.359  1.00  0.00    -0.041 SA
ENDROOT
BRANCH   1   3
HETATM    3  N1  UNL     1       9.117   4.831  22.709  1.00  0.00    -0.356 N 
ATOM      4  H1  UNL     1       8.680   4.471  21.860  1.00  0.00     0.162 HD
BRANCH   3   5
HETATM    5  C2  UNL     1       9.608   3.918  23.728  1.00  0.00     0.154 C 
HETATM    6  C1  UNL     1       8.504   3.886  24.781  1.00  0.00     0.041 C 
BRANCH   5   7
HETATM    7  C15 UNL     1       9.789   2.612  23.094  1.00  0.00     0.141 C 
BRANCH   7   8
HETATM    8  O1  UNL     1       9.808   2.529  21.794  1.00  0.00    -0.348 OA
ATOM      9  H1  UNL     1       9.563   1.713  21.375  1.00  0.00     0.219 HD
ENDBRANCH   7   8
BRANCH   7  10
HETATM   10  N3  UNL     1       9.949   1.403  23.754  1.00  0.00    -0.307 N 
ATOM     11  H3  UNL     1      10.888   1.175  24.081  1.00  0.00     0.170 HD
BRANCH  10  12
HETATM   12  C16 UNL     1       8.938   0.467  24.012  1.00  0.00     0.231 C 
HETATM   13  N4  UNL     1       8.278   0.256  25.238  1.00  0.00    -0.056 NA
BRANCH  12  14
HETATM   14  O2  UNL     1       8.573  -0.285  23.015  1.00  0.00    -0.335 OA
ATOM     15  H2  UNL     1       8.894  -0.036  22.156  1.00  0.00     0.220 HD
ENDBRANCH  12  14
ENDBRANCH  10  12
ENDBRANCH   7  10
ENDBRANCH   5   7
ENDBRANCH   3   5
ENDBRANCH   1   3
BRANCH   1  16
HETATM   16  N2  UNL     1       8.128   7.045  22.707  1.00  0.00    -0.358 N 
ATOM     17  H2  UNL     1       8.103   7.547  21.820  1.00  0.00     0.162 HD
BRANCH  16  18
HETATM   18  C4  UNL     1       7.016   7.267  23.569  1.00  0.00     0.034 C 
HETATM   19  C5  UNL     1       7.473   7.453  24.974  1.00  0.00     0.035 C 
HETATM   20  C6  UNL     1       6.342   7.938  25.860  1.00  0.00    -0.011 C 
HETATM   21  C7  UNL     1       5.729   9.184  25.311  1.00  0.00     0.009 C 
HETATM   22  C12 UNL     1       5.332   6.804  25.894  1.00  0.00     0.014 C 
HETATM   23  C8  UNL     1       5.178   8.906  23.925  1.00  0.00    -0.011 C 
HETATM   24  C9  UNL     1       4.159   7.817  24.024  1.00  0.00     0.014 C 
HETATM   25  C14 UNL     1       6.314   8.527  23.041  1.00  0.00     0.035 C 
HETATM   26  C10 UNL     1       4.868   6.554  24.495  1.00  0.00    -0.041 C 
HETATM   27  C11 UNL     1       3.870   5.407  24.511  1.00  0.00     0.015 C 
HETATM   28  C13 UNL     1       5.958   6.189  23.528  1.00  0.00     0.040 C 
ENDBRANCH  16  18
ENDBRANCH   1  16
TORSDOF 9
ENDMDL
MODEL 3
REMARK VINA RESULT: -6.746908073      0.421      1.882
REMARK  9 active torsions:
REMARK  status: ('A' for Active; 'I' for Inactive)
REMARK    1  A    between atoms: C2_2  and  N1_3 
REMARK    2  A    between atoms: C2_2  and  C15_20 
REMARK    3  A    between atoms: N1_3  and  C3_5 
REMARK    4  A    between atoms: C3_5  and  N2_7 
REMARK    5  A    between atoms: N2_7  and  C4_9 
REMARK    6  A    between atoms: C15_20  and  O1_21 
REMARK    7  A    between atoms: C15_20  and  N3_23 
REMARK    8  A    between atoms: N3_23  and  C16_25 
REMARK    9  A    between atoms: C16_25  and  O2_27 
ROOT
HETATM    1  C3  UNL     1       8.601   6.172  22.844  1.00  0.00     0.168 C 
HETATM    2  S1  UNL     1      10.020   6.920  23.139  1.00  0.00    -0.041 SA
ENDROOT
BRANCH   1   3
HETATM    3  N1  UNL     1       8.511   4.760  22.749  1.00  0.00    -0.356 N 
ATOM      4  H1  UNL     1       8.050   4.324  21.951  1.00  0.00     0.162 HD
BRANCH   3   5
HETATM    5  C2  UNL     1       9.084   3.941  23.805  1.00  0.00     0.154 C 
HETATM    6  C1  UNL     1       7.929   3.692  24.770  1.00  0.00     0.041 C 
BRANCH   5   7
HETATM    7  C15 UNL     1       9.552   2.699  23.189  1.00  0.00     0.141 C 
BRANCH   7   8
HETATM    8  O1  UNL     1       9.794   2.672  21.909  1.00  0.00    -0.348 OA
ATOM      9  H1  UNL     1       9.106   2.411  21.309  1.00  0.00     0.219 HD
ENDBRANCH   7   8
BRANCH   7  10
HETATM   10  N3  UNL     1       9.775   1.499  23.846  1.00  0.00    -0.307 N 
ATOM     11  H3  UNL     1      10.644   1.413  24.373  1.00  0.00     0.170 HD
BRANCH  10  12
HETATM   12  C16 UNL     1       8.913   0.392  23.852  1.00  0.00     0.231 C 
HETATM   13  N4  UNL     1       8.323  -0.209  24.981  1.00  0.00    -0.056 NA
BRANCH  12  14
HETATM   14  O2  UNL     1       8.633  -0.133  22.696  1.00  0.00    -0.335 OA
ATOM     15  H2  UNL     1       7.713  -0.269  22.503  1.00  0.00     0.220 HD
ENDBRANCH  12  14
ENDBRANCH  10  12
ENDBRANCH   7  10
ENDBRANCH   5   7
ENDBRANCH   3   5
ENDBRANCH   1   3
BRANCH   1  16
HETATM   16  N2  UNL     1       7.430   6.928  22.675  1.00  0.00    -0.358 N 
ATOM     17  H2  UNL     1       7.315   7.362  21.759  1.00  0.00     0.162 HD
BRANCH  16  18
HETATM   18  C4  UNL     1       6.380   7.174  23.605  1.00  0.00     0.034 C 
HETATM   19  C5  UNL     1       5.354   6.097  23.534  1.00  0.00     0.035 C 
HETATM   20  C6  UNL     1       4.366   6.202  24.679  1.00  0.00    -0.011 C 
HETATM   21  C7  UNL     1       5.072   6.204  25.996  1.00  0.00     0.009 C 
HETATM   22  C12 UNL     1       3.621   7.507  24.460  1.00  0.00     0.014 C 
HETATM   23  C8  UNL     1       6.019   7.388  26.058  1.00  0.00    -0.011 C 
HETATM   24  C9  UNL     1       5.227   8.645  25.882  1.00  0.00     0.014 C 
HETATM   25  C14 UNL     1       7.042   7.221  24.990  1.00  0.00     0.035 C 
HETATM   26  C10 UNL     1       4.617   8.621  24.487  1.00  0.00    -0.041 C 
HETATM   27  C11 UNL     1       3.886   9.933  24.248  1.00  0.00     0.015 C 
HETATM   28  C13 UNL     1       5.703   8.517  23.455  1.00  0.00     0.040 C 
ENDBRANCH  16  18
ENDBRANCH   1  16
TORSDOF 9
ENDMDL
MODEL 4
REMARK VINA RESULT: -6.633124633      1.609      2.621
REMARK  9 active torsions:
REMARK  status: ('A' for Active; 'I' for Inactive)
REMARK    1  A    between atoms: C2_2  and  N1_3 
REMARK    2  A    between atoms: C2_2  and  C15_20 
REMARK    3  A    between atoms: N1_3  and  C3_5 
REMARK    4  A    between atoms: C3_5  and  N2_7 
REMARK    5  A    between atoms: N2_7  and  C4_9 
REMARK    6  A    between atoms: C15_20  and  O1_21 
REMARK    7  A    between atoms: C15_20  and  N3_23 
REMARK    8  A    between atoms: N3_23  and  C16_25 
REMARK    9  A    between atoms: C16_25  and  O2_27 
ROOT
HETATM    1  C3  UNL     1       8.271   4.810  23.753  1.00  0.00     0.168 C 
HETATM    2  S1  UNL     1       9.794   5.392  23.726  1.00  0.00    -0.041 SA
ENDROOT
BRANCH   1   3
HETATM    3  N1  UNL     1       7.983   3.504  24.225  1.00  0.00    -0.356 N 
ATOM      4  H1  UNL     1       7.267   2.936  23.772  1.00  0.00     0.162 HD
BRANCH   3   5
HETATM    5  C2  UNL     1       8.721   2.983  25.364  1.00  0.00     0.154 C 
HETATM    6  C1  UNL     1       7.900   3.402  26.580  1.00  0.00     0.041 C 
BRANCH   5   7
HETATM    7  C15 UNL     1       8.775   1.528  25.222  1.00  0.00     0.141 C 
BRANCH   7   8
HETATM    8  O1  UNL     1       9.300   1.009  24.148  1.00  0.00    -0.348 OA
ATOM      9  H1  UNL     1       9.252   1.487  23.329  1.00  0.00     0.219 HD
ENDBRANCH   7   8
BRANCH   7  10
HETATM   10  N3  UNL     1       8.310   0.603  26.144  1.00  0.00    -0.307 N 
ATOM     11  H3  UNL     1       8.444   0.825  27.131  1.00  0.00     0.170 HD
BRANCH  10  12
HETATM   12  C16 UNL     1       7.672  -0.609  25.844  1.00  0.00     0.231 C 
HETATM   13  N4  UNL     1       7.839  -1.383  24.679  1.00  0.00    -0.056 NA
BRANCH  12  14
HETATM   14  O2  UNL     1       6.838  -1.063  26.733  1.00  0.00    -0.335 OA
ATOM     15  H2  UNL     1       7.201  -1.625  27.407  1.00  0.00     0.220 HD
ENDBRANCH  12  14
ENDBRANCH  10  12
ENDBRANCH   7  10
ENDBRANCH   5   7
ENDBRANCH   3   5
ENDBRANCH   1   3
BRANCH   1  16
HETATM   16  N2  UNL     1       7.206   5.605  23.298  1.00  0.00    -0.358 N 
ATOM     17  H2  UNL     1       7.122   5.689  22.285  1.00  0.00     0.162 HD
BRANCH  16  18
HETATM   18  C4  UNL     1       6.228   6.309  24.056  1.00  0.00     0.034 C 
HETATM   19  C5  UNL     1       5.044   5.444  24.317  1.00  0.00     0.035 C 
HETATM   20  C6  UNL     1       4.109   6.081  25.327  1.00  0.00    -0.011 C 
HETATM   21  C7  UNL     1       4.834   6.417  26.589  1.00  0.00     0.009 C 
HETATM   22  C12 UNL     1       3.574   7.334  24.657  1.00  0.00     0.014 C 
HETATM   23  C8  UNL     1       5.956   7.392  26.281  1.00  0.00    -0.011 C 
HETATM   24  C9  UNL     1       5.368   8.621  25.666  1.00  0.00     0.014 C 
HETATM   25  C14 UNL     1       6.918   6.717  25.367  1.00  0.00     0.035 C 
HETATM   26  C10 UNL     1       4.732   8.223  24.341  1.00  0.00    -0.041 C 
HETATM   27  C11 UNL     1       4.212   9.474  23.650  1.00  0.00     0.015 C 
HETATM   28  C13 UNL     1       5.767   7.610  23.441  1.00  0.00     0.040 C 
ENDBRANCH  16  18
ENDBRANCH   1  16
TORSDOF 9
ENDMDL
MODEL 5
REMARK VINA RESULT: -6.631498110      1.392      1.639
REMARK  9 active torsions:
REMARK  status: ('A' for Active; 'I' for Inactive)
REMARK    1  A    between atoms: C2_2  and  N1_3 
REMARK    2  A    between atoms: C2_2  and  C15_20 
REMARK    3  A    between atoms: N1_3  and  C3_5 
REMARK    4  A    between atoms: C3_5  and  N2_7 
REMARK    5  A    between atoms: N2_7  and  C4_9 
REMARK    6  A    between atoms: C15_20  and  O1_21 
REMARK    7  A    between atoms: C15_20  and  N3_23 
REMARK    8  A    between atoms: N3_23  and  C16_25 
REMARK    9  A    between atoms: C16_25  and  O2_27 
ROOT
HETATM    1  C3  UNL     1       9.029   5.354  23.820  1.00  0.00     0.168 C 
HETATM    2  S1  UNL     1      10.123   6.540  23.580  1.00  0.00    -0.041 SA
ENDROOT
BRANCH   1   3
HETATM    3  N1  UNL     1       9.409   4.085  24.326  1.00  0.00    -0.356 N 
ATOM      4  H1  UNL     1      10.134   4.010  25.040  1.00  0.00     0.162 HD
BRANCH   3   5
HETATM    5  C2  UNL     1       8.754   2.892  23.815  1.00  0.00     0.154 C 
HETATM    6  C1  UNL     1       9.838   2.166  23.024  1.00  0.00     0.041 C 
BRANCH   5   7
HETATM    7  C15 UNL     1       8.309   2.109  24.969  1.00  0.00     0.141 C 
BRANCH   7   8
HETATM    8  O1  UNL     1       7.448   2.627  25.799  1.00  0.00    -0.348 OA
ATOM      9  H1  UNL     1       7.545   2.467  26.730  1.00  0.00     0.219 HD
ENDBRANCH   7   8
BRANCH   7  10
HETATM   10  N3  UNL     1       8.720   0.824  25.287  1.00  0.00    -0.307 N 
ATOM     11  H3  UNL     1       9.629   0.726  25.738  1.00  0.00     0.170 HD
BRANCH  10  12
HETATM   12  C16 UNL     1       7.998  -0.354  25.043  1.00  0.00     0.231 C 
HETATM   13  N4  UNL     1       7.152  -1.025  25.947  1.00  0.00    -0.056 NA
BRANCH  12  14
HETATM   14  O2  UNL     1       8.126  -0.880  23.860  1.00  0.00    -0.335 OA
ATOM     15  H2  UNL     1       7.912  -1.802  23.781  1.00  0.00     0.220 HD
ENDBRANCH  12  14
ENDBRANCH  10  12
ENDBRANCH   7  10
ENDBRANCH   5   7
ENDBRANCH   3   5
ENDBRANCH   1   3
BRANCH   1  16
HETATM   16  N2  UNL     1       7.675   5.575  23.521  1.00  0.00    -0.358 N 
ATOM     17  H2  UNL     1       7.362   5.226  22.615  1.00  0.00     0.162 HD
BRANCH  16  18
HETATM   18  C4  UNL     1       6.678   6.220  24.307  1.00  0.00     0.034 C 
HETATM   19  C5  UNL     1       6.419   7.596  23.799  1.00  0.00     0.035 C 
HETATM   20  C6  UNL     1       5.195   8.203  24.456  1.00  0.00    -0.011 C 
HETATM   21  C7  UNL     1       4.003   7.320  24.285  1.00  0.00     0.009 C 
HETATM   22  C12 UNL     1       5.551   8.357  25.925  1.00  0.00     0.014 C 
HETATM   23  C8  UNL     1       4.279   5.971  24.922  1.00  0.00    -0.011 C 
HETATM   24  C9  UNL     1       4.578   6.178  26.372  1.00  0.00     0.014 C 
HETATM   25  C14 UNL     1       5.421   5.343  24.202  1.00  0.00     0.035 C 
HETATM   26  C10 UNL     1       5.855   7.001  26.473  1.00  0.00    -0.041 C 
HETATM   27  C11 UNL     1       6.233   7.143  27.940  1.00  0.00     0.015 C 
HETATM   28  C13 UNL     1       6.982   6.284  25.786  1.00  0.00     0.040 C 
ENDBRANCH  16  18
ENDBRANCH   1  16
TORSDOF 9
ENDMDL
