MODEL 1
REMARK VINA RESULT: -8.238075758      0.000      0.000
REMARK  19 active torsions:
REMARK  status: ('A' for Active; 'I' for Inactive)
REMARK       I    between atoms: N1_2  and  C2_4 
REMARK    1  A    between atoms: N3_6  and  C3_8 
REMARK    2  A    between atoms: C3_8  and  C4_9 
REMARK    3  A    between atoms: C4_9  and  C5_10 
REMARK    4  A    between atoms: C5_10  and  C6_11 
REMARK    5  A    between atoms: C6_11  and  N4_12 
REMARK       I    between atoms: N4_12  and  C7_14 
REMARK    6  A    between atoms: C7_14  and  C8_16 
REMARK    7  A    between atoms: C8_16  and  N5_17 
REMARK       I    between atoms: N5_17  and  C9_19 
REMARK    8  A    between atoms: C9_19  and  C10_21 
REMARK    9  A    between atoms: N6_25  and  C14_26 
REMARK   10  A    between atoms: C14_26  and  C15_27 
REMARK   11  A    between atoms: C15_27  and  C16_28 
REMARK   12  A    between atoms: C16_28  and  C17_29 
REMARK   13  A    between atoms: C17_29  and  C18_30 
REMARK   14  A    between atoms: C18_30  and  N7_31 
REMARK   15  A    between atoms: N7_31  and  C19_32 
REMARK       I    between atoms: N7_31  and  C26_44 
REMARK   16  A    between atoms: C19_32  and  C20_33 
REMARK   17  A    between atoms: C20_33  and  N8_34 
REMARK       I    between atoms: N8_34  and  C21_36 
REMARK   18  A    between atoms: C21_36  and  C22_38 
REMARK       I    between atoms: C26_44  and  N10_46 
REMARK   19  A    between atoms: N10_46  and  N11_48 
ROOT
HETATM    1  C10 UNL     1      -9.560  16.149  31.740  1.00  0.00     0.047 A 
HETATM    2  C11 UNL     1      -8.390  15.960  32.494  1.00  0.00     0.020 A 
HETATM    3  C12 UNL     1      -8.443  15.300  33.700  1.00  0.00     0.018 A 
HETATM    4  C13 UNL     1      -9.628  14.810  34.206  1.00  0.00     0.090 A 
HETATM    5  N6  UNL     1     -10.744  14.986  33.498  1.00  0.00    -0.365 N 
HETATM    6  C27 UNL     1     -10.704  15.640  32.295  1.00  0.00     0.107 A 
ENDROOT
BRANCH   5   7
HETATM    7  C14 UNL     1     -12.065  14.543  33.909  1.00  0.00     0.128 C 
BRANCH   7   8
HETATM    8  C15 UNL     1     -13.079  14.940  32.878  1.00  0.00     0.020 C 
BRANCH   8   9
HETATM    9  C16 UNL     1     -13.855  13.829  32.280  1.00  0.00     0.003 C 
BRANCH   9  10
HETATM   10  C17 UNL     1     -13.091  12.939  31.340  1.00  0.00     0.015 C 
BRANCH  10  11
HETATM   11  C18 UNL     1     -13.825  13.001  29.980  1.00  0.00     0.100 C 
BRANCH  11  12
HETATM   12  N7  UNL     1     -13.233  13.976  29.130  1.00  0.00    -0.232 NA
HETATM   13  C26 UNL     1     -14.199  14.697  28.366  1.00  0.00     0.314 C 
HETATM   14  O4  UNL     1     -15.407  14.397  28.512  1.00  0.00    -0.252 OA
HETATM   15  N10 UNL     1     -13.851  15.724  27.464  1.00  0.00    -0.263 N 
ATOM     16  H10 UNL     1     -12.873  15.981  27.335  1.00  0.00     0.190 HD
BRANCH  12  17
HETATM   17  C19 UNL     1     -12.195  13.479  28.264  1.00  0.00     0.120 C 
BRANCH  17  18
HETATM   18  C20 UNL     1     -10.836  14.057  28.522  1.00  0.00     0.138 C 
BRANCH  18  19
HETATM   19  N8  UNL     1     -10.155  14.444  27.309  1.00  0.00    -0.356 N 
HETATM   20  C21 UNL     1     -10.358  15.647  26.629  1.00  0.00     0.253 C 
HETATM   21  O3  UNL     1     -11.184  16.486  27.053  1.00  0.00    -0.268 OA
ATOM     22  H8  UNL     1      -9.475  13.791  26.920  1.00  0.00     0.162 HD
BRANCH  20  23
HETATM   23  C22 UNL     1      -9.612  15.939  25.419  1.00  0.00     0.048 A 
HETATM   24  C23 UNL     1      -8.922  15.037  24.607  1.00  0.00     0.035 A 
HETATM   25  C24 UNL     1      -8.395  15.808  23.585  1.00  0.00     0.088 A 
HETATM   26  N9  UNL     1      -8.736  17.101  23.750  1.00  0.00    -0.374 N 
HETATM   27  C25 UNL     1      -9.474  17.186  24.862  1.00  0.00     0.104 A 
ATOM     28  H9  UNL     1      -8.477  17.875  23.137  1.00  0.00     0.164 HD
ENDBRANCH  20  23
ENDBRANCH  18  19
ENDBRANCH  17  18
ENDBRANCH  12  17
BRANCH  15  29
HETATM   29  N11 UNL     1     -14.844  16.382  26.754  1.00  0.00    -0.342 N 
ATOM     30 2H11 UNL     1     -15.171  17.290  27.084  1.00  0.00     0.176 HD
ATOM     31 1H11 UNL     1     -15.235  15.953  25.916  1.00  0.00     0.176 HD
ENDBRANCH  15  29
ENDBRANCH  11  12
ENDBRANCH  10  11
ENDBRANCH   9  10
ENDBRANCH   8   9
ENDBRANCH   7   8
ENDBRANCH   5   7
BRANCH   1  32
HETATM   32  C9  UNL     1      -9.514  16.854  30.477  1.00  0.00     0.253 C 
HETATM   33  N5  UNL     1      -8.310  16.904  29.726  1.00  0.00    -0.348 N 
ATOM     34  H5  UNL     1      -7.487  16.439  30.112  1.00  0.00     0.163 HD
HETATM   35  O2  UNL     1     -10.539  17.417  30.057  1.00  0.00    -0.268 OA
BRANCH  33  36
HETATM   36  C8  UNL     1      -8.176  17.558  28.471  1.00  0.00     0.225 C 
BRANCH  36  37
HETATM   37  C7  UNL     1      -7.051  16.998  27.660  1.00  0.00     0.235 C 
HETATM   38  N4  UNL     1      -6.173  17.789  26.954  1.00  0.00    -0.360 N 
ATOM     39  H4  UNL     1      -6.367  18.789  27.000  1.00  0.00     0.162 HD
HETATM   40  O1  UNL     1      -7.041  15.715  27.726  1.00  0.00    -0.272 OA
BRANCH  38  41
HETATM   41  C6  UNL     1      -5.043  17.439  26.174  1.00  0.00     0.122 C 
BRANCH  41  42
HETATM   42  C5  UNL     1      -5.156  17.576  24.726  1.00  0.00     0.021 C 
BRANCH  42  43
HETATM   43  C4  UNL     1      -5.217  18.847  24.012  1.00  0.00     0.021 C 
BRANCH  43  44
HETATM   44  C3  UNL     1      -5.045  18.688  22.495  1.00  0.00     0.122 C 
BRANCH  44  45
HETATM   45  N3  UNL     1      -6.357  18.849  21.860  1.00  0.00    -0.365 N 
HETATM   46  C2  UNL     1      -6.866  17.917  21.111  1.00  0.00     0.183 C 
HETATM   47  N1  UNL     1      -6.114  16.737  20.927  1.00  0.00    -0.369 N 
HETATM   48  N2  UNL     1      -8.150  18.104  20.503  1.00  0.00    -0.064 NA
HETATM   49  C1  UNL     1      -5.352  16.539  19.727  1.00  0.00     0.148 C 
ATOM     50  H1  UNL     1      -6.112  16.020  21.652  1.00  0.00     0.161 HD
ATOM     51  H3  UNL     1      -6.881  19.711  22.010  1.00  0.00     0.162 HD
ENDBRANCH  44  45
ENDBRANCH  43  44
ENDBRANCH  42  43
ENDBRANCH  41  42
ENDBRANCH  38  41
ENDBRANCH  36  37
ENDBRANCH  33  36
ENDBRANCH   1  32
TORSDOF 19
ENDMDL
MODEL 2
REMARK VINA RESULT: -8.144773455      2.452      7.699
REMARK  19 active torsions:
REMARK  status: ('A' for Active; 'I' for Inactive)
REMARK       I    between atoms: N1_2  and  C2_4 
REMARK    1  A    between atoms: N3_6  and  C3_8 
REMARK    2  A    between atoms: C3_8  and  C4_9 
REMARK    3  A    between atoms: C4_9  and  C5_10 
REMARK    4  A    between atoms: C5_10  and  C6_11 
REMARK    5  A    between atoms: C6_11  and  N4_12 
REMARK       I    between atoms: N4_12  and  C7_14 
REMARK    6  A    between atoms: C7_14  and  C8_16 
REMARK    7  A    between atoms: C8_16  and  N5_17 
REMARK       I    between atoms: N5_17  and  C9_19 
REMARK    8  A    between atoms: C9_19  and  C10_21 
REMARK    9  A    between atoms: N6_25  and  C14_26 
REMARK   10  A    between atoms: C14_26  and  C15_27 
REMARK   11  A    between atoms: C15_27  and  C16_28 
REMARK   12  A    between atoms: C16_28  and  C17_29 
REMARK   13  A    between atoms: C17_29  and  C18_30 
REMARK   14  A    between atoms: C18_30  and  N7_31 
REMARK   15  A    between atoms: N7_31  and  C19_32 
REMARK       I    between atoms: N7_31  and  C26_44 
REMARK   16  A    between atoms: C19_32  and  C20_33 
REMARK   17  A    between atoms: C20_33  and  N8_34 
REMARK       I    between atoms: N8_34  and  C21_36 
REMARK   18  A    between atoms: C21_36  and  C22_38 
REMARK       I    between atoms: C26_44  and  N10_46 
REMARK   19  A    between atoms: N10_46  and  N11_48 
ROOT
HETATM    1  C10 UNL     1     -10.269  15.320  33.561  1.00  0.00     0.047 A 
HETATM    2  C11 UNL     1      -8.903  15.367  33.882  1.00  0.00     0.020 A 
HETATM    3  C12 UNL     1      -8.010  15.963  33.022  1.00  0.00     0.018 A 
HETATM    4  C13 UNL     1      -8.417  16.526  31.831  1.00  0.00     0.090 A 
HETATM    5  N6  UNL     1      -9.713  16.485  31.518  1.00  0.00    -0.365 N 
HETATM    6  C27 UNL     1     -10.611  15.895  32.367  1.00  0.00     0.107 A 
ENDROOT
BRANCH   5   7
HETATM    7  C14 UNL     1     -10.286  17.018  30.294  1.00  0.00     0.128 C 
BRANCH   7   8
HETATM    8  C15 UNL     1     -10.874  15.903  29.480  1.00  0.00     0.020 C 
BRANCH   8   9
HETATM    9  C16 UNL     1      -9.928  14.836  29.077  1.00  0.00     0.003 C 
BRANCH   9  10
HETATM   10  C17 UNL     1      -9.760  14.645  27.596  1.00  0.00     0.015 C 
BRANCH  10  11
HETATM   11  C18 UNL     1      -8.333  15.128  27.248  1.00  0.00     0.100 C 
BRANCH  11  12
HETATM   12  N7  UNL     1      -8.379  16.328  26.483  1.00  0.00    -0.232 NA
HETATM   13  C26 UNL     1      -7.887  17.457  27.204  1.00  0.00     0.314 C 
HETATM   14  O4  UNL     1      -7.499  17.279  28.382  1.00  0.00    -0.252 OA
HETATM   15  N10 UNL     1      -7.822  18.751  26.647  1.00  0.00    -0.263 N 
ATOM     16  H10 UNL     1      -8.133  18.912  25.690  1.00  0.00     0.190 HD
BRANCH  12  17
HETATM   17  C19 UNL     1      -9.665  16.634  25.909  1.00  0.00     0.120 C 
BRANCH  17  18
HETATM   18  C20 UNL     1      -9.817  16.237  24.471  1.00  0.00     0.138 C 
BRANCH  18  19
HETATM   19  N8  UNL     1      -8.701  16.654  23.655  1.00  0.00    -0.356 N 
HETATM   20  C21 UNL     1      -8.723  16.749  22.262  1.00  0.00     0.253 C 
HETATM   21  O3  UNL     1      -9.758  16.457  21.621  1.00  0.00    -0.268 OA
ATOM     22  H8  UNL     1      -7.833  16.897  24.131  1.00  0.00     0.162 HD
BRANCH  20  23
HETATM   23  C22 UNL     1      -7.544  17.187  21.539  1.00  0.00     0.048 A 
HETATM   24  C23 UNL     1      -6.918  16.549  20.467  1.00  0.00     0.035 A 
HETATM   25  C24 UNL     1      -5.855  17.370  20.135  1.00  0.00     0.088 A 
HETATM   26  N9  UNL     1      -5.822  18.446  20.945  1.00  0.00    -0.374 N 
HETATM   27  C25 UNL     1      -6.845  18.340  21.800  1.00  0.00     0.104 A 
ATOM     28  H9  UNL     1      -5.140  19.204  20.913  1.00  0.00     0.164 HD
ENDBRANCH  20  23
ENDBRANCH  18  19
ENDBRANCH  17  18
ENDBRANCH  12  17
BRANCH  15  29
HETATM   29  N11 UNL     1      -7.332  19.803  27.407  1.00  0.00    -0.342 N 
ATOM     30 2H11 UNL     1      -7.453  19.782  28.419  1.00  0.00     0.176 HD
ATOM     31 1H11 UNL     1      -6.859  20.581  26.948  1.00  0.00     0.176 HD
ENDBRANCH  15  29
ENDBRANCH  11  12
ENDBRANCH  10  11
ENDBRANCH   9  10
ENDBRANCH   8   9
ENDBRANCH   7   8
ENDBRANCH   5   7
BRANCH   1  32
HETATM   32  C9  UNL     1     -11.212  14.682  34.455  1.00  0.00     0.253 C 
HETATM   33  N5  UNL     1     -11.063  13.311  34.796  1.00  0.00    -0.348 N 
ATOM     34  H5  UNL     1     -10.283  12.798  34.383  1.00  0.00     0.163 HD
HETATM   35  O2  UNL     1     -12.154  15.345  34.920  1.00  0.00    -0.268 OA
BRANCH  33  36
HETATM   36  C8  UNL     1     -11.930  12.607  35.676  1.00  0.00     0.225 C 
BRANCH  36  37
HETATM   37  C7  UNL     1     -12.920  11.763  34.936  1.00  0.00     0.235 C 
HETATM   38  N4  UNL     1     -12.900  11.614  33.569  1.00  0.00    -0.360 N 
ATOM     39  H4  UNL     1     -12.176  12.150  33.091  1.00  0.00     0.162 HD
HETATM   40  O1  UNL     1     -13.756  11.227  35.753  1.00  0.00    -0.272 OA
BRANCH  38  41
HETATM   41  C6  UNL     1     -13.723  10.837  32.716  1.00  0.00     0.122 C 
BRANCH  41  42
HETATM   42  C5  UNL     1     -13.892  11.297  31.342  1.00  0.00     0.021 C 
BRANCH  42  43
HETATM   43  C4  UNL     1     -14.840  12.322  30.918  1.00  0.00     0.021 C 
BRANCH  43  44
HETATM   44  C3  UNL     1     -14.258  13.274  29.864  1.00  0.00     0.122 C 
BRANCH  44  45
HETATM   45  N3  UNL     1     -14.413  12.655  28.544  1.00  0.00    -0.365 N 
HETATM   46  C2  UNL     1     -14.045  13.270  27.460  1.00  0.00     0.183 C 
HETATM   47  N1  UNL     1     -13.486  14.559  27.592  1.00  0.00    -0.369 N 
HETATM   48  N2  UNL     1     -14.210  12.640  26.184  1.00  0.00    -0.064 NA
HETATM   49  C1  UNL     1     -14.283  15.727  27.343  1.00  0.00     0.148 C 
ATOM     50  H1  UNL     1     -12.510  14.662  27.867  1.00  0.00     0.161 HD
ATOM     51  H3  UNL     1     -14.819  11.722  28.475  1.00  0.00     0.162 HD
ENDBRANCH  44  45
ENDBRANCH  43  44
ENDBRANCH  42  43
ENDBRANCH  41  42
ENDBRANCH  38  41
ENDBRANCH  36  37
ENDBRANCH  33  36
ENDBRANCH   1  32
TORSDOF 19
ENDMDL
MODEL 3
REMARK VINA RESULT: -8.135470874      2.194      6.111
REMARK  19 active torsions:
REMARK  status: ('A' for Active; 'I' for Inactive)
REMARK       I    between atoms: N1_2  and  C2_4 
REMARK    1  A    between atoms: N3_6  and  C3_8 
REMARK    2  A    between atoms: C3_8  and  C4_9 
REMARK    3  A    between atoms: C4_9  and  C5_10 
REMARK    4  A    between atoms: C5_10  and  C6_11 
REMARK    5  A    between atoms: C6_11  and  N4_12 
REMARK       I    between atoms: N4_12  and  C7_14 
REMARK    6  A    between atoms: C7_14  and  C8_16 
REMARK    7  A    between atoms: C8_16  and  N5_17 
REMARK       I    between atoms: N5_17  and  C9_19 
REMARK    8  A    between atoms: C9_19  and  C10_21 
REMARK    9  A    between atoms: N6_25  and  C14_26 
REMARK   10  A    between atoms: C14_26  and  C15_27 
REMARK   11  A    between atoms: C15_27  and  C16_28 
REMARK   12  A    between atoms: C16_28  and  C17_29 
REMARK   13  A    between atoms: C17_29  and  C18_30 
REMARK   14  A    between atoms: C18_30  and  N7_31 
REMARK   15  A    between atoms: N7_31  and  C19_32 
REMARK       I    between atoms: N7_31  and  C26_44 
REMARK   16  A    between atoms: C19_32  and  C20_33 
REMARK   17  A    between atoms: C20_33  and  N8_34 
REMARK       I    between atoms: N8_34  and  C21_36 
REMARK   18  A    between atoms: C21_36  and  C22_38 
REMARK       I    between atoms: C26_44  and  N10_46 
REMARK   19  A    between atoms: N10_46  and  N11_48 
ROOT
HETATM    1  C10 UNL     1      -9.397  16.096  24.973  1.00  0.00     0.047 A 
HETATM    2  C11 UNL     1      -9.135  17.373  25.494  1.00  0.00     0.020 A 
HETATM    3  C12 UNL     1      -9.478  17.675  26.792  1.00  0.00     0.018 A 
HETATM    4  C13 UNL     1     -10.083  16.749  27.615  1.00  0.00     0.090 A 
HETATM    5  N6  UNL     1     -10.336  15.534  27.128  1.00  0.00    -0.365 N 
HETATM    6  C27 UNL     1      -9.998  15.221  25.838  1.00  0.00     0.107 A 
ENDROOT
BRANCH   5   7
HETATM    7  C14 UNL     1     -10.983  14.463  27.868  1.00  0.00     0.128 C 
BRANCH   7   8
HETATM    8  C15 UNL     1     -12.113  13.898  27.060  1.00  0.00     0.020 C 
BRANCH   8   9
HETATM    9  C16 UNL     1     -13.395  14.637  27.145  1.00  0.00     0.003 C 
BRANCH   9  10
HETATM   10  C17 UNL     1     -13.639  15.363  28.437  1.00  0.00     0.015 C 
BRANCH  10  11
HETATM   11  C18 UNL     1     -14.664  14.519  29.230  1.00  0.00     0.100 C 
BRANCH  11  12
HETATM   12  N7  UNL     1     -14.080  14.003  30.421  1.00  0.00    -0.232 NA
HETATM   13  C26 UNL     1     -13.814  12.603  30.340  1.00  0.00     0.314 C 
HETATM   14  O4  UNL     1     -14.122  12.006  29.281  1.00  0.00    -0.252 OA
HETATM   15  N10 UNL     1     -13.224  11.874  31.392  1.00  0.00    -0.263 N 
ATOM     16  H10 UNL     1     -12.967  12.344  32.260  1.00  0.00     0.190 HD
BRANCH  12  17
HETATM   17  C19 UNL     1     -14.806  14.295  31.630  1.00  0.00     0.120 C 
BRANCH  17  18
HETATM   18  C20 UNL     1     -13.965  14.829  32.750  1.00  0.00     0.138 C 
BRANCH  18  19
HETATM   19  N8  UNL     1     -12.641  15.212  32.321  1.00  0.00    -0.356 N 
HETATM   20  C21 UNL     1     -11.610  15.611  33.174  1.00  0.00     0.253 C 
HETATM   21  O3  UNL     1     -11.793  15.666  34.411  1.00  0.00    -0.268 OA
ATOM     22  H8  UNL     1     -12.443  15.190  31.321  1.00  0.00     0.162 HD
BRANCH  20  23
HETATM   23  C22 UNL     1     -10.310  15.970  32.636  1.00  0.00     0.048 A 
HETATM   24  C23 UNL     1      -9.080  15.942  33.294  1.00  0.00     0.035 A 
HETATM   25  C24 UNL     1      -8.160  16.361  32.350  1.00  0.00     0.088 A 
HETATM   26  N9  UNL     1      -8.776  16.630  31.182  1.00  0.00    -0.374 N 
HETATM   27  C25 UNL     1     -10.082  16.393  31.350  1.00  0.00     0.104 A 
ATOM     28  H9  UNL     1      -8.328  16.954  30.325  1.00  0.00     0.164 HD
ENDBRANCH  20  23
ENDBRANCH  18  19
ENDBRANCH  17  18
ENDBRANCH  12  17
BRANCH  15  29
HETATM   29  N11 UNL     1     -12.996  10.514  31.243  1.00  0.00    -0.342 N 
ATOM     30 2H11 UNL     1     -12.493  10.182  30.420  1.00  0.00     0.176 HD
ATOM     31 1H11 UNL     1     -13.331   9.864  31.954  1.00  0.00     0.176 HD
ENDBRANCH  15  29
ENDBRANCH  11  12
ENDBRANCH  10  11
ENDBRANCH   9  10
ENDBRANCH   8   9
ENDBRANCH   7   8
ENDBRANCH   5   7
BRANCH   1  32
HETATM   32  C9  UNL     1      -9.052  15.776  23.604  1.00  0.00     0.253 C 
HETATM   33  N5  UNL     1      -9.878  16.212  22.535  1.00  0.00    -0.348 N 
ATOM     34  H5  UNL     1     -10.720  16.741  22.767  1.00  0.00     0.163 HD
HETATM   35  O2  UNL     1      -8.025  15.115  23.374  1.00  0.00    -0.268 OA
BRANCH  33  36
HETATM   36  C8  UNL     1      -9.610  15.958  21.162  1.00  0.00     0.225 C 
BRANCH  36  37
HETATM   37  C7  UNL     1      -8.457  16.764  20.654  1.00  0.00     0.235 C 
HETATM   38  N4  UNL     1      -7.193  16.242  20.496  1.00  0.00    -0.360 N 
ATOM     39  H4  UNL     1      -7.094  15.268  20.781  1.00  0.00     0.162 HD
HETATM   40  O1  UNL     1      -8.823  17.970  20.406  1.00  0.00    -0.272 OA
BRANCH  38  41
HETATM   41  C6  UNL     1      -6.008  16.838  20.000  1.00  0.00     0.122 C 
BRANCH  41  42
HETATM   42  C5  UNL     1      -5.021  17.287  20.976  1.00  0.00     0.021 C 
BRANCH  42  43
HETATM   43  C4  UNL     1      -5.174  18.456  21.837  1.00  0.00     0.021 C 
BRANCH  43  44
HETATM   44  C3  UNL     1      -6.288  18.287  22.879  1.00  0.00     0.122 C 
BRANCH  44  45
HETATM   45  N3  UNL     1      -5.770  17.473  23.983  1.00  0.00    -0.365 N 
HETATM   46  C2  UNL     1      -5.545  17.987  25.156  1.00  0.00     0.183 C 
HETATM   47  N1  UNL     1      -5.817  19.360  25.336  1.00  0.00    -0.369 N 
HETATM   48  N2  UNL     1      -5.037  17.166  26.216  1.00  0.00    -0.064 NA
HETATM   49  C1  UNL     1      -4.753  20.323  25.303  1.00  0.00     0.148 C 
ATOM     50  H1  UNL     1      -6.776  19.670  25.491  1.00  0.00     0.161 HD
ATOM     51  H3  UNL     1      -5.582  16.483  23.828  1.00  0.00     0.162 HD
ENDBRANCH  44  45
ENDBRANCH  43  44
ENDBRANCH  42  43
ENDBRANCH  41  42
ENDBRANCH  38  41
ENDBRANCH  36  37
ENDBRANCH  33  36
ENDBRANCH   1  32
TORSDOF 19
ENDMDL
MODEL 4
REMARK VINA RESULT: -8.029972775      2.024      9.185
REMARK  19 active torsions:
REMARK  status: ('A' for Active; 'I' for Inactive)
REMARK       I    between atoms: N1_2  and  C2_4 
REMARK    1  A    between atoms: N3_6  and  C3_8 
REMARK    2  A    between atoms: C3_8  and  C4_9 
REMARK    3  A    between atoms: C4_9  and  C5_10 
REMARK    4  A    between atoms: C5_10  and  C6_11 
REMARK    5  A    between atoms: C6_11  and  N4_12 
REMARK       I    between atoms: N4_12  and  C7_14 
REMARK    6  A    between atoms: C7_14  and  C8_16 
REMARK    7  A    between atoms: C8_16  and  N5_17 
REMARK       I    between atoms: N5_17  and  C9_19 
REMARK    8  A    between atoms: C9_19  and  C10_21 
REMARK    9  A    between atoms: N6_25  and  C14_26 
REMARK   10  A    between atoms: C14_26  and  C15_27 
REMARK   11  A    between atoms: C15_27  and  C16_28 
REMARK   12  A    between atoms: C16_28  and  C17_29 
REMARK   13  A    between atoms: C17_29  and  C18_30 
REMARK   14  A    between atoms: C18_30  and  N7_31 
REMARK   15  A    between atoms: N7_31  and  C19_32 
REMARK       I    between atoms: N7_31  and  C26_44 
REMARK   16  A    between atoms: C19_32  and  C20_33 
REMARK   17  A    between atoms: C20_33  and  N8_34 
REMARK       I    between atoms: N8_34  and  C21_36 
REMARK   18  A    between atoms: C21_36  and  C22_38 
REMARK       I    between atoms: C26_44  and  N10_46 
REMARK   19  A    between atoms: N10_46  and  N11_48 
ROOT
HETATM    1  C10 UNL     1      -5.365  18.563  22.436  1.00  0.00     0.047 A 
HETATM    2  C11 UNL     1      -4.430  18.147  21.474  1.00  0.00     0.020 A 
HETATM    3  C12 UNL     1      -4.855  17.590  20.290  1.00  0.00     0.018 A 
HETATM    4  C13 UNL     1      -6.194  17.420  20.010  1.00  0.00     0.090 A 
HETATM    5  N6  UNL     1      -7.089  17.810  20.917  1.00  0.00    -0.365 N 
HETATM    6  C27 UNL     1      -6.678  18.368  22.099  1.00  0.00     0.107 A 
ENDROOT
BRANCH   5   7
HETATM    7  C14 UNL     1      -8.529  17.679  20.771  1.00  0.00     0.128 C 
BRANCH   7   8
HETATM    8  C15 UNL     1      -8.909  16.228  20.757  1.00  0.00     0.020 C 
BRANCH   8   9
HETATM    9  C16 UNL     1      -9.684  15.757  21.929  1.00  0.00     0.003 C 
BRANCH   9  10
HETATM   10  C17 UNL     1      -9.018  14.700  22.763  1.00  0.00     0.015 C 
BRANCH  10  11
HETATM   11  C18 UNL     1      -8.412  15.423  23.988  1.00  0.00     0.100 C 
BRANCH  11  12
HETATM   12  N7  UNL     1      -9.431  15.817  24.899  1.00  0.00    -0.232 NA
HETATM   13  C26 UNL     1      -9.230  17.132  25.413  1.00  0.00     0.314 C 
HETATM   14  O4  UNL     1      -8.216  17.763  25.033  1.00  0.00    -0.252 OA
HETATM   15  N10 UNL     1     -10.118  17.744  26.322  1.00  0.00    -0.263 N 
ATOM     16  H10 UNL     1     -10.948  17.245  26.640  1.00  0.00     0.190 HD
BRANCH  12  17
HETATM   17  C19 UNL     1      -9.667  14.897  25.983  1.00  0.00     0.120 C 
BRANCH  17  18
HETATM   18  C20 UNL     1     -11.087  14.436  26.114  1.00  0.00     0.138 C 
BRANCH  18  19
HETATM   19  N8  UNL     1     -11.489  14.248  27.488  1.00  0.00    -0.356 N 
HETATM   20  C21 UNL     1     -12.778  13.908  27.902  1.00  0.00     0.253 C 
HETATM   21  O3  UNL     1     -13.694  13.748  27.065  1.00  0.00    -0.268 OA
ATOM     22  H8  UNL     1     -10.779  14.372  28.209  1.00  0.00     0.162 HD
BRANCH  20  23
HETATM   23  C22 UNL     1     -13.072  13.735  29.313  1.00  0.00     0.048 A 
HETATM   24  C23 UNL     1     -14.247  14.078  29.985  1.00  0.00     0.035 A 
HETATM   25  C24 UNL     1     -14.029  13.703  31.299  1.00  0.00     0.088 A 
HETATM   26  N9  UNL     1     -12.802  13.163  31.435  1.00  0.00    -0.374 N 
HETATM   27  C25 UNL     1     -12.217  13.180  30.233  1.00  0.00     0.104 A 
ATOM     28  H9  UNL     1     -12.394  12.806  32.299  1.00  0.00     0.164 HD
ENDBRANCH  20  23
ENDBRANCH  18  19
ENDBRANCH  17  18
ENDBRANCH  12  17
BRANCH  15  29
HETATM   29  N11 UNL     1      -9.858  19.027  26.780  1.00  0.00    -0.342 N 
ATOM     30 2H11 UNL     1     -10.640  19.651  26.978  1.00  0.00     0.176 HD
ATOM     31 1H11 UNL     1      -8.894  19.331  26.913  1.00  0.00     0.176 HD
ENDBRANCH  15  29
ENDBRANCH  11  12
ENDBRANCH  10  11
ENDBRANCH   9  10
ENDBRANCH   8   9
ENDBRANCH   7   8
ENDBRANCH   5   7
BRANCH   1  32
HETATM   32  C9  UNL     1      -4.925  19.137  23.689  1.00  0.00     0.253 C 
HETATM   33  N5  UNL     1      -5.674  18.928  24.877  1.00  0.00    -0.348 N 
ATOM     34  H5  UNL     1      -6.530  18.375  24.811  1.00  0.00     0.163 HD
HETATM   35  O2  UNL     1      -3.885  19.816  23.715  1.00  0.00    -0.268 OA
BRANCH  33  36
HETATM   36  C8  UNL     1      -5.311  19.439  26.153  1.00  0.00     0.225 C 
BRANCH  36  37
HETATM   37  C7  UNL     1      -5.516  18.435  27.243  1.00  0.00     0.235 C 
HETATM   38  N4  UNL     1      -6.694  17.743  27.409  1.00  0.00    -0.360 N 
ATOM     39  H4  UNL     1      -7.432  17.991  26.749  1.00  0.00     0.162 HD
HETATM   40  O1  UNL     1      -4.460  18.332  27.967  1.00  0.00    -0.272 OA
BRANCH  38  41
HETATM   41  C6  UNL     1      -7.050  16.743  28.347  1.00  0.00     0.122 C 
BRANCH  41  42
HETATM   42  C5  UNL     1      -8.185  17.014  29.222  1.00  0.00     0.021 C 
BRANCH  42  43
HETATM   43  C4  UNL     1      -9.019  15.991  29.845  1.00  0.00     0.021 C 
BRANCH  43  44
HETATM   44  C3  UNL     1      -9.029  16.081  31.377  1.00  0.00     0.122 C 
BRANCH  44  45
HETATM   45  N3  UNL     1     -10.380  15.764  31.851  1.00  0.00    -0.365 N 
HETATM   46  C2  UNL     1     -10.723  15.947  33.091  1.00  0.00     0.183 C 
HETATM   47  N1  UNL     1      -9.750  16.463  33.974  1.00  0.00    -0.369 N 
HETATM   48  N2  UNL     1     -12.051  15.627  33.525  1.00  0.00    -0.064 NA
HETATM   49  C1  UNL     1      -9.035  15.590  34.860  1.00  0.00     0.148 C 
ATOM     50  H1  UNL     1      -9.554  17.463  33.981  1.00  0.00     0.161 HD
ATOM     51  H3  UNL     1     -11.065  15.393  31.193  1.00  0.00     0.162 HD
ENDBRANCH  44  45
ENDBRANCH  43  44
ENDBRANCH  42  43
ENDBRANCH  41  42
ENDBRANCH  38  41
ENDBRANCH  36  37
ENDBRANCH  33  36
ENDBRANCH   1  32
TORSDOF 19
ENDMDL
MODEL 5
REMARK VINA RESULT: -7.984829000      2.212      5.350
REMARK  19 active torsions:
REMARK  status: ('A' for Active; 'I' for Inactive)
REMARK       I    between atoms: N1_2  and  C2_4 
REMARK    1  A    between atoms: N3_6  and  C3_8 
REMARK    2  A    between atoms: C3_8  and  C4_9 
REMARK    3  A    between atoms: C4_9  and  C5_10 
REMARK    4  A    between atoms: C5_10  and  C6_11 
REMARK    5  A    between atoms: C6_11  and  N4_12 
REMARK       I    between atoms: N4_12  and  C7_14 
REMARK    6  A    between atoms: C7_14  and  C8_16 
REMARK    7  A    between atoms: C8_16  and  N5_17 
REMARK       I    between atoms: N5_17  and  C9_19 
REMARK    8  A    between atoms: C9_19  and  C10_21 
REMARK    9  A    between atoms: N6_25  and  C14_26 
REMARK   10  A    between atoms: C14_26  and  C15_27 
REMARK   11  A    between atoms: C15_27  and  C16_28 
REMARK   12  A    between atoms: C16_28  and  C17_29 
REMARK   13  A    between atoms: C17_29  and  C18_30 
REMARK   14  A    between atoms: C18_30  and  N7_31 
REMARK   15  A    between atoms: N7_31  and  C19_32 
REMARK       I    between atoms: N7_31  and  C26_44 
REMARK   16  A    between atoms: C19_32  and  C20_33 
REMARK   17  A    between atoms: C20_33  and  N8_34 
REMARK       I    between atoms: N8_34  and  C21_36 
REMARK   18  A    between atoms: C21_36  and  C22_38 
REMARK       I    between atoms: C26_44  and  N10_46 
REMARK   19  A    between atoms: N10_46  and  N11_48 
ROOT
HETATM    1  C10 UNL     1      -7.222  16.605  27.690  1.00  0.00     0.047 A 
HETATM    2  C11 UNL     1      -7.703  15.733  26.699  1.00  0.00     0.020 A 
HETATM    3  C12 UNL     1      -8.841  14.992  26.922  1.00  0.00     0.018 A 
HETATM    4  C13 UNL     1      -9.538  15.076  28.109  1.00  0.00     0.090 A 
HETATM    5  N6  UNL     1      -9.088  15.900  29.055  1.00  0.00    -0.365 N 
HETATM    6  C27 UNL     1      -7.957  16.644  28.844  1.00  0.00     0.107 A 
ENDROOT
BRANCH   5   7
HETATM    7  C14 UNL     1      -9.705  16.081  30.359  1.00  0.00     0.128 C 
BRANCH   7   8
HETATM    8  C15 UNL     1      -8.692  16.606  31.332  1.00  0.00     0.020 C 
BRANCH   8   9
HETATM    9  C16 UNL     1      -9.090  16.562  32.758  1.00  0.00     0.003 C 
BRANCH   9  10
HETATM   10  C17 UNL     1      -8.750  15.293  33.487  1.00  0.00     0.015 C 
BRANCH  10  11
HETATM   11  C18 UNL     1     -10.009  14.398  33.424  1.00  0.00     0.100 C 
BRANCH  11  12
HETATM   12  N7  UNL     1     -11.068  14.961  34.190  1.00  0.00    -0.232 NA
HETATM   13  C26 UNL     1     -11.475  14.117  35.267  1.00  0.00     0.314 C 
HETATM   14  O4  UNL     1     -10.890  13.017  35.406  1.00  0.00    -0.252 OA
HETATM   15  N10 UNL     1     -12.498  14.470  36.171  1.00  0.00    -0.263 N 
ATOM     16  H10 UNL     1     -12.983  15.361  36.073  1.00  0.00     0.190 HD
BRANCH  12  17
HETATM   17  C19 UNL     1     -12.219  15.372  33.427  1.00  0.00     0.120 C 
BRANCH  17  18
HETATM   18  C20 UNL     1     -12.944  14.254  32.739  1.00  0.00     0.138 C 
BRANCH  18  19
HETATM   19  N8  UNL     1     -13.457  14.634  31.445  1.00  0.00    -0.356 N 
HETATM   20  C21 UNL     1     -12.988  14.142  30.225  1.00  0.00     0.253 C 
HETATM   21  O3  UNL     1     -12.051  13.314  30.191  1.00  0.00    -0.268 OA
ATOM     22  H8  UNL     1     -14.219  15.312  31.419  1.00  0.00     0.162 HD
BRANCH  20  23
HETATM   23  C22 UNL     1     -13.582  14.588  28.978  1.00  0.00     0.048 A 
HETATM   24  C23 UNL     1     -14.678  14.035  28.313  1.00  0.00     0.035 A 
HETATM   25  C24 UNL     1     -14.849  14.824  27.190  1.00  0.00     0.088 A 
HETATM   26  N9  UNL     1     -13.923  15.803  27.158  1.00  0.00    -0.374 N 
HETATM   27  C25 UNL     1     -13.151  15.664  28.242  1.00  0.00     0.104 A 
ATOM     28  H9  UNL     1     -13.828  16.519  26.438  1.00  0.00     0.164 HD
ENDBRANCH  20  23
ENDBRANCH  18  19
ENDBRANCH  17  18
ENDBRANCH  12  17
BRANCH  15  29
HETATM   29  N11 UNL     1     -12.841  13.599  37.195  1.00  0.00    -0.342 N 
ATOM     30 2H11 UNL     1     -13.010  12.617  36.976  1.00  0.00     0.176 HD
ATOM     31 1H11 UNL     1     -12.920  13.947  38.150  1.00  0.00     0.176 HD
ENDBRANCH  15  29
ENDBRANCH  11  12
ENDBRANCH  10  11
ENDBRANCH   9  10
ENDBRANCH   8   9
ENDBRANCH   7   8
ENDBRANCH   5   7
BRANCH   1  32
HETATM   32  C9  UNL     1      -6.018  17.377  27.467  1.00  0.00     0.253 C 
HETATM   33  N5  UNL     1      -6.062  18.796  27.485  1.00  0.00    -0.348 N 
ATOM     34  H5  UNL     1      -6.965  19.244  27.648  1.00  0.00     0.163 HD
HETATM   35  O2  UNL     1      -4.946  16.785  27.258  1.00  0.00    -0.268 OA
BRANCH  33  36
HETATM   36  C8  UNL     1      -4.930  19.634  27.292  1.00  0.00     0.225 C 
BRANCH  36  37
HETATM   37  C7  UNL     1      -4.463  19.631  25.871  1.00  0.00     0.235 C 
HETATM   38  N4  UNL     1      -3.364  18.920  25.447  1.00  0.00    -0.360 N 
ATOM     39  H4  UNL     1      -2.870  18.417  26.185  1.00  0.00     0.162 HD
HETATM   40  O1  UNL     1      -5.221  20.372  25.144  1.00  0.00    -0.272 OA
BRANCH  38  41
HETATM   41  C6  UNL     1      -2.806  18.773  24.153  1.00  0.00     0.122 C 
BRANCH  41  42
HETATM   42  C5  UNL     1      -3.422  17.796  23.262  1.00  0.00     0.021 C 
BRANCH  42  43
HETATM   43  C4  UNL     1      -4.414  18.110  22.240  1.00  0.00     0.021 C 
BRANCH  43  44
HETATM   44  C3  UNL     1      -5.856  18.019  22.759  1.00  0.00     0.122 C 
BRANCH  44  45
HETATM   45  N3  UNL     1      -6.768  18.155  21.619  1.00  0.00    -0.365 N 
HETATM   46  C2  UNL     1      -7.982  17.692  21.664  1.00  0.00     0.183 C 
HETATM   47  N1  UNL     1      -8.398  17.051  22.850  1.00  0.00    -0.369 N 
HETATM   48  N2  UNL     1      -8.850  17.839  20.533  1.00  0.00    -0.064 NA
HETATM   49  C1  UNL     1      -8.421  15.619  22.935  1.00  0.00     0.148 C 
ATOM     50  H1  UNL     1      -8.685  17.610  23.653  1.00  0.00     0.161 HD
ATOM     51  H3  UNL     1      -6.443  18.622  20.773  1.00  0.00     0.162 HD
ENDBRANCH  44  45
ENDBRANCH  43  44
ENDBRANCH  42  43
ENDBRANCH  41  42
ENDBRANCH  38  41
ENDBRANCH  36  37
ENDBRANCH  33  36
ENDBRANCH   1  32
TORSDOF 19
ENDMDL
