MODEL 1
REMARK VINA RESULT: -7.622908433      0.000      0.000
REMARK  2 active torsions:
REMARK  status: ('A' for Active; 'I' for Inactive)
REMARK    1  A    between atoms: N1_2  and  C2_4 
REMARK    2  A    between atoms: C2_4  and  N2_6 
REMARK       I    between atoms: C3_8  and  N4_10 
ROOT
HETATM    1  N2  UNL     1       0.284  67.663  66.340  1.00  0.00    -0.307 N 
ATOM      2  H2  UNL     1       0.833  67.726  67.198  1.00  0.00     0.171 HD
HETATM    3  C3  UNL     1       0.859  67.547  65.213  1.00  0.00     0.192 C 
HETATM    4  N3  UNL     1       0.119  67.458  64.012  1.00  0.00    -0.063 NA
HETATM    5  N4  UNL     1       2.288  67.499  65.078  1.00  0.00    -0.355 N 
HETATM    6  C4  UNL     1       3.010  68.275  66.144  1.00  0.00     0.125 C 
HETATM    7  C5  UNL     1       4.157  68.727  65.397  1.00  0.00     0.020 C 
HETATM    8  C6  UNL     1       5.305  69.550  65.614  1.00  0.00     0.002 C 
HETATM    9  C7  UNL     1       6.067  69.389  64.273  1.00  0.00     0.000 C 
HETATM   10  C8  UNL     1       5.253  69.204  63.047  1.00  0.00     0.000 C 
HETATM   11  C9  UNL     1       4.812  67.863  62.611  1.00  0.00     0.002 C 
HETATM   12  C10 UNL     1       3.363  67.471  62.786  1.00  0.00     0.020 C 
HETATM   13  C11 UNL     1       2.950  66.781  64.027  1.00  0.00     0.125 C 
ENDROOT
BRANCH   1  14
HETATM   14  C2  UNL     1      -1.150  67.703  66.388  1.00  0.00     0.173 C 
HETATM   15  S1  UNL     1      -1.998  66.561  67.169  1.00  0.00    -0.041 SA
BRANCH  14  16
HETATM   16  N1  UNL     1      -1.809  68.772  65.730  1.00  0.00    -0.371 N 
HETATM   17  C1  UNL     1      -3.096  68.504  65.092  1.00  0.00     0.148 C 
ATOM     18  H1  UNL     1      -1.395  69.703  65.703  1.00  0.00     0.161 HD
ENDBRANCH  14  16
ENDBRANCH   1  14
TORSDOF 2
ENDMDL
MODEL 2
REMARK VINA RESULT: -6.866772100      1.972      2.450
REMARK  2 active torsions:
REMARK  status: ('A' for Active; 'I' for Inactive)
REMARK    1  A    between atoms: N1_2  and  C2_4 
REMARK    2  A    between atoms: C2_4  and  N2_6 
REMARK       I    between atoms: C3_8  and  N4_10 
ROOT
HETATM    1  N2  UNL     1       1.695  67.433  66.905  1.00  0.00    -0.307 N 
ATOM      2  H2  UNL     1       2.395  67.975  67.412  1.00  0.00     0.171 HD
HETATM    3  C3  UNL     1       1.981  66.887  65.793  1.00  0.00     0.192 C 
HETATM    4  N3  UNL     1       1.027  66.132  65.074  1.00  0.00    -0.063 NA
HETATM    5  N4  UNL     1       3.282  66.997  65.193  1.00  0.00    -0.355 N 
HETATM    6  C4  UNL     1       3.983  68.282  65.531  1.00  0.00     0.125 C 
HETATM    7  C5  UNL     1       4.725  68.495  64.313  1.00  0.00     0.020 C 
HETATM    8  C6  UNL     1       5.596  69.485  63.764  1.00  0.00     0.002 C 
HETATM    9  C7  UNL     1       6.016  68.828  62.423  1.00  0.00     0.000 C 
HETATM   10  C8  UNL     1       5.016  67.966  61.747  1.00  0.00     0.000 C 
HETATM   11  C9  UNL     1       4.896  66.529  62.068  1.00  0.00     0.002 C 
HETATM   12  C10 UNL     1       3.716  66.053  62.885  1.00  0.00     0.020 C 
HETATM   13  C11 UNL     1       3.844  65.977  64.356  1.00  0.00     0.125 C 
ENDROOT
BRANCH   1  14
HETATM   14  C2  UNL     1       0.370  67.275  67.436  1.00  0.00     0.173 C 
HETATM   15  S1  UNL     1      -0.823  68.300  67.037  1.00  0.00    -0.041 SA
BRANCH  14  16
HETATM   16  N1  UNL     1       0.133  66.194  68.321  1.00  0.00    -0.371 N 
HETATM   17  C1  UNL     1       1.048  66.007  69.445  1.00  0.00     0.148 C 
ATOM     18  H1  UNL     1      -0.656  65.565  68.178  1.00  0.00     0.161 HD
ENDBRANCH  14  16
ENDBRANCH   1  14
TORSDOF 2
ENDMDL
MODEL 3
REMARK VINA RESULT: -6.825349606      1.790      3.218
REMARK  2 active torsions:
REMARK  status: ('A' for Active; 'I' for Inactive)
REMARK    1  A    between atoms: N1_2  and  C2_4 
REMARK    2  A    between atoms: C2_4  and  N2_6 
REMARK       I    between atoms: C3_8  and  N4_10 
ROOT
HETATM    1  N2  UNL     1       0.001  67.576  66.090  1.00  0.00    -0.307 N 
ATOM      2  H2  UNL     1      -0.595  68.219  65.568  1.00  0.00     0.171 HD
HETATM    3  C3  UNL     1       1.216  67.407  65.756  1.00  0.00     0.192 C 
HETATM    4  N3  UNL     1       2.060  66.522  66.465  1.00  0.00    -0.063 NA
HETATM    5  N4  UNL     1       1.813  68.097  64.647  1.00  0.00    -0.355 N 
HETATM    6  C4  UNL     1       0.835  68.414  63.551  1.00  0.00     0.125 C 
HETATM    7  C5  UNL     1       1.699  68.308  62.401  1.00  0.00     0.020 C 
HETATM    8  C6  UNL     1       1.584  68.398  60.980  1.00  0.00     0.002 C 
HETATM    9  C7  UNL     1       3.063  68.253  60.534  1.00  0.00     0.000 C 
HETATM   10  C8  UNL     1       3.940  67.388  61.361  1.00  0.00     0.000 C 
HETATM   11  C9  UNL     1       4.660  67.921  62.536  1.00  0.00     0.002 C 
HETATM   12  C10 UNL     1       4.178  67.558  63.921  1.00  0.00     0.020 C 
HETATM   13  C11 UNL     1       3.205  68.441  64.599  1.00  0.00     0.125 C 
ENDROOT
BRANCH   1  14
HETATM   14  C2  UNL     1      -0.519  66.848  67.213  1.00  0.00     0.173 C 
HETATM   15  S1  UNL     1      -2.074  66.387  67.268  1.00  0.00    -0.041 SA
BRANCH  14  16
HETATM   16  N1  UNL     1       0.366  66.543  68.276  1.00  0.00    -0.371 N 
HETATM   17  C1  UNL     1      -0.117  65.681  69.353  1.00  0.00     0.148 C 
ATOM     18  H1  UNL     1       1.315  66.915  68.289  1.00  0.00     0.161 HD
ENDBRANCH  14  16
ENDBRANCH   1  14
TORSDOF 2
ENDMDL
MODEL 4
REMARK VINA RESULT: -6.771105711      1.130      1.284
REMARK  2 active torsions:
REMARK  status: ('A' for Active; 'I' for Inactive)
REMARK    1  A    between atoms: N1_2  and  C2_4 
REMARK    2  A    between atoms: C2_4  and  N2_6 
REMARK       I    between atoms: C3_8  and  N4_10 
ROOT
HETATM    1  N2  UNL     1       0.374  67.159  66.234  1.00  0.00    -0.307 N 
ATOM      2  H2  UNL     1       1.010  66.677  66.870  1.00  0.00     0.171 HD
HETATM    3  C3  UNL     1       0.751  67.480  65.064  1.00  0.00     0.192 C 
HETATM    4  N3  UNL     1      -0.113  68.149  64.166  1.00  0.00    -0.063 NA
HETATM    5  N4  UNL     1       2.069  67.189  64.572  1.00  0.00    -0.355 N 
HETATM    6  C4  UNL     1       3.113  67.171  65.652  1.00  0.00     0.125 C 
HETATM    7  C5  UNL     1       4.251  67.662  64.914  1.00  0.00     0.020 C 
HETATM    8  C6  UNL     1       5.614  68.001  65.173  1.00  0.00     0.002 C 
HETATM    9  C7  UNL     1       6.130  68.345  63.751  1.00  0.00     0.000 C 
HETATM   10  C8  UNL     1       5.163  68.961  62.810  1.00  0.00     0.000 C 
HETATM   11  C9  UNL     1       4.280  68.133  61.963  1.00  0.00     0.002 C 
HETATM   12  C10 UNL     1       2.811  68.036  62.305  1.00  0.00     0.020 C 
HETATM   13  C11 UNL     1       2.349  66.943  63.187  1.00  0.00     0.125 C 
ENDROOT
BRANCH   1  14
HETATM   14  C2  UNL     1      -0.961  67.487  66.648  1.00  0.00     0.173 C 
HETATM   15  S1  UNL     1      -2.025  66.330  67.048  1.00  0.00    -0.041 SA
BRANCH  14  16
HETATM   16  N1  UNL     1      -1.326  68.856  66.697  1.00  0.00    -0.371 N 
HETATM   17  C1  UNL     1      -0.432  69.787  67.382  1.00  0.00     0.148 C 
ATOM     18  H1  UNL     1      -2.191  69.182  66.266  1.00  0.00     0.161 HD
ENDBRANCH  14  16
ENDBRANCH   1  14
TORSDOF 2
ENDMDL
MODEL 5
REMARK VINA RESULT: -6.696499899      1.508      1.726
REMARK  2 active torsions:
REMARK  status: ('A' for Active; 'I' for Inactive)
REMARK    1  A    between atoms: N1_2  and  C2_4 
REMARK    2  A    between atoms: C2_4  and  N2_6 
REMARK       I    between atoms: C3_8  and  N4_10 
ROOT
HETATM    1  N2  UNL     1       1.699  67.326  66.996  1.00  0.00    -0.307 N 
ATOM      2  H2  UNL     1       2.408  67.846  67.513  1.00  0.00     0.171 HD
HETATM    3  C3  UNL     1       1.966  66.829  65.856  1.00  0.00     0.192 C 
HETATM    4  N3  UNL     1       0.999  66.104  65.122  1.00  0.00    -0.063 NA
HETATM    5  N4  UNL     1       3.255  66.967  65.238  1.00  0.00    -0.355 N 
HETATM    6  C4  UNL     1       3.961  68.237  65.619  1.00  0.00     0.125 C 
HETATM    7  C5  UNL     1       4.681  68.504  64.398  1.00  0.00     0.020 C 
HETATM    8  C6  UNL     1       5.540  69.518  63.876  1.00  0.00     0.002 C 
HETATM    9  C7  UNL     1       5.936  68.920  62.500  1.00  0.00     0.000 C 
HETATM   10  C8  UNL     1       4.925  68.087  61.806  1.00  0.00     0.000 C 
HETATM   11  C9  UNL     1       4.812  66.637  62.067  1.00  0.00     0.002 C 
HETATM   12  C10 UNL     1       3.648  66.124  62.884  1.00  0.00     0.020 C 
HETATM   13  C11 UNL     1       3.803  65.985  64.347  1.00  0.00     0.125 C 
ENDROOT
BRANCH   1  14
HETATM   14  C2  UNL     1       0.385  67.142  67.543  1.00  0.00     0.173 C 
HETATM   15  S1  UNL     1       0.127  66.139  68.792  1.00  0.00    -0.041 SA
BRANCH  14  16
HETATM   16  N1  UNL     1      -0.686  67.864  66.960  1.00  0.00    -0.371 N 
HETATM   17  C1  UNL     1      -1.968  67.182  66.788  1.00  0.00     0.148 C 
ATOM     18  H1  UNL     1      -0.566  68.833  66.668  1.00  0.00     0.161 HD
ENDBRANCH  14  16
ENDBRANCH   1  14
TORSDOF 2
ENDMDL
