MODEL 1
REMARK VINA RESULT: -7.740542263      0.000      0.000
REMARK  1 active torsions:
REMARK  status: ('A' for Active; 'I' for Inactive)
REMARK       I    between atoms: C3_5  and  N3_7 
REMARK       I    between atoms: C4_9  and  N4_10 
REMARK       I    between atoms: C4_9  and  N5_17 
REMARK    1  A    between atoms: N4_10  and  C5_12 
ROOT
HETATM    1  C1  UNL     1       5.634  62.428  63.125  1.00  0.00     0.037 C 
HETATM    2  C2  UNL     1       4.740  63.240  63.298  1.00  0.00     0.001 C 
HETATM    3  N1  UNL     1       3.715  64.168  63.515  1.00  0.00    -0.289 N 
ATOM      4  H1  UNL     1       3.210  64.551  62.715  1.00  0.00     0.179 HD
HETATM    5  C3  UNL     1       3.400  64.544  64.690  1.00  0.00     0.214 C 
HETATM    6  N2  UNL     1       4.089  64.023  65.798  1.00  0.00    -0.062 NA
HETATM    7  N3  UNL     1       2.367  65.476  64.875  1.00  0.00    -0.163 N 
ATOM      8  H3  UNL     1       1.570  65.183  65.440  1.00  0.00     0.187 HD
HETATM    9  C4  UNL     1       2.339  66.663  64.394  1.00  0.00     0.678 C 
HETATM   10  N4  UNL     1       3.419  67.113  63.606  1.00  0.00    -0.221 N 
ATOM     11  H4  UNL     1       3.287  67.177  62.596  1.00  0.00     0.178 HD
HETATM   12  N5  UNL     1       1.221  67.478  64.676  1.00  0.00    -0.218 N 
HETATM   13  C10 UNL     1       0.342  67.209  65.807  1.00  0.00     0.141 C 
HETATM   14  C11 UNL     1      -0.531  68.437  65.978  1.00  0.00     0.020 C 
HETATM   15  C12 UNL     1      -1.443  68.518  64.778  1.00  0.00     0.003 C 
HETATM   16  C13 UNL     1      -0.596  68.644  63.528  1.00  0.00     0.020 C 
HETATM   17  C14 UNL     1       0.884  68.630  63.855  1.00  0.00     0.141 C 
ENDROOT
BRANCH  10  18
HETATM   18  C5  UNL     1       4.704  67.486  64.154  1.00  0.00     0.099 C 
HETATM   19  C6  UNL     1       5.206  68.714  63.416  1.00  0.00     0.026 C 
HETATM   20  C7  UNL     1       5.615  69.701  64.490  1.00  0.00     0.002 C 
HETATM   21  C8  UNL     1       4.586  69.387  65.576  1.00  0.00     0.002 C 
HETATM   22  C9  UNL     1       4.632  67.877  65.606  1.00  0.00     0.026 C 
ENDBRANCH  10  18
TORSDOF 1
ENDMDL
MODEL 2
REMARK VINA RESULT: -7.424067675      0.790      1.000
REMARK  1 active torsions:
REMARK  status: ('A' for Active; 'I' for Inactive)
REMARK       I    between atoms: C3_5  and  N3_7 
REMARK       I    between atoms: C4_9  and  N4_10 
REMARK       I    between atoms: C4_9  and  N5_17 
REMARK    1  A    between atoms: N4_10  and  C5_12 
ROOT
HETATM    1  C1  UNL     1       5.558  62.872  63.127  1.00  0.00     0.037 C 
HETATM    2  C2  UNL     1       4.621  63.601  63.412  1.00  0.00     0.001 C 
HETATM    3  N1  UNL     1       3.546  64.429  63.755  1.00  0.00    -0.289 N 
ATOM      4  H1  UNL     1       3.084  64.977  63.028  1.00  0.00     0.179 HD
HETATM    5  C3  UNL     1       3.131  64.513  64.956  1.00  0.00     0.214 C 
HETATM    6  N2  UNL     1       3.759  63.762  65.965  1.00  0.00    -0.062 NA
HETATM    7  N3  UNL     1       2.051  65.351  65.269  1.00  0.00    -0.163 N 
ATOM      8  H3  UNL     1       1.228  64.916  65.686  1.00  0.00     0.187 HD
HETATM    9  C4  UNL     1       2.009  66.617  65.076  1.00  0.00     0.678 C 
HETATM   10  N4  UNL     1       3.124  67.263  64.501  1.00  0.00    -0.221 N 
ATOM     11  H4  UNL     1       3.062  67.559  63.527  1.00  0.00     0.178 HD
HETATM   12  N5  UNL     1       0.841  67.317  65.449  1.00  0.00    -0.218 N 
HETATM   13  C10 UNL     1      -0.106  66.771  66.412  1.00  0.00     0.141 C 
HETATM   14  C11 UNL     1      -1.038  67.904  66.793  1.00  0.00     0.020 C 
HETATM   15  C12 UNL     1      -1.863  68.243  65.576  1.00  0.00     0.003 C 
HETATM   16  C13 UNL     1      -0.935  68.677  64.461  1.00  0.00     0.020 C 
HETATM   17  C14 UNL     1       0.517  68.621  64.892  1.00  0.00     0.141 C 
ENDROOT
BRANCH  10  18
HETATM   18  C5  UNL     1       4.350  67.527  65.222  1.00  0.00     0.099 C 
HETATM   19  C6  UNL     1       5.522  67.143  64.338  1.00  0.00     0.026 C 
HETATM   20  C7  UNL     1       6.462  68.330  64.362  1.00  0.00     0.002 C 
HETATM   21  C8  UNL     1       5.465  69.484  64.464  1.00  0.00     0.002 C 
HETATM   22  C9  UNL     1       4.537  68.985  65.548  1.00  0.00     0.026 C 
ENDBRANCH  10  18
TORSDOF 1
ENDMDL
MODEL 3
REMARK VINA RESULT: -7.238222718      2.526      5.748
REMARK  1 active torsions:
REMARK  status: ('A' for Active; 'I' for Inactive)
REMARK       I    between atoms: C3_5  and  N3_7 
REMARK       I    between atoms: C4_9  and  N4_10 
REMARK       I    between atoms: C4_9  and  N5_17 
REMARK    1  A    between atoms: N4_10  and  C5_12 
ROOT
HETATM    1  C1  UNL     1      -2.566  68.282  66.323  1.00  0.00     0.037 C 
HETATM    2  C2  UNL     1      -1.355  68.376  66.207  1.00  0.00     0.001 C 
HETATM    3  N1  UNL     1       0.036  68.464  66.077  1.00  0.00    -0.289 N 
ATOM      4  H1  UNL     1       0.483  69.381  66.099  1.00  0.00     0.179 HD
HETATM    5  C3  UNL     1       0.755  67.424  65.931  1.00  0.00     0.214 C 
HETATM    6  N2  UNL     1       0.150  66.156  65.899  1.00  0.00    -0.062 NA
HETATM    7  N3  UNL     1       2.147  67.545  65.803  1.00  0.00    -0.163 N 
ATOM      8  H3  UNL     1       2.723  67.071  66.500  1.00  0.00     0.187 HD
HETATM    9  C4  UNL     1       2.758  68.200  64.887  1.00  0.00     0.678 C 
HETATM   10  N4  UNL     1       2.003  68.872  63.902  1.00  0.00    -0.221 N 
ATOM     11  H4  UNL     1       1.928  69.887  63.961  1.00  0.00     0.178 HD
HETATM   12  N5  UNL     1       4.169  68.222  64.901  1.00  0.00    -0.218 N 
HETATM   13  C10 UNL     1       4.945  67.213  65.611  1.00  0.00     0.141 C 
HETATM   14  C11 UNL     1       6.381  67.368  65.151  1.00  0.00     0.020 C 
HETATM   15  C12 UNL     1       6.885  68.693  65.671  1.00  0.00     0.003 C 
HETATM   16  C13 UNL     1       6.026  69.801  65.099  1.00  0.00     0.020 C 
HETATM   17  C14 UNL     1       4.928  69.252  64.210  1.00  0.00     0.141 C 
ENDROOT
BRANCH  10  18
HETATM   18  C5  UNL     1       1.332  68.196  62.814  1.00  0.00     0.099 C 
HETATM   19  C6  UNL     1       0.036  68.928  62.516  1.00  0.00     0.026 C 
HETATM   20  C7  UNL     1       0.026  69.154  61.019  1.00  0.00     0.002 C 
HETATM   21  C8  UNL     1       1.517  69.357  60.749  1.00  0.00     0.002 C 
HETATM   22  C9  UNL     1       2.123  68.216  61.533  1.00  0.00     0.026 C 
ENDBRANCH  10  18
TORSDOF 1
ENDMDL
MODEL 4
REMARK VINA RESULT: -6.957073425      2.637      6.517
REMARK  1 active torsions:
REMARK  status: ('A' for Active; 'I' for Inactive)
REMARK       I    between atoms: C3_5  and  N3_7 
REMARK       I    between atoms: C4_9  and  N4_10 
REMARK       I    between atoms: C4_9  and  N5_17 
REMARK    1  A    between atoms: N4_10  and  C5_12 
ROOT
HETATM    1  C1  UNL     1      -3.947  68.306  66.085  1.00  0.00     0.037 C 
HETATM    2  C2  UNL     1      -2.775  68.047  65.866  1.00  0.00     0.001 C 
HETATM    3  N1  UNL     1      -1.426  67.768  65.618  1.00  0.00    -0.289 N 
ATOM      4  H1  UNL     1      -1.172  66.889  65.166  1.00  0.00     0.179 HD
HETATM    5  C3  UNL     1      -0.509  68.588  65.945  1.00  0.00     0.214 C 
HETATM    6  N2  UNL     1      -0.847  69.801  66.568  1.00  0.00    -0.062 NA
HETATM    7  N3  UNL     1       0.835  68.279  65.683  1.00  0.00    -0.163 N 
ATOM      8  H3  UNL     1       1.353  68.922  65.083  1.00  0.00     0.187 HD
HETATM    9  C4  UNL     1       1.467  67.261  66.133  1.00  0.00     0.678 C 
HETATM   10  N4  UNL     1       0.792  66.344  66.967  1.00  0.00    -0.221 N 
ATOM     11  H4  UNL     1       0.517  65.445  66.572  1.00  0.00     0.178 HD
HETATM   12  N5  UNL     1       2.823  67.096  65.773  1.00  0.00    -0.218 N 
HETATM   13  C10 UNL     1       3.632  68.212  65.302  1.00  0.00     0.141 C 
HETATM   14  C11 UNL     1       5.072  67.739  65.318  1.00  0.00     0.020 C 
HETATM   15  C12 UNL     1       5.213  66.674  64.258  1.00  0.00     0.003 C 
HETATM   16  C13 UNL     1       4.280  65.528  64.589  1.00  0.00     0.020 C 
HETATM   17  C14 UNL     1       3.487  65.804  65.851  1.00  0.00     0.141 C 
ENDROOT
BRANCH  10  18
HETATM   18  C5  UNL     1       0.471  66.614  68.351  1.00  0.00     0.099 C 
HETATM   19  C6  UNL     1      -0.615  65.649  68.792  1.00  0.00     0.026 C 
HETATM   20  C7  UNL     1      -0.128  65.048  70.094  1.00  0.00     0.002 C 
HETATM   21  C8  UNL     1       1.380  65.002  69.842  1.00  0.00     0.002 C 
HETATM   22  C9  UNL     1       1.633  66.382  69.280  1.00  0.00     0.026 C 
ENDBRANCH  10  18
TORSDOF 1
ENDMDL
MODEL 5
REMARK VINA RESULT: -6.651194091      2.123      5.377
REMARK  1 active torsions:
REMARK  status: ('A' for Active; 'I' for Inactive)
REMARK       I    between atoms: C3_5  and  N3_7 
REMARK       I    between atoms: C4_9  and  N4_10 
REMARK       I    between atoms: C4_9  and  N5_17 
REMARK    1  A    between atoms: N4_10  and  C5_12 
ROOT
HETATM    1  C1  UNL     1      -0.297  70.521  61.408  1.00  0.00     0.037 C 
HETATM    2  C2  UNL     1       0.309  69.537  61.799  1.00  0.00     0.001 C 
HETATM    3  N1  UNL     1       1.017  68.410  62.234  1.00  0.00    -0.289 N 
ATOM      4  H1  UNL     1       0.615  67.816  62.959  1.00  0.00     0.179 HD
HETATM    5  C3  UNL     1       2.153  68.111  61.742  1.00  0.00     0.214 C 
HETATM    6  N2  UNL     1       2.716  68.922  60.743  1.00  0.00    -0.062 NA
HETATM    7  N3  UNL     1       2.837  66.974  62.198  1.00  0.00    -0.163 N 
ATOM      8  H3  UNL     1       3.059  66.255  61.509  1.00  0.00     0.187 HD
HETATM    9  C4  UNL     1       3.208  66.762  63.406  1.00  0.00     0.678 C 
HETATM   10  N4  UNL     1       2.924  67.728  64.394  1.00  0.00    -0.221 N 
ATOM     11  H4  UNL     1       2.175  67.534  65.058  1.00  0.00     0.178 HD
HETATM   12  N5  UNL     1       3.891  65.562  63.699  1.00  0.00    -0.218 N 
HETATM   13  C10 UNL     1       4.563  64.788  62.663  1.00  0.00     0.141 C 
HETATM   14  C11 UNL     1       5.430  63.769  63.377  1.00  0.00     0.020 C 
HETATM   15  C12 UNL     1       4.509  62.792  64.066  1.00  0.00     0.003 C 
HETATM   16  C13 UNL     1       3.654  63.545  65.063  1.00  0.00     0.020 C 
HETATM   17  C14 UNL     1       3.962  65.029  65.051  1.00  0.00     0.141 C 
ENDROOT
BRANCH  10  18
HETATM   18  C5  UNL     1       3.640  68.979  64.513  1.00  0.00     0.099 C 
HETATM   19  C6  UNL     1       3.888  69.255  65.985  1.00  0.00     0.026 C 
HETATM   20  C7  UNL     1       5.361  69.587  66.099  1.00  0.00     0.002 C 
HETATM   21  C8  UNL     1       5.944  68.682  65.012  1.00  0.00     0.002 C 
HETATM   22  C9  UNL     1       4.998  68.944  63.864  1.00  0.00     0.026 C 
ENDBRANCH  10  18
TORSDOF 1
ENDMDL
