MODEL 1
REMARK VINA RESULT: -4.655252472      0.000      0.000
REMARK  6 active torsions:
REMARK  status: ('A' for Active; 'I' for Inactive)
REMARK    1  A    between atoms: C5_9  and  C6_10 
REMARK    2  A    between atoms: C6_10  and  N3_11 
REMARK    3  A    between atoms: N3_11  and  C7_14 
REMARK    4  A    between atoms: C7_14  and  C8_15 
REMARK    5  A    between atoms: C8_15  and  C9_16 
REMARK    6  A    between atoms: C9_16  and  N4_17 
ROOT
HETATM    1  C6  UNL     1      89.630  63.809  -0.834  1.00  0.00     0.269 C 
ENDROOT
BRANCH   1   2
HETATM    2  C5  UNL     1      89.897  64.315   0.536  1.00  0.00     0.273 C 
HETATM    3  N1  UNL     1      90.051  63.289   1.528  1.00  0.00     0.093 N 
HETATM    4  C1  UNL     1      88.890  62.441   1.666  1.00  0.00     0.310 C 
HETATM    5  C2  UNL     1      90.433  63.870   2.792  1.00  0.00     0.300 C 
HETATM    6  C3  UNL     1      89.576  65.042   3.208  1.00  0.00     0.262 C 
HETATM    7  N2  UNL     1      89.594  66.018   2.152  1.00  0.00    -0.071 N 
HETATM    8  C4  UNL     1      88.943  65.388   1.004  1.00  0.00     0.269 C 
ATOM      9  H22 UNL     1      89.176  66.910   2.416  1.00  0.00     0.277 HD
ATOM     10  H21 UNL     1      90.527  66.374   1.944  1.00  0.00     0.277 HD
ENDBRANCH   1   2
BRANCH   1  11
HETATM   11  N3  UNL     1      90.778  63.206  -1.464  1.00  0.00    -0.073 N 
ATOM     12  H32 UNL     1      91.645  63.563  -1.063  1.00  0.00     0.277 HD
ATOM     13  H31 UNL     1      90.867  62.225  -1.201  1.00  0.00     0.277 HD
BRANCH  11  14
HETATM   14  C7  UNL     1      90.769  63.360  -2.903  1.00  0.00     0.234 C 
BRANCH  14  15
HETATM   15  C8  UNL     1      89.541  62.676  -3.457  1.00  0.00     0.055 C 
BRANCH  15  16
HETATM   16  C9  UNL     1      89.935  61.416  -4.218  1.00  0.00     0.231 C 
BRANCH  16  17
HETATM   17  N4  UNL     1      91.359  61.363  -4.435  1.00  0.00    -0.079 N 
ATOM     18  H43 UNL     1      91.719  62.253  -4.778  1.00  0.00     0.274 HD
ATOM     19  H42 UNL     1      91.871  61.318  -3.554  1.00  0.00     0.274 HD
ATOM     20  H41 UNL     1      91.608  60.594  -5.055  1.00  0.00     0.274 HD
ENDBRANCH  16  17
ENDBRANCH  15  16
ENDBRANCH  14  15
ENDBRANCH  11  14
ENDBRANCH   1  11
TORSDOF 6
ENDMDL
MODEL 2
REMARK VINA RESULT: -4.578863490      1.057      1.086
REMARK  6 active torsions:
REMARK  status: ('A' for Active; 'I' for Inactive)
REMARK    1  A    between atoms: C5_9  and  C6_10 
REMARK    2  A    between atoms: C6_10  and  N3_11 
REMARK    3  A    between atoms: N3_11  and  C7_14 
REMARK    4  A    between atoms: C7_14  and  C8_15 
REMARK    5  A    between atoms: C8_15  and  C9_16 
REMARK    6  A    between atoms: C9_16  and  N4_17 
ROOT
HETATM    1  C6  UNL     1      89.666  63.881  -0.833  1.00  0.00     0.269 C 
ENDROOT
BRANCH   1   2
HETATM    2  C5  UNL     1      89.923  64.355   0.550  1.00  0.00     0.273 C 
HETATM    3  N1  UNL     1      90.059  63.307   1.521  1.00  0.00     0.093 N 
HETATM    4  C1  UNL     1      88.889  62.466   1.629  1.00  0.00     0.310 C 
HETATM    5  C2  UNL     1      90.432  63.858   2.801  1.00  0.00     0.300 C 
HETATM    6  C3  UNL     1      89.580  65.028   3.233  1.00  0.00     0.262 C 
HETATM    7  N2  UNL     1      89.618  66.026   2.198  1.00  0.00    -0.071 N 
HETATM    8  C4  UNL     1      88.973  65.426   1.031  1.00  0.00     0.269 C 
ATOM      9  H22 UNL     1      89.204  66.916   2.477  1.00  0.00     0.277 HD
ATOM     10  H21 UNL     1      90.555  66.379   2.008  1.00  0.00     0.277 HD
ENDBRANCH   1   2
BRANCH   1  11
HETATM   11  N3  UNL     1      90.805  63.250  -1.451  1.00  0.00    -0.073 N 
ATOM     12  H32 UNL     1      91.676  63.679  -1.140  1.00  0.00     0.277 HD
ATOM     13  H31 UNL     1      90.945  62.308  -1.085  1.00  0.00     0.277 HD
BRANCH  11  14
HETATM   14  C7  UNL     1      90.720  63.238  -2.896  1.00  0.00     0.234 C 
BRANCH  14  15
HETATM   15  C8  UNL     1      89.268  63.124  -3.297  1.00  0.00     0.055 C 
BRANCH  15  16
HETATM   16  C9  UNL     1      88.928  61.679  -3.645  1.00  0.00     0.231 C 
BRANCH  16  17
HETATM   17  N4  UNL     1      88.189  61.049  -2.580  1.00  0.00    -0.079 N 
ATOM     18  H43 UNL     1      88.437  61.438  -1.670  1.00  0.00     0.274 HD
ATOM     19  H42 UNL     1      87.204  61.313  -2.599  1.00  0.00     0.274 HD
ATOM     20  H41 UNL     1      88.308  60.037  -2.599  1.00  0.00     0.274 HD
ENDBRANCH  16  17
ENDBRANCH  15  16
ENDBRANCH  14  15
ENDBRANCH  11  14
ENDBRANCH   1  11
TORSDOF 6
ENDMDL
MODEL 3
REMARK VINA RESULT: -4.532704334      8.563     11.944
REMARK  6 active torsions:
REMARK  status: ('A' for Active; 'I' for Inactive)
REMARK    1  A    between atoms: C5_9  and  C6_10 
REMARK    2  A    between atoms: C6_10  and  N3_11 
REMARK    3  A    between atoms: N3_11  and  C7_14 
REMARK    4  A    between atoms: C7_14  and  C8_15 
REMARK    5  A    between atoms: C8_15  and  C9_16 
REMARK    6  A    between atoms: C9_16  and  N4_17 
ROOT
HETATM    1  C6  UNL     1      90.194  73.242   3.729  1.00  0.00     0.269 C 
ENDROOT
BRANCH   1   2
HETATM    2  C5  UNL     1      90.440  72.728   2.359  1.00  0.00     0.273 C 
HETATM    3  N1  UNL     1      90.703  73.745   1.381  1.00  0.00     0.093 N 
HETATM    4  C1  UNL     1      89.626  74.694   1.232  1.00  0.00     0.310 C 
HETATM    5  C2  UNL     1      91.054  73.143   0.117  1.00  0.00     0.300 C 
HETATM    6  C3  UNL     1      90.103  72.057  -0.326  1.00  0.00     0.262 C 
HETATM    7  N2  UNL     1      90.015  71.073   0.720  1.00  0.00    -0.071 N 
HETATM    8  C4  UNL     1      89.402  71.749   1.863  1.00  0.00     0.269 C 
ATOM      9  H22 UNL     1      89.524  70.225   0.439  1.00  0.00     0.277 HD
ATOM     10  H21 UNL     1      90.908  70.633   0.940  1.00  0.00     0.277 HD
ENDBRANCH   1   2
BRANCH   1  11
HETATM   11  N3  UNL     1      88.961  72.777   4.312  1.00  0.00    -0.073 N 
ATOM     12  H32 UNL     1      88.281  72.539   3.590  1.00  0.00     0.277 HD
ATOM     13  H31 UNL     1      89.080  71.856   4.735  1.00  0.00     0.277 HD
BRANCH  11  14
HETATM   14  C7  UNL     1      88.403  73.716   5.261  1.00  0.00     0.234 C 
BRANCH  14  15
HETATM   15  C8  UNL     1      88.893  73.358   6.645  1.00  0.00     0.055 C 
BRANCH  15  16
HETATM   16  C9  UNL     1      88.741  74.549   7.584  1.00  0.00     0.231 C 
BRANCH  16  17
HETATM   17  N4  UNL     1      89.526  74.371   8.779  1.00  0.00    -0.079 N 
ATOM     18  H43 UNL     1      88.989  73.914   9.516  1.00  0.00     0.274 HD
ATOM     19  H42 UNL     1      90.249  73.662   8.652  1.00  0.00     0.274 HD
ATOM     20  H41 UNL     1      89.920  75.256   9.096  1.00  0.00     0.274 HD
ENDBRANCH  16  17
ENDBRANCH  15  16
ENDBRANCH  14  15
ENDBRANCH  11  14
ENDBRANCH   1  11
TORSDOF 6
ENDMDL
MODEL 4
REMARK VINA RESULT: -4.488838135      3.425      6.274
REMARK  6 active torsions:
REMARK  status: ('A' for Active; 'I' for Inactive)
REMARK    1  A    between atoms: C5_9  and  C6_10 
REMARK    2  A    between atoms: C6_10  and  N3_11 
REMARK    3  A    between atoms: N3_11  and  C7_14 
REMARK    4  A    between atoms: C7_14  and  C8_15 
REMARK    5  A    between atoms: C8_15  and  C9_16 
REMARK    6  A    between atoms: C9_16  and  N4_17 
ROOT
HETATM    1  C6  UNL     1      87.837  66.846   1.731  1.00  0.00     0.269 C 
ENDROOT
BRANCH   1   2
HETATM    2  C5  UNL     1      88.957  65.885   1.879  1.00  0.00     0.273 C 
HETATM    3  N1  UNL     1      88.862  64.726   1.037  1.00  0.00     0.093 N 
HETATM    4  C1  UNL     1      87.670  63.943   1.267  1.00  0.00     0.310 C 
HETATM    5  C2  UNL     1      90.053  63.921   1.159  1.00  0.00     0.300 C 
HETATM    6  C3  UNL     1      90.459  63.645   2.586  1.00  0.00     0.262 C 
HETATM    7  N2  UNL     1      90.601  64.902   3.272  1.00  0.00    -0.071 N 
HETATM    8  C4  UNL     1      89.266  65.498   3.306  1.00  0.00     0.269 C 
ATOM      9  H22 UNL     1      91.031  64.816   4.193  1.00  0.00     0.277 HD
ATOM     10  H21 UNL     1      91.307  65.512   2.860  1.00  0.00     0.277 HD
ENDBRANCH   1   2
BRANCH   1  11
HETATM   11  N3  UNL     1      87.601  67.649   2.904  1.00  0.00    -0.073 N 
ATOM     12  H32 UNL     1      87.973  67.196   3.739  1.00  0.00     0.277 HD
ATOM     13  H31 UNL     1      88.183  68.486   2.899  1.00  0.00     0.277 HD
BRANCH  11  14
HETATM   14  C7  UNL     1      86.205  67.988   3.077  1.00  0.00     0.234 C 
BRANCH  14  15
HETATM   15  C8  UNL     1      85.359  66.884   2.486  1.00  0.00     0.055 C 
BRANCH  15  16
HETATM   16  C9  UNL     1      83.994  66.842   3.162  1.00  0.00     0.231 C 
BRANCH  16  17
HETATM   17  N4  UNL     1      82.940  67.130   2.223  1.00  0.00    -0.079 N 
ATOM     18  H43 UNL     1      82.689  68.118   2.231  1.00  0.00     0.274 HD
ATOM     19  H42 UNL     1      83.266  67.060   1.259  1.00  0.00     0.274 HD
ATOM     20  H41 UNL     1      82.128  66.536   2.389  1.00  0.00     0.274 HD
ENDBRANCH  16  17
ENDBRANCH  15  16
ENDBRANCH  14  15
ENDBRANCH  11  14
ENDBRANCH   1  11
TORSDOF 6
ENDMDL
MODEL 5
REMARK VINA RESULT: -4.361170475      3.595      5.159
REMARK  6 active torsions:
REMARK  status: ('A' for Active; 'I' for Inactive)
REMARK    1  A    between atoms: C5_9  and  C6_10 
REMARK    2  A    between atoms: C6_10  and  N3_11 
REMARK    3  A    between atoms: N3_11  and  C7_14 
REMARK    4  A    between atoms: C7_14  and  C8_15 
REMARK    5  A    between atoms: C8_15  and  C9_16 
REMARK    6  A    between atoms: C9_16  and  N4_17 
ROOT
HETATM    1  C6  UNL     1      86.996  64.185   0.738  1.00  0.00     0.269 C 
ENDROOT
BRANCH   1   2
HETATM    2  C5  UNL     1      86.987  65.296   1.722  1.00  0.00     0.273 C 
HETATM    3  N1  UNL     1      85.676  65.729   2.116  1.00  0.00     0.093 N 
HETATM    4  C1  UNL     1      84.871  66.204   1.015  1.00  0.00     0.310 C 
HETATM    5  C2  UNL     1      85.770  66.717   3.164  1.00  0.00     0.300 C 
HETATM    6  C3  UNL     1      86.751  67.826   2.870  1.00  0.00     0.262 C 
HETATM    7  N2  UNL     1      88.033  67.237   2.583  1.00  0.00    -0.071 N 
HETATM    8  C4  UNL     1      87.861  66.470   1.350  1.00  0.00     0.269 C 
ATOM      9  H22 UNL     1      88.791  67.918   2.535  1.00  0.00     0.277 HD
ATOM     10  H21 UNL     1      88.408  66.687   3.355  1.00  0.00     0.277 HD
ENDBRANCH   1   2
BRANCH   1  11
HETATM   11  N3  UNL     1      87.471  62.936   1.278  1.00  0.00    -0.073 N 
ATOM     12  H32 UNL     1      87.160  62.811   2.241  1.00  0.00     0.277 HD
ATOM     13  H31 UNL     1      86.992  62.145   0.847  1.00  0.00     0.277 HD
BRANCH  11  14
HETATM   14  C7  UNL     1      88.907  62.792   1.174  1.00  0.00     0.234 C 
BRANCH  14  15
HETATM   15  C8  UNL     1      89.491  62.718   2.565  1.00  0.00     0.055 C 
BRANCH  15  16
HETATM   16  C9  UNL     1      90.318  63.964   2.860  1.00  0.00     0.231 C 
BRANCH  16  17
HETATM   17  N4  UNL     1      89.870  64.612   4.066  1.00  0.00    -0.079 N 
ATOM     18  H43 UNL     1      89.241  64.013   4.602  1.00  0.00     0.274 HD
ATOM     19  H42 UNL     1      90.623  64.696   4.749  1.00  0.00     0.274 HD
ATOM     20  H41 UNL     1      89.444  65.515   3.863  1.00  0.00     0.274 HD
ENDBRANCH  16  17
ENDBRANCH  15  16
ENDBRANCH  14  15
ENDBRANCH  11  14
ENDBRANCH   1  11
TORSDOF 6
ENDMDL
