MODEL 1
REMARK VINA RESULT: -4.713836683      0.000      0.000
REMARK  7 active torsions:
REMARK  status: ('A' for Active; 'I' for Inactive)
REMARK    1  A    between atoms: N1_2  and  C2_3 
REMARK    2  A    between atoms: N1_2  and  C4_9 
REMARK    3  A    between atoms: C2_3  and  C3_4 
REMARK    4  A    between atoms: C3_4  and  N2_5 
REMARK    5  A    between atoms: C4_9  and  C5_10 
REMARK    6  A    between atoms: C5_10  and  N3_11 
REMARK    7  A    between atoms: N3_11  and  C6_13 
ROOT
HETATM    1  C5  UNL     1      90.419  63.737   1.169  1.00  0.00     0.152 C 
ENDROOT
BRANCH   1   2
HETATM    2  C4  UNL     1      89.317  62.771   1.517  1.00  0.00     0.291 C 
BRANCH   2   3
HETATM    3  N1  UNL     1      88.111  62.989   0.778  1.00  0.00     0.087 N 
HETATM    4  C1  UNL     1      88.295  63.880  -0.352  1.00  0.00     0.310 C 
BRANCH   3   5
HETATM    5  C2  UNL     1      87.504  61.750   0.390  1.00  0.00     0.299 C 
BRANCH   5   6
HETATM    6  C3  UNL     1      86.999  61.700  -1.002  1.00  0.00     0.259 C 
BRANCH   6   7
HETATM    7  N2  UNL     1      85.705  61.038  -1.057  1.00  0.00    -0.078 N 
ATOM      8  H23 UNL     1      85.800  60.042  -1.251  1.00  0.00     0.274 HD
ATOM      9  H22 UNL     1      85.274  60.975  -0.134  1.00  0.00     0.274 HD
ATOM     10  H21 UNL     1      85.092  61.498  -1.730  1.00  0.00     0.274 HD
ENDBRANCH   6   7
ENDBRANCH   5   6
ENDBRANCH   3   5
ENDBRANCH   2   3
ENDBRANCH   1   2
BRANCH   1  11
HETATM   11  N3  UNL     1      90.851  64.514   2.312  1.00  0.00    -0.361 N 
ATOM     12  H3  UNL     1      91.801  64.438   2.674  1.00  0.00     0.162 HD
BRANCH  11  13
HETATM   13  C6  UNL     1      89.891  65.399   2.919  1.00  0.00     0.171 C 
HETATM   14  N4  UNL     1      89.630  65.496   4.166  1.00  0.00    -0.361 N 
HETATM   15  C7  UNL     1      88.611  66.486   4.437  1.00  0.00     0.142 C 
ATOM     16  H4  UNL     1      90.087  64.938   4.887  1.00  0.00     0.162 HD
HETATM   17  C8  UNL     1      88.086  66.878   3.094  1.00  0.00     0.142 C 
HETATM   18  N5  UNL     1      89.086  66.304   2.196  1.00  0.00    -0.361 N 
ATOM     19  H5  UNL     1      89.185  66.522   1.205  1.00  0.00     0.162 HD
ENDBRANCH  11  13
ENDBRANCH   1  11
TORSDOF 7
ENDMDL
MODEL 2
REMARK VINA RESULT: -4.575436025      6.216      9.642
REMARK  7 active torsions:
REMARK  status: ('A' for Active; 'I' for Inactive)
REMARK    1  A    between atoms: N1_2  and  C2_3 
REMARK    2  A    between atoms: N1_2  and  C4_9 
REMARK    3  A    between atoms: C2_3  and  C3_4 
REMARK    4  A    between atoms: C3_4  and  N2_5 
REMARK    5  A    between atoms: C4_9  and  C5_10 
REMARK    6  A    between atoms: C5_10  and  N3_11 
REMARK    7  A    between atoms: N3_11  and  C6_13 
ROOT
HETATM    1  C5  UNL     1      90.331  72.474   1.450  1.00  0.00     0.152 C 
ENDROOT
BRANCH   1   2
HETATM    2  C4  UNL     1      89.576  72.230   2.730  1.00  0.00     0.291 C 
BRANCH   2   3
HETATM    3  N1  UNL     1      90.001  73.064   3.813  1.00  0.00     0.087 N 
HETATM    4  C1  UNL     1      91.056  73.984   3.434  1.00  0.00     0.310 C 
BRANCH   3   5
HETATM    5  C2  UNL     1      88.893  73.739   4.420  1.00  0.00     0.299 C 
BRANCH   5   6
HETATM    6  C3  UNL     1      88.587  73.333   5.811  1.00  0.00     0.259 C 
BRANCH   6   7
HETATM    7  N2  UNL     1      88.595  74.486   6.698  1.00  0.00    -0.078 N 
ATOM      8  H23 UNL     1      87.891  75.173   6.430  1.00  0.00     0.274 HD
ATOM      9  H22 UNL     1      88.236  74.252   7.624  1.00  0.00     0.274 HD
ATOM     10  H21 UNL     1      89.526  74.898   6.747  1.00  0.00     0.274 HD
ENDBRANCH   6   7
ENDBRANCH   5   6
ENDBRANCH   3   5
ENDBRANCH   2   3
ENDBRANCH   1   2
BRANCH   1  11
HETATM   11  N3  UNL     1      89.530  72.196   0.277  1.00  0.00    -0.361 N 
ATOM     12  H3  UNL     1      89.304  72.930  -0.395  1.00  0.00     0.162 HD
BRANCH  11  13
HETATM   13  C6  UNL     1      89.063  70.847   0.092  1.00  0.00     0.171 C 
HETATM   14  N4  UNL     1      89.786  69.816  -0.120  1.00  0.00    -0.361 N 
HETATM   15  C7  UNL     1      88.995  68.612  -0.259  1.00  0.00     0.142 C 
ATOM     16  H4  UNL     1      90.804  69.838  -0.185  1.00  0.00     0.162 HD
HETATM   17  C8  UNL     1      87.578  69.084  -0.314  1.00  0.00     0.142 C 
HETATM   18  N5  UNL     1      87.703  70.473   0.121  1.00  0.00    -0.361 N 
ATOM     19  H5  UNL     1      86.930  71.077   0.402  1.00  0.00     0.162 HD
ENDBRANCH  11  13
ENDBRANCH   1  11
TORSDOF 7
ENDMDL
MODEL 3
REMARK VINA RESULT: -4.548659970      1.403      5.958
REMARK  7 active torsions:
REMARK  status: ('A' for Active; 'I' for Inactive)
REMARK    1  A    between atoms: N1_2  and  C2_3 
REMARK    2  A    between atoms: N1_2  and  C4_9 
REMARK    3  A    between atoms: C2_3  and  C3_4 
REMARK    4  A    between atoms: C3_4  and  N2_5 
REMARK    5  A    between atoms: C4_9  and  C5_10 
REMARK    6  A    between atoms: C5_10  and  N3_11 
REMARK    7  A    between atoms: N3_11  and  C6_13 
ROOT
HETATM    1  C5  UNL     1      88.266  62.519   0.950  1.00  0.00     0.152 C 
ENDROOT
BRANCH   1   2
HETATM    2  C4  UNL     1      89.410  62.440   1.926  1.00  0.00     0.291 C 
BRANCH   2   3
HETATM    3  N1  UNL     1      90.411  63.442   1.716  1.00  0.00     0.087 N 
HETATM    4  C1  UNL     1      90.173  64.235   0.525  1.00  0.00     0.310 C 
BRANCH   3   5
HETATM    5  C2  UNL     1      90.584  64.260   2.879  1.00  0.00     0.299 C 
BRANCH   5   6
HETATM    6  C3  UNL     1      89.721  65.463   2.942  1.00  0.00     0.259 C 
BRANCH   6   7
HETATM    7  N2  UNL     1      89.413  65.805   4.321  1.00  0.00    -0.078 N 
ATOM      8  H23 UNL     1      90.098  66.451   4.712  1.00  0.00     0.274 HD
ATOM      9  H22 UNL     1      88.586  66.400   4.387  1.00  0.00     0.274 HD
ATOM     10  H21 UNL     1      89.319  64.964   4.890  1.00  0.00     0.274 HD
ENDBRANCH   6   7
ENDBRANCH   5   6
ENDBRANCH   3   5
ENDBRANCH   2   3
ENDBRANCH   1   2
BRANCH   1  11
HETATM   11  N3  UNL     1      88.050  61.270   0.251  1.00  0.00    -0.361 N 
ATOM     12  H3  UNL     1      88.432  60.393   0.606  1.00  0.00     0.162 HD
BRANCH  11  13
HETATM   13  C6  UNL     1      87.279  61.310  -0.964  1.00  0.00     0.171 C 
HETATM   14  N4  UNL     1      87.739  61.340  -2.155  1.00  0.00    -0.361 N 
HETATM   15  C7  UNL     1      86.687  61.374  -3.148  1.00  0.00     0.142 C 
ATOM     16  H4  UNL     1      88.734  61.342  -2.381  1.00  0.00     0.162 HD
HETATM   17  C8  UNL     1      85.428  61.580  -2.371  1.00  0.00     0.142 C 
HETATM   18  N5  UNL     1      85.869  61.320  -1.002  1.00  0.00    -0.361 N 
ATOM     19  H5  UNL     1      85.255  61.170  -0.201  1.00  0.00     0.162 HD
ENDBRANCH  11  13
ENDBRANCH   1  11
TORSDOF 7
ENDMDL
MODEL 4
REMARK VINA RESULT: -4.536105156      6.675      7.932
REMARK  7 active torsions:
REMARK  status: ('A' for Active; 'I' for Inactive)
REMARK    1  A    between atoms: N1_2  and  C2_3 
REMARK    2  A    between atoms: N1_2  and  C4_9 
REMARK    3  A    between atoms: C2_3  and  C3_4 
REMARK    4  A    between atoms: C3_4  and  N2_5 
REMARK    5  A    between atoms: C4_9  and  C5_10 
REMARK    6  A    between atoms: C5_10  and  N3_11 
REMARK    7  A    between atoms: N3_11  and  C6_13 
ROOT
HETATM    1  C5  UNL     1      90.627  72.619   0.836  1.00  0.00     0.152 C 
ENDROOT
BRANCH   1   2
HETATM    2  C4  UNL     1      90.823  71.692  -0.335  1.00  0.00     0.291 C 
BRANCH   2   3
HETATM    3  N1  UNL     1      89.597  71.189  -0.877  1.00  0.00     0.087 N 
HETATM    4  C1  UNL     1      89.446  71.477  -2.290  1.00  0.00     0.310 C 
BRANCH   3   5
HETATM    5  C2  UNL     1      89.435  69.793  -0.594  1.00  0.00     0.299 C 
BRANCH   5   6
HETATM    6  C3  UNL     1      88.106  69.404  -0.069  1.00  0.00     0.259 C 
BRANCH   6   7
HETATM    7  N2  UNL     1      87.436  70.543   0.536  1.00  0.00    -0.078 N 
ATOM      8  H23 UNL     1      87.600  70.588   1.541  1.00  0.00     0.274 HD
ATOM      9  H22 UNL     1      87.875  71.425   0.269  1.00  0.00     0.274 HD
ATOM     10  H21 UNL     1      86.440  70.536   0.315  1.00  0.00     0.274 HD
ENDBRANCH   6   7
ENDBRANCH   5   6
ENDBRANCH   3   5
ENDBRANCH   2   3
ENDBRANCH   1   2
BRANCH   1  11
HETATM   11  N3  UNL     1      90.672  71.922   2.104  1.00  0.00    -0.361 N 
ATOM     12  H3  UNL     1      91.247  71.089   2.230  1.00  0.00     0.162 HD
BRANCH  11  13
HETATM   13  C6  UNL     1      89.873  72.445   3.182  1.00  0.00     0.171 C 
HETATM   14  N4  UNL     1      89.959  73.613   3.693  1.00  0.00    -0.361 N 
HETATM   15  C7  UNL     1      89.005  73.814   4.761  1.00  0.00     0.142 C 
ATOM     16  H4  UNL     1      90.625  74.321   3.383  1.00  0.00     0.162 HD
HETATM   17  C8  UNL     1      88.409  72.466   5.008  1.00  0.00     0.142 C 
HETATM   18  N5  UNL     1      88.859  71.716   3.837  1.00  0.00    -0.361 N 
ATOM     19  H5  UNL     1      88.497  70.810   3.540  1.00  0.00     0.162 HD
ENDBRANCH  11  13
ENDBRANCH   1  11
TORSDOF 7
ENDMDL
MODEL 5
REMARK VINA RESULT: -4.520858781      5.814      7.214
REMARK  7 active torsions:
REMARK  status: ('A' for Active; 'I' for Inactive)
REMARK    1  A    between atoms: N1_2  and  C2_3 
REMARK    2  A    between atoms: N1_2  and  C4_9 
REMARK    3  A    between atoms: C2_3  and  C3_4 
REMARK    4  A    between atoms: C3_4  and  N2_5 
REMARK    5  A    between atoms: C4_9  and  C5_10 
REMARK    6  A    between atoms: C5_10  and  N3_11 
REMARK    7  A    between atoms: N3_11  and  C6_13 
ROOT
HETATM    1  C5  UNL     1      90.461  70.962  -0.475  1.00  0.00     0.152 C 
ENDROOT
BRANCH   1   2
HETATM    2  C4  UNL     1      89.451  69.919  -0.874  1.00  0.00     0.291 C 
BRANCH   2   3
HETATM    3  N1  UNL     1      88.094  70.340  -0.700  1.00  0.00     0.087 N 
HETATM    4  C1  UNL     1      87.360  70.406  -1.949  1.00  0.00     0.310 C 
BRANCH   3   5
HETATM    5  C2  UNL     1      87.419  69.537   0.276  1.00  0.00     0.299 C 
BRANCH   5   6
HETATM    6  C3  UNL     1      86.889  68.246  -0.221  1.00  0.00     0.259 C 
BRANCH   6   7
HETATM    7  N2  UNL     1      85.502  68.070   0.177  1.00  0.00    -0.078 N 
ATOM      8  H23 UNL     1      85.214  68.769   0.861  1.00  0.00     0.274 HD
ATOM      9  H22 UNL     1      84.859  68.316  -0.575  1.00  0.00     0.274 HD
ATOM     10  H21 UNL     1      85.341  67.122   0.516  1.00  0.00     0.274 HD
ENDBRANCH   6   7
ENDBRANCH   5   6
ENDBRANCH   3   5
ENDBRANCH   2   3
ENDBRANCH   1   2
BRANCH   1  11
HETATM   11  N3  UNL     1      89.838  72.169   0.025  1.00  0.00    -0.361 N 
ATOM     12  H3  UNL     1      89.299  72.779  -0.589  1.00  0.00     0.162 HD
BRANCH  11  13
HETATM   13  C6  UNL     1      90.008  72.478   1.421  1.00  0.00     0.171 C 
HETATM   14  N4  UNL     1      89.299  72.039   2.388  1.00  0.00    -0.361 N 
HETATM   15  C7  UNL     1      89.741  72.547   3.668  1.00  0.00     0.142 C 
ATOM     16  H4  UNL     1      88.510  71.403   2.271  1.00  0.00     0.162 HD
HETATM   17  C8  UNL     1      90.758  73.592   3.338  1.00  0.00     0.142 C 
HETATM   18  N5  UNL     1      91.011  73.334   1.922  1.00  0.00    -0.361 N 
ATOM     19  H5  UNL     1      91.789  73.713   1.382  1.00  0.00     0.162 HD
ENDBRANCH  11  13
ENDBRANCH   1  11
TORSDOF 7
ENDMDL
