MODEL 1
REMARK VINA RESULT: -8.789833843      0.000      0.000
REMARK  16 active torsions:
REMARK  status: ('A' for Active; 'I' for Inactive)
REMARK    1  A    between atoms: C1_4  and  N2_5 
REMARK    2  A    between atoms: C1_4  and  C21_51 
REMARK    3  A    between atoms: N2_5  and  C2_7 
REMARK    4  A    between atoms: C4_9  and  N3_10 
REMARK    5  A    between atoms: C5_14  and  O1_15 
REMARK    6  A    between atoms: O1_15  and  C6_16 
REMARK    7  A    between atoms: C8_18  and  N4_19 
REMARK    8  A    between atoms: C10_24  and  N5_25 
REMARK    9  A    between atoms: C11_29  and  O2_30 
REMARK   10  A    between atoms: O2_30  and  C12_31 
REMARK   11  A    between atoms: C14_33  and  C15_34 
REMARK   12  A    between atoms: C15_34  and  N6_35 
REMARK   13  A    between atoms: C18_41  and  N7_42 
REMARK   14  A    between atoms: C19_47  and  C20_48 
REMARK   15  A    between atoms: C20_48  and  O4_49 
REMARK   16  A    between atoms: C24_54  and  O5_55 
ROOT
HETATM    1  C6  UNL     1      -6.314  27.897  26.252  1.00  0.00     0.157 C 
HETATM    2  C7  UNL     1      -5.986  29.357  25.964  1.00  0.00     0.067 C 
HETATM    3  C8  UNL     1      -7.200  30.168  25.645  1.00  0.00     0.188 C 
HETATM    4  C9  UNL     1      -8.165  29.496  24.699  1.00  0.00     0.068 C 
HETATM    5  C10 UNL     1      -8.391  28.054  25.052  1.00  0.00     0.216 C 
HETATM    6  C11 UNL     1      -7.107  27.257  25.140  1.00  0.00     0.181 C 
ENDROOT
BRANCH   1   7
HETATM    7  O1  UNL     1      -5.186  27.241  26.651  1.00  0.00    -0.351 OA
BRANCH   7   8
HETATM    8  C5  UNL     1      -4.680  27.686  27.903  1.00  0.00     0.291 C 
HETATM    9  C4  UNL     1      -3.323  28.288  27.728  1.00  0.00     0.240 C 
HETATM   10  C3  UNL     1      -2.514  28.027  28.986  1.00  0.00     0.065 C 
HETATM   11  C2  UNL     1      -2.360  26.505  29.107  1.00  0.00     0.116 C 
HETATM   12  C19 UNL     1      -3.685  25.843  28.980  1.00  0.00     0.170 C 
HETATM   13  O3  UNL     1      -4.735  26.686  28.781  1.00  0.00    -0.350 OA
BRANCH   9  14
HETATM   14  N3  UNL     1      -2.646  27.661  26.608  1.00  0.00    -0.070 N 
ATOM     15  H33 UNL     1      -2.139  26.818  26.879  1.00  0.00     0.274 HD
ATOM     16  H32 UNL     1      -3.295  27.227  25.952  1.00  0.00     0.274 HD
ATOM     17  H31 UNL     1      -2.045  28.354  26.164  1.00  0.00     0.274 HD
ENDBRANCH   9  14
BRANCH  11  18
HETATM   18  N2  UNL     1      -1.617  26.238  30.280  1.00  0.00    -0.367 N 
ATOM     19  H2  UNL     1      -2.078  25.831  31.093  1.00  0.00     0.161 HD
BRANCH  18  20
HETATM   20  C1  UNL     1      -0.231  26.536  30.327  1.00  0.00     0.129 C 
HETATM   21  N1  UNL     1       0.569  26.240  29.351  1.00  0.00    -0.383 N 
ATOM     22  H12 UNL     1       0.188  25.779  28.524  1.00  0.00     0.157 HD
ATOM     23  H11 UNL     1       1.565  26.454  29.384  1.00  0.00     0.157 HD
BRANCH  20  24
HETATM   24  C21 UNL     1       0.314  27.195  31.511  1.00  0.00     0.121 A 
HETATM   25  C22 UNL     1       0.148  28.532  31.789  1.00  0.00     0.046 A 
HETATM   26  C23 UNL     1       0.802  28.766  32.978  1.00  0.00     0.067 A 
HETATM   27  C24 UNL     1       1.320  27.535  33.331  1.00  0.00     0.183 A 
HETATM   28  O6  UNL     1       1.027  26.617  32.460  1.00  0.00    -0.284 OA
BRANCH  27  29
HETATM   29  O5  UNL     1       2.071  27.276  34.477  1.00  0.00    -0.341 OA
ATOM     30  H5  UNL     1       3.020  27.303  34.529  1.00  0.00     0.220 HD
ENDBRANCH  27  29
ENDBRANCH  20  24
ENDBRANCH  18  20
ENDBRANCH  11  18
BRANCH  12  31
HETATM   31  C20 UNL     1      -3.979  24.778  30.021  1.00  0.00     0.198 C 
BRANCH  31  32
HETATM   32  O4  UNL     1      -4.438  25.273  31.222  1.00  0.00    -0.398 OA
ATOM     33  H4  UNL     1      -3.878  25.076  31.964  1.00  0.00     0.209 HD
ENDBRANCH  31  32
ENDBRANCH  12  31
ENDBRANCH   7   8
ENDBRANCH   1   7
BRANCH   6  34
HETATM   34  O2  UNL     1      -6.460  26.962  24.018  1.00  0.00    -0.374 OA
BRANCH  34  35
HETATM   35  C12 UNL     1      -5.665  27.815  23.363  1.00  0.00     0.152 C 
HETATM   36  C13 UNL     1      -4.498  27.034  22.762  1.00  0.00     0.040 C 
HETATM   37  C14 UNL     1      -4.971  25.940  21.843  1.00  0.00     0.013 C 
HETATM   38  C16 UNL     1      -5.933  26.429  20.796  1.00  0.00     0.008 C 
HETATM   39  C17 UNL     1      -7.021  27.299  21.402  1.00  0.00     0.036 C 
HETATM   40  C18 UNL     1      -6.339  28.418  22.108  1.00  0.00     0.212 C 
BRANCH  37  41
HETATM   41  C15 UNL     1      -3.751  25.403  21.123  1.00  0.00     0.234 C 
BRANCH  41  42
HETATM   42  N6  UNL     1      -3.870  25.415  19.692  1.00  0.00    -0.079 N 
ATOM     43  H63 UNL     1      -4.239  24.526  19.355  1.00  0.00     0.274 HD
ATOM     44  H62 UNL     1      -4.624  26.036  19.399  1.00  0.00     0.274 HD
ATOM     45  H61 UNL     1      -3.004  25.650  19.209  1.00  0.00     0.274 HD
ENDBRANCH  41  42
ENDBRANCH  37  41
BRANCH  40  46
HETATM   46  N7  UNL     1      -5.255  28.927  21.290  1.00  0.00    -0.073 N 
ATOM     47  H73 UNL     1      -4.915  28.258  20.598  1.00  0.00     0.274 HD
ATOM     48  H72 UNL     1      -5.544  29.648  20.629  1.00  0.00     0.274 HD
ATOM     49  H71 UNL     1      -4.539  29.237  21.947  1.00  0.00     0.274 HD
ENDBRANCH  40  46
ENDBRANCH  34  35
ENDBRANCH   6  34
BRANCH   3  50
HETATM   50  N4  UNL     1      -7.897  30.514  26.875  1.00  0.00    -0.075 N 
ATOM     51  H43 UNL     1      -7.519  30.020  27.683  1.00  0.00     0.274 HD
ATOM     52  H42 UNL     1      -7.694  31.467  27.176  1.00  0.00     0.274 HD
ATOM     53  H41 UNL     1      -8.898  30.353  26.761  1.00  0.00     0.274 HD
ENDBRANCH   3  50
BRANCH   5  54
HETATM   54  N5  UNL     1      -9.437  27.470  24.304  1.00  0.00    -0.072 N 
ATOM     55  H53 UNL     1      -9.339  27.681  23.311  1.00  0.00     0.274 HD
ATOM     56  H52 UNL     1      -9.340  26.455  24.266  1.00  0.00     0.274 HD
ATOM     57  H51 UNL     1     -10.360  27.738  24.646  1.00  0.00     0.274 HD
ENDBRANCH   5  54
TORSDOF 16
ENDMDL
MODEL 2
REMARK VINA RESULT: -8.702856935      2.626      5.330
REMARK  16 active torsions:
REMARK  status: ('A' for Active; 'I' for Inactive)
REMARK    1  A    between atoms: C1_4  and  N2_5 
REMARK    2  A    between atoms: C1_4  and  C21_51 
REMARK    3  A    between atoms: N2_5  and  C2_7 
REMARK    4  A    between atoms: C4_9  and  N3_10 
REMARK    5  A    between atoms: C5_14  and  O1_15 
REMARK    6  A    between atoms: O1_15  and  C6_16 
REMARK    7  A    between atoms: C8_18  and  N4_19 
REMARK    8  A    between atoms: C10_24  and  N5_25 
REMARK    9  A    between atoms: C11_29  and  O2_30 
REMARK   10  A    between atoms: O2_30  and  C12_31 
REMARK   11  A    between atoms: C14_33  and  C15_34 
REMARK   12  A    between atoms: C15_34  and  N6_35 
REMARK   13  A    between atoms: C18_41  and  N7_42 
REMARK   14  A    between atoms: C19_47  and  C20_48 
REMARK   15  A    between atoms: C20_48  and  O4_49 
REMARK   16  A    between atoms: C24_54  and  O5_55 
ROOT
HETATM    1  C6  UNL     1      -6.525  28.010  22.737  1.00  0.00     0.157 C 
HETATM    2  C7  UNL     1      -6.454  26.910  21.685  1.00  0.00     0.067 C 
HETATM    3  C8  UNL     1      -6.478  27.445  20.290  1.00  0.00     0.188 C 
HETATM    4  C9  UNL     1      -7.499  28.533  20.060  1.00  0.00     0.068 C 
HETATM    5  C10 UNL     1      -7.509  29.544  21.170  1.00  0.00     0.216 C 
HETATM    6  C11 UNL     1      -7.709  28.922  22.536  1.00  0.00     0.181 C 
ENDROOT
BRANCH   1   7
HETATM    7  O1  UNL     1      -6.379  27.467  23.981  1.00  0.00    -0.351 OA
BRANCH   7   8
HETATM    8  C5  UNL     1      -5.058  27.573  24.498  1.00  0.00     0.291 C 
HETATM    9  C4  UNL     1      -4.695  26.331  25.246  1.00  0.00     0.240 C 
HETATM   10  C3  UNL     1      -3.752  26.706  26.375  1.00  0.00     0.065 C 
HETATM   11  C2  UNL     1      -4.533  27.632  27.317  1.00  0.00     0.116 C 
HETATM   12  C19 UNL     1      -5.170  28.731  26.545  1.00  0.00     0.170 C 
HETATM   13  O3  UNL     1      -4.949  28.698  25.203  1.00  0.00    -0.350 OA
BRANCH   9  14
HETATM   14  N3  UNL     1      -5.887  25.736  25.822  1.00  0.00    -0.070 N 
ATOM     15  H33 UNL     1      -5.691  24.864  26.313  1.00  0.00     0.274 HD
ATOM     16  H32 UNL     1      -6.244  26.266  26.617  1.00  0.00     0.274 HD
ATOM     17  H31 UNL     1      -6.581  25.623  25.083  1.00  0.00     0.274 HD
ENDBRANCH   9  14
BRANCH  11  18
HETATM   18  N2  UNL     1      -3.669  28.003  28.372  1.00  0.00    -0.367 N 
ATOM     19  H2  UNL     1      -3.388  28.977  28.482  1.00  0.00     0.161 HD
BRANCH  18  20
HETATM   20  C1  UNL     1      -3.192  27.022  29.280  1.00  0.00     0.129 C 
HETATM   21  N1  UNL     1      -3.994  26.226  29.914  1.00  0.00    -0.383 N 
ATOM     22  H12 UNL     1      -4.999  26.308  29.755  1.00  0.00     0.157 HD
ATOM     23  H11 UNL     1      -3.652  25.521  30.567  1.00  0.00     0.157 HD
BRANCH  20  24
HETATM   24  C21 UNL     1      -1.754  26.905  29.507  1.00  0.00     0.121 A 
HETATM   25  C22 UNL     1      -1.173  26.888  30.753  1.00  0.00     0.046 A 
HETATM   26  C23 UNL     1       0.183  26.767  30.549  1.00  0.00     0.067 A 
HETATM   27  C24 UNL     1       0.318  26.719  29.176  1.00  0.00     0.183 A 
HETATM   28  O6  UNL     1      -0.828  26.801  28.571  1.00  0.00    -0.284 OA
BRANCH  27  29
HETATM   29  O5  UNL     1       1.526  26.598  28.489  1.00  0.00    -0.341 OA
ATOM     30  H5  UNL     1       1.714  25.951  27.819  1.00  0.00     0.220 HD
ENDBRANCH  27  29
ENDBRANCH  20  24
ENDBRANCH  18  20
ENDBRANCH  11  18
BRANCH  12  31
HETATM   31  C20 UNL     1      -4.995  30.120  27.132  1.00  0.00     0.198 C 
BRANCH  31  32
HETATM   32  O4  UNL     1      -3.738  30.656  26.950  1.00  0.00    -0.398 OA
ATOM     33  H4  UNL     1      -3.535  30.874  26.048  1.00  0.00     0.209 HD
ENDBRANCH  31  32
ENDBRANCH  12  31
ENDBRANCH   7   8
ENDBRANCH   1   7
BRANCH   6  34
HETATM   34  O2  UNL     1      -8.908  28.446  22.852  1.00  0.00    -0.374 OA
BRANCH  34  35
HETATM   35  C12 UNL     1      -9.580  28.778  23.959  1.00  0.00     0.152 C 
HETATM   36  C13 UNL     1     -10.534  29.925  23.629  1.00  0.00     0.040 C 
HETATM   37  C14 UNL     1     -11.486  29.559  22.521  1.00  0.00     0.013 C 
HETATM   38  C16 UNL     1     -12.210  28.267  22.774  1.00  0.00     0.008 C 
HETATM   39  C17 UNL     1     -11.256  27.169  23.213  1.00  0.00     0.036 C 
HETATM   40  C18 UNL     1     -10.551  27.667  24.426  1.00  0.00     0.212 C 
BRANCH  37  41
HETATM   41  C15 UNL     1     -12.528  30.657  22.448  1.00  0.00     0.234 C 
BRANCH  41  42
HETATM   42  N6  UNL     1     -13.611  30.491  23.376  1.00  0.00    -0.079 N 
ATOM     43  H63 UNL     1     -14.367  29.952  22.952  1.00  0.00     0.274 HD
ATOM     44  H62 UNL     1     -13.346  29.854  24.127  1.00  0.00     0.274 HD
ATOM     45  H61 UNL     1     -13.965  31.368  23.757  1.00  0.00     0.274 HD
ENDBRANCH  41  42
ENDBRANCH  37  41
BRANCH  40  46
HETATM   46  N7  UNL     1     -11.496  28.322  25.310  1.00  0.00    -0.073 N 
ATOM     47  H73 UNL     1     -11.097  29.106  25.826  1.00  0.00     0.274 HD
ATOM     48  H72 UNL     1     -12.215  28.853  24.819  1.00  0.00     0.274 HD
ATOM     49  H71 UNL     1     -11.868  27.584  25.908  1.00  0.00     0.274 HD
ENDBRANCH  40  46
ENDBRANCH  34  35
ENDBRANCH   6  34
BRANCH   3  50
HETATM   50  N4  UNL     1      -5.157  27.944  19.931  1.00  0.00    -0.075 N 
ATOM     51  H43 UNL     1      -4.884  28.746  20.499  1.00  0.00     0.274 HD
ATOM     52  H42 UNL     1      -4.416  27.303  20.214  1.00  0.00     0.274 HD
ATOM     53  H41 UNL     1      -5.127  28.151  18.933  1.00  0.00     0.274 HD
ENDBRANCH   3  50
BRANCH   5  54
HETATM   54  N5  UNL     1      -8.312  30.667  20.873  1.00  0.00    -0.072 N 
ATOM     55  H53 UNL     1      -9.102  30.407  20.283  1.00  0.00     0.274 HD
ATOM     56  H52 UNL     1      -8.821  30.983  21.698  1.00  0.00     0.274 HD
ATOM     57  H51 UNL     1      -7.778  31.431  20.456  1.00  0.00     0.274 HD
ENDBRANCH   5  54
TORSDOF 16
ENDMDL
MODEL 3
REMARK VINA RESULT: -8.456031799      2.420      4.819
REMARK  16 active torsions:
REMARK  status: ('A' for Active; 'I' for Inactive)
REMARK    1  A    between atoms: C1_4  and  N2_5 
REMARK    2  A    between atoms: C1_4  and  C21_51 
REMARK    3  A    between atoms: N2_5  and  C2_7 
REMARK    4  A    between atoms: C4_9  and  N3_10 
REMARK    5  A    between atoms: C5_14  and  O1_15 
REMARK    6  A    between atoms: O1_15  and  C6_16 
REMARK    7  A    between atoms: C8_18  and  N4_19 
REMARK    8  A    between atoms: C10_24  and  N5_25 
REMARK    9  A    between atoms: C11_29  and  O2_30 
REMARK   10  A    between atoms: O2_30  and  C12_31 
REMARK   11  A    between atoms: C14_33  and  C15_34 
REMARK   12  A    between atoms: C15_34  and  N6_35 
REMARK   13  A    between atoms: C18_41  and  N7_42 
REMARK   14  A    between atoms: C19_47  and  C20_48 
REMARK   15  A    between atoms: C20_48  and  O4_49 
REMARK   16  A    between atoms: C24_54  and  O5_55 
ROOT
HETATM    1  C6  UNL     1      -4.889  27.335  23.016  1.00  0.00     0.157 C 
HETATM    2  C7  UNL     1      -4.758  25.819  22.950  1.00  0.00     0.067 C 
HETATM    3  C8  UNL     1      -4.441  25.327  21.575  1.00  0.00     0.188 C 
HETATM    4  C9  UNL     1      -5.249  25.981  20.481  1.00  0.00     0.068 C 
HETATM    5  C10 UNL     1      -5.343  27.469  20.659  1.00  0.00     0.216 C 
HETATM    6  C11 UNL     1      -5.883  27.870  22.016  1.00  0.00     0.181 C 
ENDROOT
BRANCH   1   7
HETATM    7  O1  UNL     1      -5.059  27.728  24.312  1.00  0.00    -0.351 OA
BRANCH   7   8
HETATM    8  C5  UNL     1      -4.274  26.988  25.239  1.00  0.00     0.291 C 
HETATM    9  C4  UNL     1      -5.114  25.951  25.915  1.00  0.00     0.240 C 
HETATM   10  C3  UNL     1      -4.589  25.750  27.325  1.00  0.00     0.065 C 
HETATM   11  C2  UNL     1      -4.774  27.083  28.062  1.00  0.00     0.116 C 
HETATM   12  C19 UNL     1      -4.206  28.197  27.259  1.00  0.00     0.170 C 
HETATM   13  O3  UNL     1      -3.659  27.831  26.067  1.00  0.00    -0.350 OA
BRANCH   9  14
HETATM   14  N3  UNL     1      -6.489  26.407  25.997  1.00  0.00    -0.070 N 
ATOM     15  H33 UNL     1      -7.144  25.645  26.169  1.00  0.00     0.274 HD
ATOM     16  H32 UNL     1      -6.673  26.943  26.845  1.00  0.00     0.274 HD
ATOM     17  H31 UNL     1      -6.708  26.929  25.149  1.00  0.00     0.274 HD
ENDBRANCH   9  14
BRANCH  11  18
HETATM   18  N2  UNL     1      -4.281  26.921  29.377  1.00  0.00    -0.367 N 
ATOM     19  H2  UNL     1      -4.618  27.526  30.126  1.00  0.00     0.161 HD
BRANCH  18  20
HETATM   20  C1  UNL     1      -3.317  25.918  29.657  1.00  0.00     0.129 C 
HETATM   21  N1  UNL     1      -3.646  24.673  29.807  1.00  0.00    -0.383 N 
ATOM     22  H12 UNL     1      -4.627  24.408  29.720  1.00  0.00     0.157 HD
ATOM     23  H11 UNL     1      -2.953  23.952  30.008  1.00  0.00     0.157 HD
BRANCH  20  24
HETATM   24  C21 UNL     1      -1.913  26.298  29.782  1.00  0.00     0.121 A 
HETATM   25  C22 UNL     1      -1.323  26.681  30.963  1.00  0.00     0.046 A 
HETATM   26  C23 UNL     1      -0.006  26.957  30.670  1.00  0.00     0.067 A 
HETATM   27  C24 UNL     1       0.099  26.715  29.314  1.00  0.00     0.183 A 
HETATM   28  O6  UNL     1      -1.029  26.328  28.801  1.00  0.00    -0.284 OA
BRANCH  27  29
HETATM   29  O5  UNL     1       1.262  26.861  28.559  1.00  0.00    -0.341 OA
ATOM     30  H5  UNL     1       2.026  27.364  28.818  1.00  0.00     0.220 HD
ENDBRANCH  27  29
ENDBRANCH  20  24
ENDBRANCH  18  20
ENDBRANCH  11  18
BRANCH  12  31
HETATM   31  C20 UNL     1      -3.331  29.170  28.029  1.00  0.00     0.198 C 
BRANCH  31  32
HETATM   32  O4  UNL     1      -3.384  30.467  27.566  1.00  0.00    -0.398 OA
ATOM     33  H4  UNL     1      -3.037  31.111  28.172  1.00  0.00     0.209 HD
ENDBRANCH  31  32
ENDBRANCH  12  31
ENDBRANCH   7   8
ENDBRANCH   1   7
BRANCH   6  34
HETATM   34  O2  UNL     1      -7.172  27.678  22.272  1.00  0.00    -0.374 OA
BRANCH  34  35
HETATM   35  C12 UNL     1      -8.151  28.484  21.848  1.00  0.00     0.152 C 
HETATM   36  C13 UNL     1      -9.488  27.935  22.343  1.00  0.00     0.040 C 
HETATM   37  C14 UNL     1      -9.519  27.809  23.843  1.00  0.00     0.013 C 
HETATM   38  C16 UNL     1      -9.124  29.077  24.547  1.00  0.00     0.008 C 
HETATM   39  C17 UNL     1      -7.853  29.667  23.961  1.00  0.00     0.036 C 
HETATM   40  C18 UNL     1      -8.103  29.882  22.509  1.00  0.00     0.212 C 
BRANCH  37  41
HETATM   41  C15 UNL     1     -10.949  27.499  24.235  1.00  0.00     0.234 C 
BRANCH  41  42
HETATM   42  N6  UNL     1     -11.415  28.247  25.369  1.00  0.00    -0.079 N 
ATOM     43  H63 UNL     1     -11.182  29.235  25.267  1.00  0.00     0.274 HD
ATOM     44  H62 UNL     1     -12.433  28.310  25.364  1.00  0.00     0.274 HD
ATOM     45  H61 UNL     1     -11.082  27.889  26.263  1.00  0.00     0.274 HD
ENDBRANCH  41  42
ENDBRANCH  37  41
BRANCH  40  46
HETATM   46  N7  UNL     1      -9.424  30.449  22.317  1.00  0.00    -0.073 N 
ATOM     47  H73 UNL     1      -9.787  30.332  21.371  1.00  0.00     0.274 HD
ATOM     48  H72 UNL     1     -10.164  29.934  22.794  1.00  0.00     0.274 HD
ATOM     49  H71 UNL     1      -9.350  31.423  22.610  1.00  0.00     0.274 HD
ENDBRANCH  40  46
ENDBRANCH  34  35
ENDBRANCH   6  34
BRANCH   3  50
HETATM   50  N4  UNL     1      -3.023  25.512  21.301  1.00  0.00    -0.075 N 
ATOM     51  H43 UNL     1      -2.586  26.156  21.960  1.00  0.00     0.274 HD
ATOM     52  H42 UNL     1      -2.478  24.680  21.523  1.00  0.00     0.274 HD
ATOM     53  H41 UNL     1      -2.896  25.808  20.333  1.00  0.00     0.274 HD
ENDBRANCH   3  50
BRANCH   5  54
HETATM   54  N5  UNL     1      -5.921  28.113  19.543  1.00  0.00    -0.072 N 
ATOM     55  H53 UNL     1      -6.927  27.953  19.507  1.00  0.00     0.274 HD
ATOM     56  H52 UNL     1      -5.921  29.126  19.663  1.00  0.00     0.274 HD
ATOM     57  H51 UNL     1      -5.475  27.848  18.664  1.00  0.00     0.274 HD
ENDBRANCH   5  54
TORSDOF 16
ENDMDL
MODEL 4
REMARK VINA RESULT: -8.432383483      2.671      5.145
REMARK  16 active torsions:
REMARK  status: ('A' for Active; 'I' for Inactive)
REMARK    1  A    between atoms: C1_4  and  N2_5 
REMARK    2  A    between atoms: C1_4  and  C21_51 
REMARK    3  A    between atoms: N2_5  and  C2_7 
REMARK    4  A    between atoms: C4_9  and  N3_10 
REMARK    5  A    between atoms: C5_14  and  O1_15 
REMARK    6  A    between atoms: O1_15  and  C6_16 
REMARK    7  A    between atoms: C8_18  and  N4_19 
REMARK    8  A    between atoms: C10_24  and  N5_25 
REMARK    9  A    between atoms: C11_29  and  O2_30 
REMARK   10  A    between atoms: O2_30  and  C12_31 
REMARK   11  A    between atoms: C14_33  and  C15_34 
REMARK   12  A    between atoms: C15_34  and  N6_35 
REMARK   13  A    between atoms: C18_41  and  N7_42 
REMARK   14  A    between atoms: C19_47  and  C20_48 
REMARK   15  A    between atoms: C20_48  and  O4_49 
REMARK   16  A    between atoms: C24_54  and  O5_55 
ROOT
HETATM    1  C6  UNL     1      -6.502  28.031  22.761  1.00  0.00     0.157 C 
HETATM    2  C7  UNL     1      -6.519  26.930  21.708  1.00  0.00     0.067 C 
HETATM    3  C8  UNL     1      -6.561  27.465  20.314  1.00  0.00     0.188 C 
HETATM    4  C9  UNL     1      -7.535  28.602  20.115  1.00  0.00     0.068 C 
HETATM    5  C10 UNL     1      -7.460  29.612  21.224  1.00  0.00     0.216 C 
HETATM    6  C11 UNL     1      -7.646  29.000  22.596  1.00  0.00     0.181 C 
ENDROOT
BRANCH   1   7
HETATM    7  O1  UNL     1      -6.343  27.482  24.000  1.00  0.00    -0.351 OA
BRANCH   7   8
HETATM    8  C5  UNL     1      -5.021  27.601  24.511  1.00  0.00     0.291 C 
HETATM    9  C4  UNL     1      -4.638  26.358  25.248  1.00  0.00     0.240 C 
HETATM   10  C3  UNL     1      -3.694  26.737  26.375  1.00  0.00     0.065 C 
HETATM   11  C2  UNL     1      -4.483  27.645  27.327  1.00  0.00     0.116 C 
HETATM   12  C19 UNL     1      -5.138  28.742  26.568  1.00  0.00     0.170 C 
HETATM   13  O3  UNL     1      -4.923  28.722  25.224  1.00  0.00    -0.350 OA
BRANCH   9  14
HETATM   14  N3  UNL     1      -5.819  25.743  25.825  1.00  0.00    -0.070 N 
ATOM     15  H33 UNL     1      -6.518  26.429  26.109  1.00  0.00     0.274 HD
ATOM     16  H32 UNL     1      -6.382  25.250  25.131  1.00  0.00     0.274 HD
ATOM     17  H31 UNL     1      -5.527  25.139  26.593  1.00  0.00     0.274 HD
ENDBRANCH   9  14
BRANCH  11  18
HETATM   18  N2  UNL     1      -3.619  28.019  28.382  1.00  0.00    -0.367 N 
ATOM     19  H2  UNL     1      -3.330  28.992  28.482  1.00  0.00     0.161 HD
BRANCH  18  20
HETATM   20  C1  UNL     1      -3.152  27.043  29.300  1.00  0.00     0.129 C 
HETATM   21  N1  UNL     1      -3.962  26.260  29.940  1.00  0.00    -0.383 N 
ATOM     22  H12 UNL     1      -4.965  26.349  29.778  1.00  0.00     0.157 HD
ATOM     23  H11 UNL     1      -3.627  25.558  30.600  1.00  0.00     0.157 HD
BRANCH  20  24
HETATM   24  C21 UNL     1      -1.716  26.916  29.532  1.00  0.00     0.121 A 
HETATM   25  C22 UNL     1      -1.139  26.892  30.780  1.00  0.00     0.046 A 
HETATM   26  C23 UNL     1       0.217  26.763  30.580  1.00  0.00     0.067 A 
HETATM   27  C24 UNL     1       0.357  26.719  29.207  1.00  0.00     0.183 A 
HETATM   28  O6  UNL     1      -0.787  26.810  28.599  1.00  0.00    -0.284 OA
BRANCH  27  29
HETATM   29  O5  UNL     1       1.567  26.593  28.525  1.00  0.00    -0.341 OA
ATOM     30  H5  UNL     1       1.697  26.774  27.601  1.00  0.00     0.220 HD
ENDBRANCH  27  29
ENDBRANCH  20  24
ENDBRANCH  18  20
ENDBRANCH  11  18
BRANCH  12  31
HETATM   31  C20 UNL     1      -4.978  30.128  27.165  1.00  0.00     0.198 C 
BRANCH  31  32
HETATM   32  O4  UNL     1      -3.727  30.678  26.989  1.00  0.00    -0.398 OA
ATOM     33  H4  UNL     1      -3.587  31.488  27.466  1.00  0.00     0.209 HD
ENDBRANCH  31  32
ENDBRANCH  12  31
ENDBRANCH   7   8
ENDBRANCH   1   7
BRANCH   6  34
HETATM   34  O2  UNL     1      -8.856  28.584  22.951  1.00  0.00    -0.374 OA
BRANCH  34  35
HETATM   35  C12 UNL     1      -9.995  29.168  22.562  1.00  0.00     0.152 C 
HETATM   36  C13 UNL     1     -11.011  28.080  22.220  1.00  0.00     0.040 C 
HETATM   37  C14 UNL     1     -11.259  27.160  23.386  1.00  0.00     0.013 C 
HETATM   38  C16 UNL     1     -11.611  27.895  24.649  1.00  0.00     0.008 C 
HETATM   39  C17 UNL     1     -10.653  29.046  24.908  1.00  0.00     0.036 C 
HETATM   40  C18 UNL     1     -10.700  29.928  23.710  1.00  0.00     0.212 C 
BRANCH  37  41
HETATM   41  C15 UNL     1     -12.445  26.289  23.022  1.00  0.00     0.234 C 
BRANCH  41  42
HETATM   42  N6  UNL     1     -13.354  26.905  22.097  1.00  0.00    -0.079 N 
ATOM     43  H63 UNL     1     -13.059  27.857  21.883  1.00  0.00     0.274 HD
ATOM     44  H62 UNL     1     -13.263  26.485  21.172  1.00  0.00     0.274 HD
ATOM     45  H61 UNL     1     -14.326  26.890  22.403  1.00  0.00     0.274 HD
ENDBRANCH  41  42
ENDBRANCH  37  41
BRANCH  40  46
HETATM   46  N7  UNL     1     -12.074  30.098  23.278  1.00  0.00    -0.073 N 
ATOM     47  H73 UNL     1     -12.164  30.511  22.350  1.00  0.00     0.274 HD
ATOM     48  H72 UNL     1     -12.548  29.220  23.065  1.00  0.00     0.274 HD
ATOM     49  H71 UNL     1     -12.528  30.640  24.014  1.00  0.00     0.274 HD
ENDBRANCH  40  46
ENDBRANCH  34  35
ENDBRANCH   6  34
BRANCH   3  50
HETATM   50  N4  UNL     1      -5.231  27.899  19.912  1.00  0.00    -0.075 N 
ATOM     51  H43 UNL     1      -4.499  27.451  20.464  1.00  0.00     0.274 HD
ATOM     52  H42 UNL     1      -4.969  27.534  18.997  1.00  0.00     0.274 HD
ATOM     53  H41 UNL     1      -5.173  28.916  19.952  1.00  0.00     0.274 HD
ENDBRANCH   3  50
BRANCH   5  54
HETATM   54  N5  UNL     1      -8.215  30.774  20.951  1.00  0.00    -0.072 N 
ATOM     55  H53 UNL     1      -9.192  30.646  21.216  1.00  0.00     0.274 HD
ATOM     56  H52 UNL     1      -7.970  31.529  21.590  1.00  0.00     0.274 HD
ATOM     57  H51 UNL     1      -8.134  31.074  19.979  1.00  0.00     0.274 HD
ENDBRANCH   5  54
TORSDOF 16
ENDMDL
MODEL 5
REMARK VINA RESULT: -8.371135729      2.397      4.724
REMARK  16 active torsions:
REMARK  status: ('A' for Active; 'I' for Inactive)
REMARK    1  A    between atoms: C1_4  and  N2_5 
REMARK    2  A    between atoms: C1_4  and  C21_51 
REMARK    3  A    between atoms: N2_5  and  C2_7 
REMARK    4  A    between atoms: C4_9  and  N3_10 
REMARK    5  A    between atoms: C5_14  and  O1_15 
REMARK    6  A    between atoms: O1_15  and  C6_16 
REMARK    7  A    between atoms: C8_18  and  N4_19 
REMARK    8  A    between atoms: C10_24  and  N5_25 
REMARK    9  A    between atoms: C11_29  and  O2_30 
REMARK   10  A    between atoms: O2_30  and  C12_31 
REMARK   11  A    between atoms: C14_33  and  C15_34 
REMARK   12  A    between atoms: C15_34  and  N6_35 
REMARK   13  A    between atoms: C18_41  and  N7_42 
REMARK   14  A    between atoms: C19_47  and  C20_48 
REMARK   15  A    between atoms: C20_48  and  O4_49 
REMARK   16  A    between atoms: C24_54  and  O5_55 
ROOT
HETATM    1  C6  UNL     1      -5.099  27.503  23.033  1.00  0.00     0.157 C 
HETATM    2  C7  UNL     1      -4.819  26.007  22.964  1.00  0.00     0.067 C 
HETATM    3  C8  UNL     1      -4.630  25.519  21.565  1.00  0.00     0.188 C 
HETATM    4  C9  UNL     1      -5.634  26.062  20.577  1.00  0.00     0.068 C 
HETATM    5  C10 UNL     1      -5.861  27.536  20.754  1.00  0.00     0.216 C 
HETATM    6  C11 UNL     1      -6.263  27.909  22.165  1.00  0.00     0.181 C 
ENDROOT
BRANCH   1   7
HETATM    7  O1  UNL     1      -5.142  27.905  24.336  1.00  0.00    -0.351 OA
BRANCH   7   8
HETATM    8  C5  UNL     1      -4.326  27.124  25.201  1.00  0.00     0.291 C 
HETATM    9  C4  UNL     1      -5.133  26.034  25.830  1.00  0.00     0.240 C 
HETATM   10  C3  UNL     1      -4.575  25.758  27.214  1.00  0.00     0.065 C 
HETATM   11  C2  UNL     1      -4.766  27.041  28.034  1.00  0.00     0.116 C 
HETATM   12  C19 UNL     1      -4.234  28.212  27.288  1.00  0.00     0.170 C 
HETATM   13  O3  UNL     1      -3.707  27.927  26.066  1.00  0.00    -0.350 OA
BRANCH   9  14
HETATM   14  N3  UNL     1      -6.513  26.460  25.967  1.00  0.00    -0.070 N 
ATOM     15  H33 UNL     1      -7.084  25.780  26.469  1.00  0.00     0.274 HD
ATOM     16  H32 UNL     1      -6.620  27.238  26.618  1.00  0.00     0.274 HD
ATOM     17  H31 UNL     1      -6.880  26.672  25.040  1.00  0.00     0.274 HD
ENDBRANCH   9  14
BRANCH  11  18
HETATM   18  N2  UNL     1      -4.243  26.809  29.326  1.00  0.00    -0.367 N 
ATOM     19  H2  UNL     1      -4.579  27.357  30.118  1.00  0.00     0.161 HD
BRANCH  18  20
HETATM   20  C1  UNL     1      -3.249  25.816  29.524  1.00  0.00     0.129 C 
HETATM   21  N1  UNL     1      -3.539  24.553  29.565  1.00  0.00    -0.383 N 
ATOM     22  H12 UNL     1      -4.512  24.267  29.451  1.00  0.00     0.157 HD
ATOM     23  H11 UNL     1      -2.825  23.839  29.707  1.00  0.00     0.157 HD
BRANCH  20  24
HETATM   24  C21 UNL     1      -1.857  26.226  29.687  1.00  0.00     0.121 A 
HETATM   25  C22 UNL     1      -1.305  26.610  30.887  1.00  0.00     0.046 A 
HETATM   26  C23 UNL     1       0.011  26.919  30.629  1.00  0.00     0.067 A 
HETATM   27  C24 UNL     1       0.156  26.695  29.274  1.00  0.00     0.183 A 
HETATM   28  O6  UNL     1      -0.950  26.287  28.728  1.00  0.00    -0.284 OA
BRANCH  27  29
HETATM   29  O5  UNL     1       1.333  26.875  28.548  1.00  0.00    -0.341 OA
ATOM     30  H5  UNL     1       1.432  26.724  27.616  1.00  0.00     0.220 HD
ENDBRANCH  27  29
ENDBRANCH  20  24
ENDBRANCH  18  20
ENDBRANCH  11  18
BRANCH  12  31
HETATM   31  C20 UNL     1      -3.359  29.151  28.098  1.00  0.00     0.198 C 
BRANCH  31  32
HETATM   32  O4  UNL     1      -3.323  30.443  27.618  1.00  0.00    -0.398 OA
ATOM     33  H4  UNL     1      -3.086  30.512  26.701  1.00  0.00     0.209 HD
ENDBRANCH  31  32
ENDBRANCH  12  31
ENDBRANCH   7   8
ENDBRANCH   1   7
BRANCH   6  34
HETATM   34  O2  UNL     1      -7.482  27.591  22.587  1.00  0.00    -0.374 OA
BRANCH  34  35
HETATM   35  C12 UNL     1      -8.123  28.223  23.576  1.00  0.00     0.152 C 
HETATM   36  C13 UNL     1      -8.488  29.629  23.103  1.00  0.00     0.040 C 
HETATM   37  C14 UNL     1      -9.335  29.598  21.858  1.00  0.00     0.013 C 
HETATM   38  C16 UNL     1     -10.538  28.707  21.989  1.00  0.00     0.008 C 
HETATM   39  C17 UNL     1     -10.168  27.353  22.569  1.00  0.00     0.036 C 
HETATM   40  C18 UNL     1      -9.509  27.607  23.880  1.00  0.00     0.212 C 
BRANCH  37  41
HETATM   41  C15 UNL     1      -9.837  31.008  21.625  1.00  0.00     0.234 C 
BRANCH  41  42
HETATM   42  N6  UNL     1      -9.226  31.664  20.504  1.00  0.00    -0.079 N 
ATOM     43  H63 UNL     1      -9.747  31.473  19.648  1.00  0.00     0.274 HD
ATOM     44  H62 UNL     1      -9.357  32.673  20.563  1.00  0.00     0.274 HD
ATOM     45  H61 UNL     1      -8.239  31.437  20.382  1.00  0.00     0.274 HD
ENDBRANCH  41  42
ENDBRANCH  37  41
BRANCH  40  46
HETATM   46  N7  UNL     1     -10.238  28.629  24.606  1.00  0.00    -0.073 N 
ATOM     47  H73 UNL     1     -11.216  28.392  24.775  1.00  0.00     0.274 HD
ATOM     48  H72 UNL     1      -9.963  28.711  25.585  1.00  0.00     0.274 HD
ATOM     49  H71 UNL     1     -10.111  29.488  24.072  1.00  0.00     0.274 HD
ENDBRANCH  40  46
ENDBRANCH  34  35
ENDBRANCH   6  34
BRANCH   3  50
HETATM   50  N4  UNL     1      -3.286  25.843  21.108  1.00  0.00    -0.075 N 
ATOM     51  H43 UNL     1      -2.652  26.031  21.884  1.00  0.00     0.274 HD
ATOM     52  H42 UNL     1      -2.807  25.032  20.718  1.00  0.00     0.274 HD
ATOM     53  H41 UNL     1      -3.324  26.620  20.447  1.00  0.00     0.274 HD
ENDBRANCH   3  50
BRANCH   5  54
HETATM   54  N5  UNL     1      -6.641  28.092  19.715  1.00  0.00    -0.072 N 
ATOM     55  H53 UNL     1      -6.621  27.500  18.885  1.00  0.00     0.274 HD
ATOM     56  H52 UNL     1      -7.636  28.035  19.932  1.00  0.00     0.274 HD
ATOM     57  H51 UNL     1      -6.368  29.050  19.491  1.00  0.00     0.274 HD
ENDBRANCH   5  54
TORSDOF 16
ENDMDL
