MODEL 1
REMARK VINA RESULT: -7.892416643      0.000      0.000
REMARK  6 active torsions:
REMARK  status: ('A' for Active; 'I' for Inactive)
REMARK    1  A    between atoms: N3_4  and  N4_6 
REMARK    2  A    between atoms: C2_8  and  C3_9 
REMARK    3  A    between atoms: C4_10  and  S1_11 
REMARK    4  A    between atoms: N6_17  and  N7_18 
REMARK    5  A    between atoms: N8_21  and  C5_22 
REMARK    6  A    between atoms: C6_25  and  O4_26 
ROOT
HETATM    1  C3  UNL     1       5.720  10.191  51.737  1.00  0.00     0.112 C 
HETATM    2  C4  UNL     1       6.301   9.203  52.396  1.00  0.00     0.193 C 
HETATM    3  N5  UNL     1       5.345   8.166  52.652  1.00  0.00    -0.268 N 
ATOM      4  H5  UNL     1       5.558   7.207  52.928  1.00  0.00     0.185 HD
HETATM    5  N6  UNL     1       4.088   8.690  52.458  1.00  0.00    -0.039 NA
HETATM    6  N8  UNL     1       4.330   9.798  51.609  1.00  0.00    -0.226 N 
ENDROOT
BRANCH   1   7
HETATM    7  C2  UNL     1       6.218  11.433  51.202  1.00  0.00     0.141 C 
HETATM    8  N4  UNL     1       6.206  11.733  49.971  1.00  0.00    -0.307 N 
ATOM      9  H4  UNL     1       5.816  11.040  49.334  1.00  0.00     0.186 HD
BRANCH   8  10
HETATM   10  N3  UNL     1       6.668  12.900  49.411  1.00  0.00    -0.276 N 
HETATM   11  C1  UNL     1       6.549  13.118  48.158  1.00  0.00     0.215 C 
HETATM   12  N1  UNL     1       5.949  12.197  47.272  1.00  0.00    -0.065 NA
HETATM   13  N2  UNL     1       7.050  14.349  47.644  1.00  0.00    -0.065 NA
ATOM     14  H3  UNL     1       7.111  13.602  50.003  1.00  0.00     0.189 HD
ENDBRANCH   8  10
ENDBRANCH   1   7
BRANCH   2  15
HETATM   15  S1  UNL     1       7.961   9.106  52.847  1.00  0.00     0.158 S 
HETATM   16  O1  UNL     1       8.251   7.697  53.400  1.00  0.00    -0.590 OA
HETATM   17  O2  UNL     1       8.319  10.015  53.963  1.00  0.00    -0.590 OA
HETATM   18  O3  UNL     1       9.005   9.241  51.524  1.00  0.00    -0.590 OA
ENDBRANCH   2  15
BRANCH   6  19
HETATM   19  C5  UNL     1       3.296  10.369  50.786  1.00  0.00     0.361 C 
HETATM   20  N9  UNL     1       3.642  10.233  49.389  1.00  0.00    -0.089 NA
HETATM   21  N10 UNL     1       2.950  11.265  48.788  1.00  0.00    -0.085 NA
HETATM   22  C6  UNL     1       2.326  12.045  49.840  1.00  0.00     0.377 C 
HETATM   23  O5  UNL     1       3.185  11.753  50.924  1.00  0.00    -0.304 OA
BRANCH  22  24
HETATM   24  O4  UNL     1       1.075  11.514  50.097  1.00  0.00    -0.357 OA
ATOM     25  H4  UNL     1       1.021  11.305  51.022  1.00  0.00     0.214 HD
ENDBRANCH  22  24
ENDBRANCH   6  19
BRANCH   5  26
HETATM   26  N7  UNL     1       3.203   7.818  51.831  1.00  0.00    -0.327 NA
ATOM     27  H72 UNL     1       3.566   6.867  51.897  1.00  0.00     0.174 HD
ATOM     28  H71 UNL     1       2.294   7.750  52.289  1.00  0.00     0.174 HD
ENDBRANCH   5  26
TORSDOF 6
ENDMDL
MODEL 2
REMARK VINA RESULT: -7.879411477      1.104      1.447
REMARK  6 active torsions:
REMARK  status: ('A' for Active; 'I' for Inactive)
REMARK    1  A    between atoms: N3_4  and  N4_6 
REMARK    2  A    between atoms: C2_8  and  C3_9 
REMARK    3  A    between atoms: C4_10  and  S1_11 
REMARK    4  A    between atoms: N6_17  and  N7_18 
REMARK    5  A    between atoms: N8_21  and  C5_22 
REMARK    6  A    between atoms: C6_25  and  O4_26 
ROOT
HETATM    1  C3  UNL     1       5.982  10.332  51.872  1.00  0.00     0.112 C 
HETATM    2  C4  UNL     1       6.441   9.306  52.567  1.00  0.00     0.193 C 
HETATM    3  N5  UNL     1       5.352   8.451  52.941  1.00  0.00    -0.268 N 
ATOM      4  H5  UNL     1       5.431   7.489  53.272  1.00  0.00     0.185 HD
HETATM    5  N6  UNL     1       4.183   9.155  52.776  1.00  0.00    -0.039 NA
HETATM    6  N8  UNL     1       4.542  10.157  51.841  1.00  0.00    -0.226 N 
ENDROOT
BRANCH   1   7
HETATM    7  C2  UNL     1       6.633  11.444  51.228  1.00  0.00     0.141 C 
HETATM    8  N4  UNL     1       6.474  11.754  50.010  1.00  0.00    -0.307 N 
ATOM      9  H4  UNL     1       5.841  11.168  49.466  1.00  0.00     0.186 HD
BRANCH   8  10
HETATM   10  N3  UNL     1       7.070  12.801  49.348  1.00  0.00    -0.276 N 
HETATM   11  C1  UNL     1       6.469  13.404  48.397  1.00  0.00     0.215 C 
HETATM   12  N1  UNL     1       5.174  13.049  47.961  1.00  0.00    -0.065 NA
HETATM   13  N2  UNL     1       7.146  14.481  47.756  1.00  0.00    -0.065 NA
ATOM     14  H3  UNL     1       8.006  13.101  49.622  1.00  0.00     0.189 HD
ENDBRANCH   8  10
ENDBRANCH   1   7
BRANCH   2  15
HETATM   15  S1  UNL     1       8.090   8.973  52.940  1.00  0.00     0.158 S 
HETATM   16  O1  UNL     1       8.925   9.054  51.648  1.00  0.00    -0.590 OA
HETATM   17  O2  UNL     1       8.312   7.591  53.431  1.00  0.00    -0.590 OA
HETATM   18  O3  UNL     1       8.781  10.147  53.940  1.00  0.00    -0.590 OA
ENDBRANCH   2  15
BRANCH   6  19
HETATM   19  C5  UNL     1       3.561  10.835  51.033  1.00  0.00     0.361 C 
HETATM   20  N9  UNL     1       2.361  11.068  51.805  1.00  0.00    -0.089 NA
HETATM   21  N10 UNL     1       1.375  11.150  50.842  1.00  0.00    -0.085 NA
HETATM   22  C6  UNL     1       1.986  10.844  49.563  1.00  0.00     0.377 C 
HETATM   23  O5  UNL     1       3.083  10.055  49.980  1.00  0.00    -0.304 OA
BRANCH  22  24
HETATM   24  O4  UNL     1       2.459  12.021  49.009  1.00  0.00    -0.357 OA
ATOM     25  H4  UNL     1       2.601  11.881  48.080  1.00  0.00     0.214 HD
ENDBRANCH  22  24
ENDBRANCH   6  19
BRANCH   5  26
HETATM   26  N7  UNL     1       3.136   8.398  52.255  1.00  0.00    -0.327 NA
ATOM     27  H72 UNL     1       2.266   8.670  52.713  1.00  0.00     0.174 HD
ATOM     28  H71 UNL     1       2.945   8.581  51.270  1.00  0.00     0.174 HD
ENDBRANCH   5  26
TORSDOF 6
ENDMDL
MODEL 3
REMARK VINA RESULT: -7.812611104      2.073      4.883
REMARK  6 active torsions:
REMARK  status: ('A' for Active; 'I' for Inactive)
REMARK    1  A    between atoms: N3_4  and  N4_6 
REMARK    2  A    between atoms: C2_8  and  C3_9 
REMARK    3  A    between atoms: C4_10  and  S1_11 
REMARK    4  A    between atoms: N6_17  and  N7_18 
REMARK    5  A    between atoms: N8_21  and  C5_22 
REMARK    6  A    between atoms: C6_25  and  O4_26 
ROOT
HETATM    1  C3  UNL     1       5.320  10.604  51.145  1.00  0.00     0.112 C 
HETATM    2  C4  UNL     1       4.039  10.363  50.923  1.00  0.00     0.193 C 
HETATM    3  N5  UNL     1       3.600   9.284  51.759  1.00  0.00    -0.268 N 
ATOM      4  H5  UNL     1       2.631   9.042  51.968  1.00  0.00     0.185 HD
HETATM    5  N6  UNL     1       4.715   8.631  52.231  1.00  0.00    -0.039 NA
HETATM    6  N8  UNL     1       5.731   9.612  52.120  1.00  0.00    -0.226 N 
ENDROOT
BRANCH   1   7
HETATM    7  C2  UNL     1       6.233  11.587  50.620  1.00  0.00     0.141 C 
HETATM    8  N4  UNL     1       6.229  11.992  49.419  1.00  0.00    -0.307 N 
ATOM      9  H4  UNL     1       5.529  11.585  48.800  1.00  0.00     0.186 HD
BRANCH   8  10
HETATM   10  N3  UNL     1       7.075  12.925  48.869  1.00  0.00    -0.276 N 
HETATM   11  C1  UNL     1       6.649  13.778  48.019  1.00  0.00     0.215 C 
HETATM   12  N1  UNL     1       5.305  13.826  47.589  1.00  0.00    -0.065 NA
HETATM   13  N2  UNL     1       7.581  14.716  47.490  1.00  0.00    -0.065 NA
ATOM     14  H3  UNL     1       8.058  12.936  49.143  1.00  0.00     0.189 HD
ENDBRANCH   8  10
ENDBRANCH   1   7
BRANCH   2  15
HETATM   15  S1  UNL     1       3.003  11.224  49.850  1.00  0.00     0.158 S 
HETATM   16  O1  UNL     1       3.341  10.832  48.399  1.00  0.00    -0.590 OA
HETATM   17  O2  UNL     1       3.209  12.692  49.888  1.00  0.00    -0.590 OA
HETATM   18  O3  UNL     1       1.380  10.782  50.017  1.00  0.00    -0.590 OA
ENDBRANCH   2  15
BRANCH   6  19
HETATM   19  C5  UNL     1       6.942   9.548  52.897  1.00  0.00     0.361 C 
HETATM   20  N9  UNL     1       7.444   8.192  52.920  1.00  0.00    -0.089 NA
HETATM   21  N10 UNL     1       8.179   8.145  54.087  1.00  0.00    -0.085 NA
HETATM   22  C6  UNL     1       7.993   9.410  54.773  1.00  0.00     0.377 C 
HETATM   23  O5  UNL     1       6.739   9.805  54.253  1.00  0.00    -0.304 OA
BRANCH  22  24
HETATM   24  O4  UNL     1       8.964  10.293  54.336  1.00  0.00    -0.357 OA
ATOM     25  H4  UNL     1       8.984  10.273  53.387  1.00  0.00     0.214 HD
ENDBRANCH  22  24
ENDBRANCH   6  19
BRANCH   5  26
HETATM   26  N7  UNL     1       4.612   8.227  53.560  1.00  0.00    -0.327 NA
ATOM     27  H72 UNL     1       3.700   8.502  53.924  1.00  0.00     0.174 HD
ATOM     28  H71 UNL     1       4.616   7.215  53.686  1.00  0.00     0.174 HD
ENDBRANCH   5  26
TORSDOF 6
ENDMDL
MODEL 4
REMARK VINA RESULT: -7.636529304      3.102      5.792
REMARK  6 active torsions:
REMARK  status: ('A' for Active; 'I' for Inactive)
REMARK    1  A    between atoms: N3_4  and  N4_6 
REMARK    2  A    between atoms: C2_8  and  C3_9 
REMARK    3  A    between atoms: C4_10  and  S1_11 
REMARK    4  A    between atoms: N6_17  and  N7_18 
REMARK    5  A    between atoms: N8_21  and  C5_22 
REMARK    6  A    between atoms: C6_25  and  O4_26 
ROOT
HETATM    1  C3  UNL     1       6.301   9.112  52.701  1.00  0.00     0.112 C 
HETATM    2  C4  UNL     1       7.291   9.344  51.856  1.00  0.00     0.193 C 
HETATM    3  N5  UNL     1       8.540   9.323  52.560  1.00  0.00    -0.268 N 
ATOM      4  H5  UNL     1       9.466   9.239  52.139  1.00  0.00     0.185 HD
HETATM    5  N6  UNL     1       8.272   9.434  53.905  1.00  0.00    -0.039 NA
HETATM    6  N8  UNL     1       6.931   8.988  54.001  1.00  0.00    -0.226 N 
ENDROOT
BRANCH   1   7
HETATM    7  C2  UNL     1       4.877   8.982  52.523  1.00  0.00     0.141 C 
HETATM    8  N4  UNL     1       4.158   9.823  51.906  1.00  0.00    -0.307 N 
ATOM      9  H4  UNL     1       4.633  10.638  51.519  1.00  0.00     0.186 HD
BRANCH   8  10
HETATM   10  N3  UNL     1       2.800   9.747  51.709  1.00  0.00    -0.276 N 
HETATM   11  C1  UNL     1       2.269  10.172  50.627  1.00  0.00     0.215 C 
HETATM   12  N1  UNL     1       3.020  10.741  49.576  1.00  0.00    -0.065 NA
HETATM   13  N2  UNL     1       0.855  10.062  50.490  1.00  0.00    -0.065 NA
ATOM     14  H3  UNL     1       2.207   9.346  52.436  1.00  0.00     0.189 HD
ENDBRANCH   8  10
ENDBRANCH   1   7
BRANCH   2  15
HETATM   15  S1  UNL     1       7.157   9.580  50.155  1.00  0.00     0.158 S 
HETATM   16  O1  UNL     1       7.035  11.088  49.864  1.00  0.00    -0.590 OA
HETATM   17  O2  UNL     1       5.921   8.998  49.579  1.00  0.00    -0.590 OA
HETATM   18  O3  UNL     1       8.554   9.121  49.321  1.00  0.00    -0.590 OA
ENDBRANCH   2  15
BRANCH   6  19
HETATM   19  C5  UNL     1       6.375   8.505  55.239  1.00  0.00     0.361 C 
HETATM   20  N9  UNL     1       6.855   9.305  56.343  1.00  0.00    -0.089 NA
HETATM   21  N10 UNL     1       6.761   8.447  57.421  1.00  0.00    -0.085 NA
HETATM   22  C6  UNL     1       6.355   7.150  56.915  1.00  0.00     0.377 C 
HETATM   23  O5  UNL     1       6.826   7.231  55.584  1.00  0.00    -0.304 OA
BRANCH  22  24
HETATM   24  O4  UNL     1       4.972   7.098  56.903  1.00  0.00    -0.357 OA
ATOM     25  H4  UNL     1       4.677   6.749  57.736  1.00  0.00     0.214 HD
ENDBRANCH  22  24
ENDBRANCH   6  19
BRANCH   5  26
HETATM   26  N7  UNL     1       9.079   8.634  54.710  1.00  0.00    -0.327 NA
ATOM     27  H72 UNL     1       9.560   7.950  54.127  1.00  0.00     0.174 HD
ATOM     28  H71 UNL     1       9.846   9.138  55.156  1.00  0.00     0.174 HD
ENDBRANCH   5  26
TORSDOF 6
ENDMDL
MODEL 5
REMARK VINA RESULT: -7.559920335      3.251      5.935
REMARK  6 active torsions:
REMARK  status: ('A' for Active; 'I' for Inactive)
REMARK    1  A    between atoms: N3_4  and  N4_6 
REMARK    2  A    between atoms: C2_8  and  C3_9 
REMARK    3  A    between atoms: C4_10  and  S1_11 
REMARK    4  A    between atoms: N6_17  and  N7_18 
REMARK    5  A    between atoms: N8_21  and  C5_22 
REMARK    6  A    between atoms: C6_25  and  O4_26 
ROOT
HETATM    1  C3  UNL     1       4.984  10.917  50.798  1.00  0.00     0.112 C 
HETATM    2  C4  UNL     1       4.832  11.055  49.492  1.00  0.00     0.193 C 
HETATM    3  N5  UNL     1       5.924  10.423  48.810  1.00  0.00    -0.268 N 
ATOM      4  H5  UNL     1       5.950  10.173  47.821  1.00  0.00     0.185 HD
HETATM    5  N6  UNL     1       6.930  10.211  49.724  1.00  0.00    -0.039 NA
HETATM    6  N8  UNL     1       6.243  10.216  50.963  1.00  0.00    -0.226 N 
ENDROOT
BRANCH   1   7
HETATM    7  C2  UNL     1       4.174  11.313  51.922  1.00  0.00     0.141 C 
HETATM    8  N4  UNL     1       3.745  12.491  52.109  1.00  0.00    -0.307 N 
ATOM      9  H4  UNL     1       3.999  13.188  51.411  1.00  0.00     0.186 HD
BRANCH   8  10
HETATM   10  N3  UNL     1       2.972  12.921  53.161  1.00  0.00    -0.276 N 
HETATM   11  C1  UNL     1       3.301  13.952  53.839  1.00  0.00     0.215 C 
HETATM   12  N1  UNL     1       4.459  14.712  53.567  1.00  0.00    -0.065 NA
HETATM   13  N2  UNL     1       2.453  14.341  54.916  1.00  0.00    -0.065 NA
ATOM     14  H3  UNL     1       2.123  12.409  53.403  1.00  0.00     0.189 HD
ENDBRANCH   8  10
ENDBRANCH   1   7
BRANCH   2  15
HETATM   15  S1  UNL     1       3.513  11.815  48.686  1.00  0.00     0.158 S 
HETATM   16  O1  UNL     1       3.314  11.152  47.310  1.00  0.00    -0.590 OA
HETATM   17  O2  UNL     1       3.763  13.242  48.370  1.00  0.00    -0.590 OA
HETATM   18  O3  UNL     1       2.037  11.562  49.471  1.00  0.00    -0.590 OA
ENDBRANCH   2  15
BRANCH   6  19
HETATM   19  C5  UNL     1       6.791   9.595  52.141  1.00  0.00     0.361 C 
HETATM   20  N9  UNL     1       8.234   9.677  52.119  1.00  0.00    -0.089 NA
HETATM   21  N10 UNL     1       8.626   8.610  52.903  1.00  0.00    -0.085 NA
HETATM   22  C6  UNL     1       7.432   7.866  53.257  1.00  0.00     0.377 C 
HETATM   23  O5  UNL     1       6.579   8.217  52.185  1.00  0.00    -0.304 OA
BRANCH  22  24
HETATM   24  O4  UNL     1       6.921   8.389  54.432  1.00  0.00    -0.357 OA
ATOM     25  H4  UNL     1       6.069   8.766  54.248  1.00  0.00     0.214 HD
ENDBRANCH  22  24
ENDBRANCH   6  19
BRANCH   5  26
HETATM   26  N7  UNL     1       7.586   8.993  49.569  1.00  0.00    -0.327 NA
ATOM     27  H72 UNL     1       8.593   9.150  49.588  1.00  0.00     0.174 HD
ATOM     28  H71 UNL     1       7.439   8.344  50.343  1.00  0.00     0.174 HD
ENDBRANCH   5  26
TORSDOF 6
ENDMDL
