MODEL 1
REMARK VINA RESULT: -4.422269560      0.000      0.000
REMARK  2 active torsions:
REMARK  status: ('A' for Active; 'I' for Inactive)
REMARK    1  A    between atoms: N1_1  and  C1_5 
REMARK    2  A    between atoms: C1_5  and  C2_6 
ROOT
HETATM    1  C2  UNL     1      12.794   1.966  25.271  1.00  0.00     0.015 C 
HETATM    2  C3  UNL     1      13.023   0.481  25.432  1.00  0.00     0.011 C 
HETATM    3  C4  UNL     1      13.420   0.304  26.876  1.00  0.00    -0.014 C 
HETATM    4  C5  UNL     1      14.888   0.626  26.987  1.00  0.00     0.005 C 
HETATM    5  C6  UNL     1      14.904   2.067  26.510  1.00  0.00     0.005 C 
HETATM    6  C7  UNL     1      13.469   2.530  26.473  1.00  0.00    -0.009 C 
HETATM    7  C8  UNL     1      12.852   1.578  27.518  1.00  0.00     0.010 C 
ENDROOT
BRANCH   1   8
HETATM    8  C1  UNL     1      13.238   2.504  23.967  1.00  0.00     0.234 C 
BRANCH   8   9
HETATM    9  N1  UNL     1      13.563   1.345  23.117  1.00  0.00    -0.079 N 
ATOM     10  H13 UNL     1      14.474   1.421  22.666  1.00  0.00     0.274 HD
ATOM     11  H12 UNL     1      13.752   0.497  23.650  1.00  0.00     0.274 HD
ATOM     12  H11 UNL     1      12.793   1.241  22.455  1.00  0.00     0.274 HD
ENDBRANCH   8   9
ENDBRANCH   1   8
TORSDOF 2
ENDMDL
MODEL 2
REMARK VINA RESULT: -4.344412617      0.878      1.019
REMARK  2 active torsions:
REMARK  status: ('A' for Active; 'I' for Inactive)
REMARK    1  A    between atoms: N1_1  and  C1_5 
REMARK    2  A    between atoms: C1_5  and  C2_6 
ROOT
HETATM    1  C2  UNL     1      13.154   1.443  25.666  1.00  0.00     0.015 C 
HETATM    2  C3  UNL     1      12.883  -0.044  25.678  1.00  0.00     0.011 C 
HETATM    3  C4  UNL     1      12.869  -0.424  27.138  1.00  0.00    -0.014 C 
HETATM    4  C5  UNL     1      14.300  -0.598  27.576  1.00  0.00     0.005 C 
HETATM    5  C6  UNL     1      14.857   0.786  27.299  1.00  0.00     0.005 C 
HETATM    6  C7  UNL     1      13.675   1.687  27.040  1.00  0.00    -0.009 C 
HETATM    7  C8  UNL     1      12.580   0.925  27.813  1.00  0.00     0.010 C 
ENDROOT
BRANCH   1   8
HETATM    8  C1  UNL     1      14.024   1.885  24.555  1.00  0.00     0.234 C 
BRANCH   8   9
HETATM    9  N1  UNL     1      13.453   1.325  23.319  1.00  0.00    -0.079 N 
ATOM     10  H13 UNL     1      13.774   1.800  22.476  1.00  0.00     0.274 HD
ATOM     11  H12 UNL     1      13.816   0.400  23.091  1.00  0.00     0.274 HD
ATOM     12  H11 UNL     1      12.438   1.342  23.429  1.00  0.00     0.274 HD
ENDBRANCH   8   9
ENDBRANCH   1   8
TORSDOF 2
ENDMDL
MODEL 3
REMARK VINA RESULT: -4.315185797      1.691      2.443
REMARK  2 active torsions:
REMARK  status: ('A' for Active; 'I' for Inactive)
REMARK    1  A    between atoms: N1_1  and  C1_5 
REMARK    2  A    between atoms: C1_5  and  C2_6 
ROOT
HETATM    1  C2  UNL     1      13.098   3.102  24.927  1.00  0.00     0.015 C 
HETATM    2  C3  UNL     1      12.778   2.894  26.389  1.00  0.00     0.011 C 
HETATM    3  C4  UNL     1      13.669   1.757  26.824  1.00  0.00    -0.014 C 
HETATM    4  C5  UNL     1      13.000   0.472  26.410  1.00  0.00     0.005 C 
HETATM    5  C6  UNL     1      12.920   0.659  24.906  1.00  0.00     0.005 C 
HETATM    6  C7  UNL     1      13.799   1.838  24.567  1.00  0.00    -0.009 C 
HETATM    7  C8  UNL     1      14.775   1.798  25.759  1.00  0.00     0.010 C 
ENDROOT
BRANCH   1   8
HETATM    8  C1  UNL     1      11.923   3.451  24.099  1.00  0.00     0.234 C 
BRANCH   8   9
HETATM    9  N1  UNL     1      11.756   4.911  24.192  1.00  0.00    -0.079 N 
ATOM     10  H13 UNL     1      12.105   5.300  25.067  1.00  0.00     0.274 HD
ATOM     11  H12 UNL     1      12.373   5.427  23.566  1.00  0.00     0.274 HD
ATOM     12  H11 UNL     1      10.767   5.105  24.032  1.00  0.00     0.274 HD
ENDBRANCH   8   9
ENDBRANCH   1   8
TORSDOF 2
ENDMDL
MODEL 4
REMARK VINA RESULT: -4.213263549      0.946      2.022
REMARK  2 active torsions:
REMARK  status: ('A' for Active; 'I' for Inactive)
REMARK    1  A    between atoms: N1_1  and  C1_5 
REMARK    2  A    between atoms: C1_5  and  C2_6 
ROOT
HETATM    1  C2  UNL     1      13.732   1.523  25.396  1.00  0.00     0.015 C 
HETATM    2  C3  UNL     1      13.158   2.590  26.301  1.00  0.00     0.011 C 
HETATM    3  C4  UNL     1      13.604   2.203  27.689  1.00  0.00    -0.014 C 
HETATM    4  C5  UNL     1      12.654   1.148  28.193  1.00  0.00     0.005 C 
HETATM    5  C6  UNL     1      12.849   0.061  27.152  1.00  0.00     0.005 C 
HETATM    6  C7  UNL     1      14.074   0.436  26.355  1.00  0.00    -0.009 C 
HETATM    7  C8  UNL     1      14.815   1.305  27.392  1.00  0.00     0.010 C 
ENDROOT
BRANCH   1   8
HETATM    8  C1  UNL     1      12.842   1.144  24.277  1.00  0.00     0.234 C 
BRANCH   8   9
HETATM    9  N1  UNL     1      13.587   1.405  23.034  1.00  0.00    -0.079 N 
ATOM     10  H13 UNL     1      13.630   0.598  22.414  1.00  0.00     0.274 HD
ATOM     11  H12 UNL     1      13.098   2.032  22.396  1.00  0.00     0.274 HD
ATOM     12  H11 UNL     1      14.507   1.750  23.309  1.00  0.00     0.274 HD
ENDBRANCH   8   9
ENDBRANCH   1   8
TORSDOF 2
ENDMDL
MODEL 5
REMARK VINA RESULT: -4.202294220      1.812      2.460
REMARK  2 active torsions:
REMARK  status: ('A' for Active; 'I' for Inactive)
REMARK    1  A    between atoms: N1_1  and  C1_5 
REMARK    2  A    between atoms: C1_5  and  C2_6 
ROOT
HETATM    1  C2  UNL     1      13.484   2.964  26.037  1.00  0.00     0.015 C 
HETATM    2  C3  UNL     1      12.891   2.187  27.190  1.00  0.00     0.011 C 
HETATM    3  C4  UNL     1      13.575   0.843  27.144  1.00  0.00    -0.014 C 
HETATM    4  C5  UNL     1      12.867   0.008  26.108  1.00  0.00     0.005 C 
HETATM    5  C6  UNL     1      13.073   0.854  24.865  1.00  0.00     0.005 C 
HETATM    6  C7  UNL     1      14.109   1.893  25.212  1.00  0.00    -0.009 C 
HETATM    7  C8  UNL     1      14.851   1.165  26.351  1.00  0.00     0.010 C 
ENDROOT
BRANCH   1   8
HETATM    8  C1  UNL     1      12.514   3.836  25.340  1.00  0.00     0.234 C 
BRANCH   8   9
HETATM    9  N1  UNL     1      12.983   5.221  25.516  1.00  0.00    -0.079 N 
ATOM     10  H13 UNL     1      13.290   5.424  26.467  1.00  0.00     0.274 HD
ATOM     11  H12 UNL     1      13.872   5.406  25.052  1.00  0.00     0.274 HD
ATOM     12  H11 UNL     1      12.229   5.830  25.198  1.00  0.00     0.274 HD
ENDBRANCH   8   9
ENDBRANCH   1   8
TORSDOF 2
ENDMDL
