MODEL 1
REMARK VINA RESULT: -6.977047975      0.000      0.000
REMARK  15 active torsions:
REMARK  status: ('A' for Active; 'I' for Inactive)
REMARK    1  A    between atoms: N1_1  and  N2_4 
REMARK    2  A    between atoms: N2_4  and  O1_6 
REMARK    3  A    between atoms: O1_6  and  C1_7 
REMARK    4  A    between atoms: C1_7  and  O2_8 
REMARK    5  A    between atoms: C1_7  and  C2_10 
REMARK    6  A    between atoms: C1_7  and  C3_15 
REMARK    7  A    between atoms: C2_10  and  O3_11 
REMARK    8  A    between atoms: C2_10  and  O4_13 
REMARK    9  A    between atoms: C3_15  and  O5_16 
REMARK   10  A    between atoms: C4_18  and  C5_19 
REMARK   11  A    between atoms: C6_23  and  N3_24 
REMARK   12  A    between atoms: C9_29  and  N5_30 
REMARK   13  A    between atoms: C10_35  and  N7_36 
REMARK   14  A    between atoms: C12_42  and  O9_43 
REMARK   15  A    between atoms: C12_42  and  O10_45 
ROOT
HETATM    1  C3  UNL     1      23.845  35.826   5.466  1.00  0.00     0.218 C 
HETATM    2  C4  UNL     1      22.996  34.889   6.289  1.00  0.00     0.271 C 
HETATM    3  O8  UNL     1      21.964  34.481   5.398  1.00  0.00    -0.341 OA
HETATM    4  C6  UNL     1      21.617  35.584   4.674  1.00  0.00     0.297 C 
HETATM    5  C12 UNL     1      22.891  36.402   4.513  1.00  0.00     0.246 C 
ENDROOT
BRANCH   4   6
HETATM    6  N3  UNL     1      21.020  35.224   3.411  1.00  0.00    -0.294 N 
HETATM    7  C7  UNL     1      20.810  33.960   2.942  1.00  0.00     0.188 A 
HETATM    8  N4  UNL     1      20.240  33.979   1.746  1.00  0.00    -0.346 N 
HETATM    9  C8  UNL     1      20.063  35.259   1.402  1.00  0.00     0.123 A 
ATOM     10  H4  UNL     1      19.983  33.165   1.188  1.00  0.00     0.167 HD
HETATM   11  C9  UNL     1      19.524  35.830   0.283  1.00  0.00     0.145 A 
HETATM   12  C11 UNL     1      20.549  36.025   2.439  1.00  0.00     0.157 A 
HETATM   13  N6  UNL     1      19.479  37.167   0.217  1.00  0.00    -0.175 N 
HETATM   14  C10 UNL     1      19.951  37.919   1.224  1.00  0.00     0.679 A 
ATOM     15  H6  UNL     1      19.082  37.619  -0.606  1.00  0.00     0.186 HD
HETATM   16  N8  UNL     1      20.477  37.360   2.320  1.00  0.00    -0.174 N 
ATOM     17  H8  UNL     1      20.827  37.955   3.071  1.00  0.00     0.186 HD
BRANCH  11  18
HETATM   18  N5  UNL     1      19.081  35.086  -0.666  1.00  0.00    -0.383 N 
ATOM     19  H52 UNL     1      19.687  34.450  -1.183  1.00  0.00     0.157 HD
ATOM     20  H51 UNL     1      18.094  35.121  -0.922  1.00  0.00     0.157 HD
ENDBRANCH  11  18
BRANCH  14  21
HETATM   21  N7  UNL     1      19.883  39.201   1.112  1.00  0.00    -0.234 N 
ATOM     22  H72 UNL     1      18.983  39.677   1.159  1.00  0.00     0.174 HD
ATOM     23  H71 UNL     1      20.750  39.720   0.976  1.00  0.00     0.174 HD
ENDBRANCH  14  21
ENDBRANCH   4   6
BRANCH   5  24
HETATM   24  O9  UNL     1      23.230  36.216   3.150  1.00  0.00    -0.359 OA
ATOM     25  H9  UNL     1      22.575  36.519   2.533  1.00  0.00     0.213 HD
ENDBRANCH   5  24
BRANCH   5  26
HETATM   26  O10 UNL     1      22.623  37.762   4.640  1.00  0.00    -0.359 OA
ATOM     27  H10 UNL     1      22.798  38.305   3.880  1.00  0.00     0.213 HD
ENDBRANCH   5  26
BRANCH   2  28
HETATM   28  C5  UNL     1      22.312  35.435   7.443  1.00  0.00     0.206 C 
HETATM   29  O6  UNL     1      22.088  34.747   8.468  1.00  0.00    -0.646 OA
HETATM   30  O7  UNL     1      21.838  36.761   7.542  1.00  0.00    -0.646 OA
ENDBRANCH   2  28
BRANCH   1  31
HETATM   31  C1  UNL     1      24.747  36.722   6.227  1.00  0.00     0.279 C 
BRANCH  31  32
HETATM   32  O1  UNL     1      25.432  36.024   7.276  1.00  0.00    -0.217 OA
BRANCH  32  33
HETATM   33  N2  UNL     1      26.189  36.743   8.148  1.00  0.00    -0.210 N 
ATOM     34  H2  UNL     1      25.708  37.383   8.780  1.00  0.00     0.215 HD
BRANCH  33  35
HETATM   35  N1  UNL     1      27.452  36.673   8.228  1.00  0.00    -0.326 N 
ATOM     36  H12 UNL     1      27.977  37.499   7.941  1.00  0.00     0.178 HD
ATOM     37  H11 UNL     1      27.965  35.854   8.557  1.00  0.00     0.178 HD
ENDBRANCH  33  35
ENDBRANCH  32  33
ENDBRANCH  31  32
BRANCH  31  38
HETATM   38  O2  UNL     1      24.196  37.843   6.778  1.00  0.00    -0.357 OA
ATOM     39  H2  UNL     1      23.286  37.648   6.965  1.00  0.00     0.213 HD
ENDBRANCH  31  38
BRANCH  31  40
HETATM   40  C2  UNL     1      25.920  37.171   5.341  1.00  0.00     0.323 C 
BRANCH  40  41
HETATM   41  O3  UNL     1      25.513  37.587   4.092  1.00  0.00    -0.366 OA
ATOM     42  H3  UNL     1      26.073  38.264   3.732  1.00  0.00     0.212 HD
ENDBRANCH  40  41
BRANCH  40  43
HETATM   43  O4  UNL     1      26.971  36.301   5.322  1.00  0.00    -0.366 OA
ATOM     44  H4  UNL     1      27.625  36.496   4.661  1.00  0.00     0.212 HD
ENDBRANCH  40  43
ENDBRANCH  31  40
ENDBRANCH   1  31
BRANCH   1  45
HETATM   45  O5  UNL     1      24.708  34.955   4.740  1.00  0.00    -0.376 OA
ATOM     46  H5  UNL     1      24.274  34.110   4.748  1.00  0.00     0.211 HD
ENDBRANCH   1  45
TORSDOF 15
ENDMDL
MODEL 2
REMARK VINA RESULT: -6.902541360      2.632      7.700
REMARK  15 active torsions:
REMARK  status: ('A' for Active; 'I' for Inactive)
REMARK    1  A    between atoms: N1_1  and  N2_4 
REMARK    2  A    between atoms: N2_4  and  O1_6 
REMARK    3  A    between atoms: O1_6  and  C1_7 
REMARK    4  A    between atoms: C1_7  and  O2_8 
REMARK    5  A    between atoms: C1_7  and  C2_10 
REMARK    6  A    between atoms: C1_7  and  C3_15 
REMARK    7  A    between atoms: C2_10  and  O3_11 
REMARK    8  A    between atoms: C2_10  and  O4_13 
REMARK    9  A    between atoms: C3_15  and  O5_16 
REMARK   10  A    between atoms: C4_18  and  C5_19 
REMARK   11  A    between atoms: C6_23  and  N3_24 
REMARK   12  A    between atoms: C9_29  and  N5_30 
REMARK   13  A    between atoms: C10_35  and  N7_36 
REMARK   14  A    between atoms: C12_42  and  O9_43 
REMARK   15  A    between atoms: C12_42  and  O10_45 
ROOT
HETATM    1  C3  UNL     1      23.645  35.438   6.353  1.00  0.00     0.218 C 
HETATM    2  C4  UNL     1      24.207  34.973   5.032  1.00  0.00     0.271 C 
HETATM    3  O8  UNL     1      25.617  35.040   5.212  1.00  0.00    -0.341 OA
HETATM    4  C6  UNL     1      25.865  36.174   5.929  1.00  0.00     0.297 C 
HETATM    5  C12 UNL     1      24.671  36.357   6.856  1.00  0.00     0.246 C 
ENDROOT
BRANCH   4   6
HETATM    6  N3  UNL     1      27.118  36.090   6.639  1.00  0.00    -0.294 N 
HETATM    7  C7  UNL     1      27.540  36.913   7.643  1.00  0.00     0.188 A 
HETATM    8  N4  UNL     1      28.740  36.560   8.080  1.00  0.00    -0.346 N 
HETATM    9  C8  UNL     1      29.133  35.496   7.372  1.00  0.00     0.123 A 
ATOM     10  H4  UNL     1      29.269  37.017   8.822  1.00  0.00     0.167 HD
HETATM   11  C9  UNL     1      30.277  34.748   7.420  1.00  0.00     0.145 A 
HETATM   12  C11 UNL     1      28.122  35.210   6.481  1.00  0.00     0.157 A 
HETATM   13  N6  UNL     1      30.393  33.720   6.570  1.00  0.00    -0.175 N 
HETATM   14  C10 UNL     1      29.412  33.436   5.699  1.00  0.00     0.679 A 
ATOM     15  H6  UNL     1      31.236  33.146   6.584  1.00  0.00     0.186 HD
HETATM   16  N8  UNL     1      28.292  34.167   5.653  1.00  0.00    -0.174 N 
ATOM     17  H8  UNL     1      27.561  33.929   4.982  1.00  0.00     0.186 HD
BRANCH  11  18
HETATM   18  N5  UNL     1      31.200  35.042   8.263  1.00  0.00    -0.383 N 
ATOM     19  H52 UNL     1      31.548  35.995   8.374  1.00  0.00     0.157 HD
ATOM     20  H51 UNL     1      31.607  34.313   8.848  1.00  0.00     0.157 HD
ENDBRANCH  11  18
BRANCH  14  21
HETATM   21  N7  UNL     1      29.572  32.436   4.903  1.00  0.00    -0.234 N 
ATOM     22  H72 UNL     1      30.426  32.344   4.354  1.00  0.00     0.174 HD
ATOM     23  H71 UNL     1      28.823  31.746   4.837  1.00  0.00     0.174 HD
ENDBRANCH  14  21
ENDBRANCH   4   6
BRANCH   5  24
HETATM   24  O9  UNL     1      25.192  36.022   8.130  1.00  0.00    -0.359 OA
ATOM     25  H9  UNL     1      24.619  36.228   8.860  1.00  0.00     0.213 HD
ENDBRANCH   5  24
BRANCH   5  26
HETATM   26  O10 UNL     1      24.318  37.700   6.947  1.00  0.00    -0.359 OA
ATOM     27  H10 UNL     1      24.367  38.097   7.809  1.00  0.00     0.213 HD
ENDBRANCH   5  26
BRANCH   2  28
HETATM   28  C5  UNL     1      23.931  35.779   3.861  1.00  0.00     0.206 C 
HETATM   29  O6  UNL     1      23.743  35.264   2.732  1.00  0.00    -0.646 OA
HETATM   30  O7  UNL     1      23.843  37.187   3.857  1.00  0.00    -0.646 OA
ENDBRANCH   2  28
BRANCH   1  31
HETATM   31  C1  UNL     1      22.226  35.865   6.340  1.00  0.00     0.279 C 
BRANCH  31  32
HETATM   32  O1  UNL     1      21.421  35.016   5.512  1.00  0.00    -0.217 OA
BRANCH  32  33
HETATM   33  N2  UNL     1      20.483  35.591   4.711  1.00  0.00    -0.210 N 
ATOM     34  H2  UNL     1      19.521  35.616   5.048  1.00  0.00     0.215 HD
BRANCH  33  35
HETATM   35  N1  UNL     1      20.724  36.097   3.574  1.00  0.00    -0.326 N 
ATOM     36  H12 UNL     1      21.512  35.707   3.056  1.00  0.00     0.178 HD
ATOM     37  H11 UNL     1      20.187  36.856   3.154  1.00  0.00     0.178 HD
ENDBRANCH  33  35
ENDBRANCH  32  33
ENDBRANCH  31  32
BRANCH  31  38
HETATM   38  O2  UNL     1      21.964  37.154   5.976  1.00  0.00    -0.357 OA
ATOM     39  H2  UNL     1      21.758  37.150   5.048  1.00  0.00     0.213 HD
ENDBRANCH  31  38
BRANCH  31  40
HETATM   40  C2  UNL     1      21.592  35.638   7.722  1.00  0.00     0.323 C 
BRANCH  40  41
HETATM   41  O3  UNL     1      20.235  35.871   7.729  1.00  0.00    -0.366 OA
ATOM     42  H3  UNL     1      20.009  36.727   7.385  1.00  0.00     0.212 HD
ENDBRANCH  40  41
BRANCH  40  43
HETATM   43  O4  UNL     1      22.263  36.232   8.750  1.00  0.00    -0.366 OA
ATOM     44  H4  UNL     1      23.023  35.748   9.050  1.00  0.00     0.212 HD
ENDBRANCH  40  43
ENDBRANCH  31  40
ENDBRANCH   1  31
BRANCH   1  45
HETATM   45  O5  UNL     1      23.676  34.268   7.167  1.00  0.00    -0.376 OA
ATOM     46  H5  UNL     1      24.023  34.555   8.003  1.00  0.00     0.211 HD
ENDBRANCH   1  45
TORSDOF 15
ENDMDL
MODEL 3
REMARK VINA RESULT: -6.723907239      3.220      4.882
REMARK  15 active torsions:
REMARK  status: ('A' for Active; 'I' for Inactive)
REMARK    1  A    between atoms: N1_1  and  N2_4 
REMARK    2  A    between atoms: N2_4  and  O1_6 
REMARK    3  A    between atoms: O1_6  and  C1_7 
REMARK    4  A    between atoms: C1_7  and  O2_8 
REMARK    5  A    between atoms: C1_7  and  C2_10 
REMARK    6  A    between atoms: C1_7  and  C3_15 
REMARK    7  A    between atoms: C2_10  and  O3_11 
REMARK    8  A    between atoms: C2_10  and  O4_13 
REMARK    9  A    between atoms: C3_15  and  O5_16 
REMARK   10  A    between atoms: C4_18  and  C5_19 
REMARK   11  A    between atoms: C6_23  and  N3_24 
REMARK   12  A    between atoms: C9_29  and  N5_30 
REMARK   13  A    between atoms: C10_35  and  N7_36 
REMARK   14  A    between atoms: C12_42  and  O9_43 
REMARK   15  A    between atoms: C12_42  and  O10_45 
ROOT
HETATM    1  C3  UNL     1      21.853  35.068   6.054  1.00  0.00     0.218 C 
HETATM    2  C4  UNL     1      20.566  35.554   5.436  1.00  0.00     0.271 C 
HETATM    3  O8  UNL     1      20.323  34.638   4.375  1.00  0.00    -0.341 OA
HETATM    4  C6  UNL     1      21.533  34.372   3.804  1.00  0.00     0.297 C 
HETATM    5  C12 UNL     1      22.555  34.438   4.931  1.00  0.00     0.246 C 
ENDROOT
BRANCH   4   6
HETATM    6  N3  UNL     1      21.532  33.101   3.123  1.00  0.00    -0.294 N 
HETATM    7  C7  UNL     1      22.082  32.832   1.903  1.00  0.00     0.188 A 
HETATM    8  N4  UNL     1      21.906  31.562   1.567  1.00  0.00    -0.346 N 
HETATM    9  C8  UNL     1      21.236  30.969   2.560  1.00  0.00     0.123 A 
ATOM     10  H4  UNL     1      22.225  31.118   0.706  1.00  0.00     0.167 HD
HETATM   11  C9  UNL     1      20.802  29.681   2.717  1.00  0.00     0.145 A 
HETATM   12  C11 UNL     1      21.008  31.929   3.521  1.00  0.00     0.157 A 
HETATM   13  N6  UNL     1      20.142  29.373   3.841  1.00  0.00    -0.175 N 
HETATM   14  C10 UNL     1      19.917  30.303   4.781  1.00  0.00     0.679 A 
ATOM     15  H6  UNL     1      19.808  28.420   3.984  1.00  0.00     0.186 HD
HETATM   16  N8  UNL     1      20.342  31.563   4.628  1.00  0.00    -0.174 N 
ATOM     17  H8  UNL     1      20.158  32.250   5.358  1.00  0.00     0.186 HD
BRANCH  11  18
HETATM   18  N5  UNL     1      21.032  28.811   1.801  1.00  0.00    -0.383 N 
ATOM     19  H52 UNL     1      21.319  27.857   2.020  1.00  0.00     0.157 HD
ATOM     20  H51 UNL     1      20.927  29.066   0.819  1.00  0.00     0.157 HD
ENDBRANCH  11  18
BRANCH  14  21
HETATM   21  N7  UNL     1      19.278  29.955   5.845  1.00  0.00    -0.234 N 
ATOM     22  H72 UNL     1      18.452  30.473   6.144  1.00  0.00     0.174 HD
ATOM     23  H71 UNL     1      19.621  29.154   6.375  1.00  0.00     0.174 HD
ENDBRANCH  14  21
ENDBRANCH   4   6
BRANCH   5  24
HETATM   24  O9  UNL     1      22.903  33.081   5.137  1.00  0.00    -0.359 OA
ATOM     25  H9  UNL     1      23.363  32.674   4.412  1.00  0.00     0.213 HD
ENDBRANCH   5  24
BRANCH   5  26
HETATM   26  O10 UNL     1      23.726  35.054   4.500  1.00  0.00    -0.359 OA
ATOM     27  H10 UNL     1      23.762  36.001   4.571  1.00  0.00     0.213 HD
ENDBRANCH   5  26
BRANCH   2  28
HETATM   28  C5  UNL     1      20.566  36.864   4.819  1.00  0.00     0.206 C 
HETATM   29  O6  UNL     1      19.629  37.680   4.996  1.00  0.00    -0.646 OA
HETATM   30  O7  UNL     1      21.587  37.356   3.978  1.00  0.00    -0.646 OA
ENDBRANCH   2  28
BRANCH   1  31
HETATM   31  C1  UNL     1      22.572  36.044   6.908  1.00  0.00     0.279 C 
BRANCH  31  32
HETATM   32  O1  UNL     1      21.689  36.695   7.832  1.00  0.00    -0.217 OA
BRANCH  32  33
HETATM   33  N2  UNL     1      21.268  36.003   8.925  1.00  0.00    -0.210 N 
ATOM     34  H2  UNL     1      21.972  35.511   9.477  1.00  0.00     0.215 HD
BRANCH  33  35
HETATM   35  N1  UNL     1      20.061  35.927   9.305  1.00  0.00    -0.326 N 
ATOM     36  H12 UNL     1      19.888  35.449  10.190  1.00  0.00     0.178 HD
ATOM     37  H11 UNL     1      19.268  36.308   8.788  1.00  0.00     0.178 HD
ENDBRANCH  33  35
ENDBRANCH  32  33
ENDBRANCH  31  32
BRANCH  31  38
HETATM   38  O2  UNL     1      23.290  37.018   6.277  1.00  0.00    -0.357 OA
ATOM     39  H2  UNL     1      22.668  37.628   5.899  1.00  0.00     0.213 HD
ENDBRANCH  31  38
BRANCH  31  40
HETATM   40  C2  UNL     1      23.527  35.309   7.862  1.00  0.00     0.323 C 
BRANCH  40  41
HETATM   41  O3  UNL     1      24.363  36.167   8.542  1.00  0.00    -0.366 OA
ATOM     42  H3  UNL     1      24.861  35.730   9.223  1.00  0.00     0.212 HD
ENDBRANCH  40  41
BRANCH  40  43
HETATM   43  O4  UNL     1      24.164  34.240   7.302  1.00  0.00    -0.366 OA
ATOM     44  H4  UNL     1      23.600  33.494   7.138  1.00  0.00     0.212 HD
ENDBRANCH  40  43
ENDBRANCH  31  40
ENDBRANCH   1  31
BRANCH   1  45
HETATM   45  O5  UNL     1      21.436  34.032   6.940  1.00  0.00    -0.376 OA
ATOM     46  H5  UNL     1      20.523  34.216   7.126  1.00  0.00     0.211 HD
ENDBRANCH   1  45
TORSDOF 15
ENDMDL
MODEL 4
REMARK VINA RESULT: -6.673078019      2.938      7.218
REMARK  15 active torsions:
REMARK  status: ('A' for Active; 'I' for Inactive)
REMARK    1  A    between atoms: N1_1  and  N2_4 
REMARK    2  A    between atoms: N2_4  and  O1_6 
REMARK    3  A    between atoms: O1_6  and  C1_7 
REMARK    4  A    between atoms: C1_7  and  O2_8 
REMARK    5  A    between atoms: C1_7  and  C2_10 
REMARK    6  A    between atoms: C1_7  and  C3_15 
REMARK    7  A    between atoms: C2_10  and  O3_11 
REMARK    8  A    between atoms: C2_10  and  O4_13 
REMARK    9  A    between atoms: C3_15  and  O5_16 
REMARK   10  A    between atoms: C4_18  and  C5_19 
REMARK   11  A    between atoms: C6_23  and  N3_24 
REMARK   12  A    between atoms: C9_29  and  N5_30 
REMARK   13  A    between atoms: C10_35  and  N7_36 
REMARK   14  A    between atoms: C12_42  and  O9_43 
REMARK   15  A    between atoms: C12_42  and  O10_45 
ROOT
HETATM    1  C3  UNL     1      23.328  35.595   5.910  1.00  0.00     0.218 C 
HETATM    2  C4  UNL     1      23.371  35.869   4.427  1.00  0.00     0.271 C 
HETATM    3  O8  UNL     1      24.693  35.507   4.046  1.00  0.00    -0.341 OA
HETATM    4  C6  UNL     1      25.518  35.930   5.047  1.00  0.00     0.297 C 
HETATM    5  C12 UNL     1      24.716  35.801   6.336  1.00  0.00     0.246 C 
ENDROOT
BRANCH   4   6
HETATM    6  N3  UNL     1      26.748  35.178   5.076  1.00  0.00    -0.294 N 
HETATM    7  C7  UNL     1      27.122  34.197   4.203  1.00  0.00     0.188 A 
HETATM    8  N4  UNL     1      28.314  33.709   4.512  1.00  0.00    -0.346 N 
HETATM    9  C8  UNL     1      28.751  34.359   5.596  1.00  0.00     0.123 A 
ATOM     10  H4  UNL     1      28.810  32.971   4.013  1.00  0.00     0.167 HD
HETATM   11  C9  UNL     1      29.907  34.245   6.316  1.00  0.00     0.145 A 
HETATM   12  C11 UNL     1      27.774  35.268   5.940  1.00  0.00     0.157 A 
HETATM   13  N6  UNL     1      30.070  35.046   7.377  1.00  0.00    -0.175 N 
HETATM   14  C10 UNL     1      29.123  35.933   7.717  1.00  0.00     0.679 A 
ATOM     15  H6  UNL     1      30.923  34.981   7.932  1.00  0.00     0.186 HD
HETATM   16  N8  UNL     1      27.991  36.047   7.012  1.00  0.00    -0.174 N 
ATOM     17  H8  UNL     1      27.288  36.730   7.291  1.00  0.00     0.186 HD
BRANCH  11  18
HETATM   18  N5  UNL     1      30.797  33.386   5.968  1.00  0.00    -0.383 N 
ATOM     19  H52 UNL     1      30.554  32.520   5.487  1.00  0.00     0.157 HD
ATOM     20  H51 UNL     1      31.781  33.562   6.171  1.00  0.00     0.157 HD
ENDBRANCH  11  18
BRANCH  14  21
HETATM   21  N7  UNL     1      29.328  36.682   8.746  1.00  0.00    -0.234 N 
ATOM     22  H72 UNL     1      30.277  36.938   9.017  1.00  0.00     0.174 HD
ATOM     23  H71 UNL     1      28.520  37.007   9.276  1.00  0.00     0.174 HD
ENDBRANCH  14  21
ENDBRANCH   4   6
BRANCH   5  24
HETATM   24  O9  UNL     1      25.309  34.688   6.980  1.00  0.00    -0.359 OA
ATOM     25  H9  UNL     1      25.880  34.167   6.428  1.00  0.00     0.213 HD
ENDBRANCH   5  24
BRANCH   5  26
HETATM   26  O10 UNL     1      24.959  36.883   7.178  1.00  0.00    -0.359 OA
ATOM     27  H10 UNL     1      25.249  37.688   6.766  1.00  0.00     0.213 HD
ENDBRANCH   5  26
BRANCH   2  28
HETATM   28  C5  UNL     1      23.207  37.239   3.989  1.00  0.00     0.206 C 
HETATM   29  O6  UNL     1      22.486  37.539   3.007  1.00  0.00    -0.646 OA
HETATM   30  O7  UNL     1      23.817  38.356   4.598  1.00  0.00    -0.646 OA
ENDBRANCH   2  28
BRANCH   1  31
HETATM   31  C1  UNL     1      22.230  36.251   6.660  1.00  0.00     0.279 C 
BRANCH  31  32
HETATM   32  O1  UNL     1      21.006  36.258   5.914  1.00  0.00    -0.217 OA
BRANCH  32  33
HETATM   33  N2  UNL     1      20.248  35.128   5.901  1.00  0.00    -0.210 N 
ATOM     34  H2  UNL     1      19.763  34.870   6.761  1.00  0.00     0.215 HD
BRANCH  33  35
HETATM   35  N1  UNL     1      20.103  34.374   4.892  1.00  0.00    -0.326 N 
ATOM     36  H12 UNL     1      20.942  33.912   4.541  1.00  0.00     0.178 HD
ATOM     37  H11 UNL     1      19.214  34.204   4.421  1.00  0.00     0.178 HD
ENDBRANCH  33  35
ENDBRANCH  32  33
ENDBRANCH  31  32
BRANCH  31  38
HETATM   38  O2  UNL     1      22.446  37.526   7.097  1.00  0.00    -0.357 OA
ATOM     39  H2  UNL     1      23.386  37.668   7.101  1.00  0.00     0.213 HD
ENDBRANCH  31  38
BRANCH  31  40
HETATM   40  C2  UNL     1      21.842  35.403   7.881  1.00  0.00     0.323 C 
BRANCH  40  41
HETATM   41  O3  UNL     1      20.838  35.976   8.629  1.00  0.00    -0.366 OA
ATOM     42  H3  UNL     1      20.969  35.866   9.564  1.00  0.00     0.212 HD
ENDBRANCH  40  41
BRANCH  40  43
HETATM   43  O4  UNL     1      22.903  34.965   8.617  1.00  0.00    -0.366 OA
ATOM     44  H4  UNL     1      23.749  35.124   8.215  1.00  0.00     0.212 HD
ENDBRANCH  40  43
ENDBRANCH  31  40
ENDBRANCH   1  31
BRANCH   1  45
HETATM   45  O5  UNL     1      23.053  34.199   5.991  1.00  0.00    -0.376 OA
ATOM     46  H5  UNL     1      23.895  33.772   5.879  1.00  0.00     0.211 HD
ENDBRANCH   1  45
TORSDOF 15
ENDMDL
MODEL 5
REMARK VINA RESULT: -6.591376513      3.326      7.056
REMARK  15 active torsions:
REMARK  status: ('A' for Active; 'I' for Inactive)
REMARK    1  A    between atoms: N1_1  and  N2_4 
REMARK    2  A    between atoms: N2_4  and  O1_6 
REMARK    3  A    between atoms: O1_6  and  C1_7 
REMARK    4  A    between atoms: C1_7  and  O2_8 
REMARK    5  A    between atoms: C1_7  and  C2_10 
REMARK    6  A    between atoms: C1_7  and  C3_15 
REMARK    7  A    between atoms: C2_10  and  O3_11 
REMARK    8  A    between atoms: C2_10  and  O4_13 
REMARK    9  A    between atoms: C3_15  and  O5_16 
REMARK   10  A    between atoms: C4_18  and  C5_19 
REMARK   11  A    between atoms: C6_23  and  N3_24 
REMARK   12  A    between atoms: C9_29  and  N5_30 
REMARK   13  A    between atoms: C10_35  and  N7_36 
REMARK   14  A    between atoms: C12_42  and  O9_43 
REMARK   15  A    between atoms: C12_42  and  O10_45 
ROOT
HETATM    1  C3  UNL     1      23.934  36.803   5.545  1.00  0.00     0.218 C 
HETATM    2  C4  UNL     1      24.395  36.243   6.868  1.00  0.00     0.271 C 
HETATM    3  O8  UNL     1      25.800  36.084   6.707  1.00  0.00    -0.341 OA
HETATM    4  C6  UNL     1      25.998  35.629   5.436  1.00  0.00     0.297 C 
HETATM    5  C12 UNL     1      24.901  36.257   4.587  1.00  0.00     0.246 C 
ENDROOT
BRANCH   4   6
HETATM    6  N3  UNL     1      27.323  35.943   4.960  1.00  0.00    -0.294 N 
HETATM    7  C7  UNL     1      27.823  35.683   3.717  1.00  0.00     0.188 A 
HETATM    8  N4  UNL     1      29.075  36.101   3.606  1.00  0.00    -0.346 N 
HETATM    9  C8  UNL     1      29.426  36.647   4.775  1.00  0.00     0.123 A 
ATOM     10  H4  UNL     1      29.665  36.022   2.778  1.00  0.00     0.167 HD
HETATM   11  C9  UNL     1      30.594  37.223   5.192  1.00  0.00     0.145 A 
HETATM   12  C11 UNL     1      28.334  36.545   5.610  1.00  0.00     0.157 A 
HETATM   13  N6  UNL     1      30.653  37.691   6.446  1.00  0.00    -0.175 N 
HETATM   14  C10 UNL     1      29.593  37.594   7.264  1.00  0.00     0.679 A 
ATOM     15  H6  UNL     1      31.512  38.124   6.782  1.00  0.00     0.186 HD
HETATM   16  N8  UNL     1      28.449  37.032   6.856  1.00  0.00    -0.174 N 
ATOM     17  H8  UNL     1      27.659  36.973   7.497  1.00  0.00     0.186 HD
BRANCH  11  18
HETATM   18  N5  UNL     1      31.593  37.301   4.389  1.00  0.00    -0.383 N 
ATOM     19  H52 UNL     1      32.147  36.483   4.133  1.00  0.00     0.157 HD
ATOM     20  H51 UNL     1      31.851  38.200   3.984  1.00  0.00     0.157 HD
ENDBRANCH  11  18
BRANCH  14  21
HETATM   21  N7  UNL     1      29.700  38.061   8.460  1.00  0.00    -0.234 N 
ATOM     22  H72 UNL     1      30.615  38.305   8.839  1.00  0.00     0.174 HD
ATOM     23  H71 UNL     1      28.851  38.177   9.012  1.00  0.00     0.174 HD
ENDBRANCH  14  21
ENDBRANCH   4   6
BRANCH   5  24
HETATM   24  O9  UNL     1      25.592  37.229   3.824  1.00  0.00    -0.359 OA
ATOM     25  H9  UNL     1      26.484  36.993   3.594  1.00  0.00     0.213 HD
ENDBRANCH   5  24
BRANCH   5  26
HETATM   26  O10 UNL     1      24.413  35.343   3.658  1.00  0.00    -0.359 OA
ATOM     27  H10 UNL     1      24.742  35.419   2.770  1.00  0.00     0.213 HD
ENDBRANCH   5  26
BRANCH   2  28
HETATM   28  C5  UNL     1      23.904  34.937   7.255  1.00  0.00     0.206 C 
HETATM   29  O6  UNL     1      23.486  34.704   8.415  1.00  0.00    -0.646 OA
HETATM   30  O7  UNL     1      23.839  33.816   6.400  1.00  0.00    -0.646 OA
ENDBRANCH   2  28
BRANCH   1  31
HETATM   31  C1  UNL     1      22.483  36.690   5.262  1.00  0.00     0.279 C 
BRANCH  31  32
HETATM   32  O1  UNL     1      21.688  37.179   6.350  1.00  0.00    -0.217 OA
BRANCH  32  33
HETATM   33  N2  UNL     1      20.706  36.380   6.847  1.00  0.00    -0.210 N 
ATOM     34  H2  UNL     1      19.951  36.106   6.217  1.00  0.00     0.215 HD
BRANCH  33  35
HETATM   35  N1  UNL     1      20.664  35.951   8.039  1.00  0.00    -0.326 N 
ATOM     36  H12 UNL     1      20.960  36.598   8.770  1.00  0.00     0.178 HD
ATOM     37  H11 UNL     1      20.358  35.015   8.306  1.00  0.00     0.178 HD
ENDBRANCH  33  35
ENDBRANCH  32  33
ENDBRANCH  31  32
BRANCH  31  38
HETATM   38  O2  UNL     1      22.005  35.455   4.933  1.00  0.00    -0.357 OA
ATOM     39  H2  UNL     1      22.687  34.824   5.134  1.00  0.00     0.213 HD
ENDBRANCH  31  38
BRANCH  31  40
HETATM   40  C2  UNL     1      22.087  37.655   4.134  1.00  0.00     0.323 C 
BRANCH  40  41
HETATM   41  O3  UNL     1      20.736  37.923   4.114  1.00  0.00    -0.366 OA
ATOM     42  H3  UNL     1      20.324  37.668   3.297  1.00  0.00     0.212 HD
ENDBRANCH  40  41
BRANCH  40  43
HETATM   43  O4  UNL     1      22.608  37.334   2.915  1.00  0.00    -0.366 OA
ATOM     44  H4  UNL     1      23.551  37.219   2.912  1.00  0.00     0.212 HD
ENDBRANCH  40  43
ENDBRANCH  31  40
ENDBRANCH   1  31
BRANCH   1  45
HETATM   45  O5  UNL     1      24.184  38.202   5.662  1.00  0.00    -0.376 OA
ATOM     46  H5  UNL     1      25.084  38.270   5.959  1.00  0.00     0.211 HD
ENDBRANCH   1  45
TORSDOF 15
ENDMDL
