MODEL 1
REMARK VINA RESULT: -8.295498231      0.000      0.000
REMARK  4 active torsions:
REMARK  status: ('A' for Active; 'I' for Inactive)
REMARK       I    between atoms: C1_2  and  N1_3 
REMARK    1  A    between atoms: C1_2  and  C8_16 
REMARK    2  A    between atoms: N1_3  and  N2_5 
REMARK    3  A    between atoms: N2_5  and  C2_7 
REMARK    4  A    between atoms: C6_11  and  N3_12 
ROOT
HETATM    1  N2  UNL     1      34.949  47.844  16.690  1.00  0.00    -0.298 N 
ATOM      2  H2  UNL     1      35.169  47.706  15.704  1.00  0.00     0.187 HD
ENDROOT
BRANCH   1   3
HETATM    3  N1  UNL     1      34.213  46.897  17.372  1.00  0.00    -0.264 N 
HETATM    4  C1  UNL     1      34.038  45.602  16.843  1.00  0.00     0.293 C 
HETATM    5  O1  UNL     1      34.564  45.326  15.735  1.00  0.00    -0.264 OA
ATOM      6  H1  UNL     1      33.791  47.136  18.269  1.00  0.00     0.190 HD
BRANCH   4   7
HETATM    7  C8  UNL     1      33.263  44.605  17.564  1.00  0.00     0.144 A 
HETATM    8  C9  UNL     1      32.620  44.828  18.759  1.00  0.00     0.045 A 
HETATM    9  C10 UNL     1      32.022  43.625  19.071  1.00  0.00     0.027 A 
HETATM   10  C11 UNL     1      32.323  42.741  18.069  1.00  0.00     0.143 A 
HETATM   11  O4  UNL     1      33.070  43.387  17.193  1.00  0.00    -0.317 OA
ENDBRANCH   4   7
ENDBRANCH   1   3
BRANCH   1  12
HETATM   12  C2  UNL     1      35.399  49.009  17.359  1.00  0.00     0.050 A 
HETATM   13  C3  UNL     1      36.551  49.666  17.019  1.00  0.00     0.031 A 
HETATM   14  C4  UNL     1      36.925  50.799  17.711  1.00  0.00     0.005 A 
HETATM   15  C5  UNL     1      36.155  51.292  18.751  1.00  0.00     0.036 A 
HETATM   16  C6  UNL     1      34.999  50.632  19.091  1.00  0.00     0.105 A 
HETATM   17  C7  UNL     1      34.629  49.492  18.391  1.00  0.00     0.067 A 
BRANCH  16  18
HETATM   18  N3  UNL     1      34.170  51.094  20.138  1.00  0.00    -0.116 N 
HETATM   19  O2  UNL     1      34.078  52.309  20.366  1.00  0.00    -0.532 OA
HETATM   20  O3  UNL     1      33.472  50.206  20.905  1.00  0.00    -0.532 OA
ENDBRANCH  16  18
ENDBRANCH   1  12
TORSDOF 4
ENDMDL
MODEL 2
REMARK VINA RESULT: -7.930489407      2.097      2.562
REMARK  4 active torsions:
REMARK  status: ('A' for Active; 'I' for Inactive)
REMARK       I    between atoms: C1_2  and  N1_3 
REMARK    1  A    between atoms: C1_2  and  C8_16 
REMARK    2  A    between atoms: N1_3  and  N2_5 
REMARK    3  A    between atoms: N2_5  and  C2_7 
REMARK    4  A    between atoms: C6_11  and  N3_12 
ROOT
HETATM    1  N2  UNL     1      32.932  47.702  19.221  1.00  0.00    -0.298 N 
ATOM      2  H2  UNL     1      32.506  48.106  20.054  1.00  0.00     0.187 HD
ENDROOT
BRANCH   1   3
HETATM    3  N1  UNL     1      32.531  46.460  18.773  1.00  0.00    -0.264 N 
HETATM    4  C1  UNL     1      32.666  45.321  19.593  1.00  0.00     0.293 C 
HETATM    5  O1  UNL     1      33.160  45.458  20.742  1.00  0.00    -0.264 OA
ATOM      6  H1  UNL     1      32.134  46.364  17.839  1.00  0.00     0.190 HD
BRANCH   4   7
HETATM    7  C8  UNL     1      32.242  44.013  19.121  1.00  0.00     0.144 A 
HETATM    8  C9  UNL     1      32.537  43.496  17.881  1.00  0.00     0.045 A 
HETATM    9  C10 UNL     1      31.943  42.250  17.864  1.00  0.00     0.027 A 
HETATM   10  C11 UNL     1      31.326  42.071  19.074  1.00  0.00     0.143 A 
HETATM   11  O4  UNL     1      31.540  43.161  19.786  1.00  0.00    -0.317 OA
ENDBRANCH   4   7
ENDBRANCH   1   3
BRANCH   1  12
HETATM   12  C2  UNL     1      33.936  48.417  18.521  1.00  0.00     0.050 A 
HETATM   13  C3  UNL     1      34.548  47.935  17.396  1.00  0.00     0.031 A 
HETATM   14  C4  UNL     1      35.513  48.689  16.763  1.00  0.00     0.005 A 
HETATM   15  C5  UNL     1      35.881  49.934  17.243  1.00  0.00     0.036 A 
HETATM   16  C6  UNL     1      35.266  50.418  18.372  1.00  0.00     0.105 A 
HETATM   17  C7  UNL     1      34.295  49.653  19.004  1.00  0.00     0.067 A 
BRANCH  16  18
HETATM   18  N3  UNL     1      35.594  51.685  18.902  1.00  0.00    -0.116 N 
HETATM   19  O2  UNL     1      36.667  52.226  18.598  1.00  0.00    -0.532 OA
HETATM   20  O3  UNL     1      34.736  52.318  19.756  1.00  0.00    -0.532 OA
ENDBRANCH  16  18
ENDBRANCH   1  12
TORSDOF 4
ENDMDL
MODEL 3
REMARK VINA RESULT: -7.876697406      2.104      7.197
REMARK  4 active torsions:
REMARK  status: ('A' for Active; 'I' for Inactive)
REMARK       I    between atoms: C1_2  and  N1_3 
REMARK    1  A    between atoms: C1_2  and  C8_16 
REMARK    2  A    between atoms: N1_3  and  N2_5 
REMARK    3  A    between atoms: N2_5  and  C2_7 
REMARK    4  A    between atoms: C6_11  and  N3_12 
ROOT
HETATM    1  N2  UNL     1      32.728  47.108  18.654  1.00  0.00    -0.298 N 
ATOM      2  H2  UNL     1      31.908  47.351  19.210  1.00  0.00     0.187 HD
ENDROOT
BRANCH   1   3
HETATM    3  N1  UNL     1      33.661  48.076  18.342  1.00  0.00    -0.264 N 
HETATM    4  C1  UNL     1      33.831  49.206  19.167  1.00  0.00     0.293 C 
HETATM    5  O1  UNL     1      33.113  49.318  20.194  1.00  0.00    -0.264 OA
ATOM      6  H1  UNL     1      34.234  47.971  17.505  1.00  0.00     0.190 HD
BRANCH   4   7
HETATM    7  C8  UNL     1      34.815  50.224  18.837  1.00  0.00     0.144 A 
HETATM    8  C9  UNL     1      35.931  50.010  18.061  1.00  0.00     0.045 A 
HETATM    9  C10 UNL     1      36.570  51.233  18.013  1.00  0.00     0.027 A 
HETATM   10  C11 UNL     1      35.826  52.117  18.748  1.00  0.00     0.143 A 
HETATM   11  O4  UNL     1      34.785  51.454  19.218  1.00  0.00    -0.317 OA
ENDBRANCH   4   7
ENDBRANCH   1   3
BRANCH   1  12
HETATM   12  C2  UNL     1      32.909  45.777  18.203  1.00  0.00     0.050 A 
HETATM   13  C3  UNL     1      33.781  45.440  17.204  1.00  0.00     0.031 A 
HETATM   14  C4  UNL     1      33.910  44.122  16.820  1.00  0.00     0.005 A 
HETATM   15  C5  UNL     1      33.171  43.122  17.428  1.00  0.00     0.036 A 
HETATM   16  C6  UNL     1      32.296  43.460  18.431  1.00  0.00     0.105 A 
HETATM   17  C7  UNL     1      32.171  44.790  18.812  1.00  0.00     0.067 A 
BRANCH  16  18
HETATM   18  N3  UNL     1      31.522  42.482  19.093  1.00  0.00    -0.116 N 
HETATM   19  O2  UNL     1      32.060  41.698  19.889  1.00  0.00    -0.532 OA
HETATM   20  O3  UNL     1      30.180  42.390  18.857  1.00  0.00    -0.532 OA
ENDBRANCH  16  18
ENDBRANCH   1  12
TORSDOF 4
ENDMDL
MODEL 4
REMARK VINA RESULT: -7.740875769      3.022      3.593
REMARK  4 active torsions:
REMARK  status: ('A' for Active; 'I' for Inactive)
REMARK       I    between atoms: C1_2  and  N1_3 
REMARK    1  A    between atoms: C1_2  and  C8_16 
REMARK    2  A    between atoms: N1_3  and  N2_5 
REMARK    3  A    between atoms: N2_5  and  C2_7 
REMARK    4  A    between atoms: C6_11  and  N3_12 
ROOT
HETATM    1  N2  UNL     1      33.240  47.684  18.618  1.00  0.00    -0.298 N 
ATOM      2  H2  UNL     1      32.937  47.015  17.911  1.00  0.00     0.187 HD
ENDROOT
BRANCH   1   3
HETATM    3  N1  UNL     1      32.726  47.616  19.897  1.00  0.00    -0.264 N 
HETATM    4  C1  UNL     1      32.724  46.400  20.610  1.00  0.00     0.293 C 
HETATM    5  O1  UNL     1      33.199  45.375  20.057  1.00  0.00    -0.264 OA
ATOM      6  H1  UNL     1      32.343  48.456  20.332  1.00  0.00     0.190 HD
BRANCH   4   7
HETATM    7  C8  UNL     1      32.183  46.331  21.957  1.00  0.00     0.144 A 
HETATM    8  C9  UNL     1      32.485  47.214  22.968  1.00  0.00     0.045 A 
HETATM    9  C10 UNL     1      31.759  46.773  24.055  1.00  0.00     0.027 A 
HETATM   10  C11 UNL     1      31.061  45.662  23.662  1.00  0.00     0.143 A 
HETATM   11  O4  UNL     1      31.356  45.445  22.394  1.00  0.00    -0.317 OA
ENDBRANCH   4   7
ENDBRANCH   1   3
BRANCH   1  12
HETATM   12  C2  UNL     1      34.189  48.683  18.288  1.00  0.00     0.050 A 
HETATM   13  C3  UNL     1      35.142  48.515  17.320  1.00  0.00     0.031 A 
HETATM   14  C4  UNL     1      36.030  49.534  17.046  1.00  0.00     0.005 A 
HETATM   15  C5  UNL     1      35.979  50.734  17.735  1.00  0.00     0.036 A 
HETATM   16  C6  UNL     1      35.023  50.902  18.706  1.00  0.00     0.105 A 
HETATM   17  C7  UNL     1      34.132  49.872  18.976  1.00  0.00     0.067 A 
BRANCH  16  18
HETATM   18  N3  UNL     1      34.919  52.108  19.434  1.00  0.00    -0.116 N 
HETATM   19  O2  UNL     1      35.668  53.060  19.169  1.00  0.00    -0.532 OA
HETATM   20  O3  UNL     1      33.999  52.229  20.436  1.00  0.00    -0.532 OA
ENDBRANCH  16  18
ENDBRANCH   1  12
TORSDOF 4
ENDMDL
MODEL 5
REMARK VINA RESULT: -7.641505384      2.548      3.391
REMARK  4 active torsions:
REMARK  status: ('A' for Active; 'I' for Inactive)
REMARK       I    between atoms: C1_2  and  N1_3 
REMARK    1  A    between atoms: C1_2  and  C8_16 
REMARK    2  A    between atoms: N1_3  and  N2_5 
REMARK    3  A    between atoms: N2_5  and  C2_7 
REMARK    4  A    between atoms: C6_11  and  N3_12 
ROOT
HETATM    1  N2  UNL     1      34.131  48.420  21.319  1.00  0.00    -0.298 N 
ATOM      2  H2  UNL     1      33.916  48.405  22.315  1.00  0.00     0.187 HD
ENDROOT
BRANCH   1   3
HETATM    3  N1  UNL     1      34.139  47.244  20.597  1.00  0.00    -0.264 N 
HETATM    4  C1  UNL     1      32.955  46.746  20.017  1.00  0.00     0.293 C 
HETATM    5  O1  UNL     1      31.888  47.393  20.171  1.00  0.00    -0.264 OA
ATOM      6  H1  UNL     1      35.012  46.730  20.482  1.00  0.00     0.190 HD
BRANCH   4   7
HETATM    7  C8  UNL     1      32.966  45.507  19.256  1.00  0.00     0.144 A 
HETATM    8  C9  UNL     1      32.910  45.433  17.883  1.00  0.00     0.045 A 
HETATM    9  C10 UNL     1      32.945  44.083  17.598  1.00  0.00     0.027 A 
HETATM   10  C11 UNL     1      33.020  43.411  18.790  1.00  0.00     0.143 A 
HETATM   11  O4  UNL     1      33.030  44.319  19.748  1.00  0.00    -0.317 OA
ENDBRANCH   4   7
ENDBRANCH   1   3
BRANCH   1  12
HETATM   12  C2  UNL     1      34.420  49.649  20.675  1.00  0.00     0.050 A 
HETATM   13  C3  UNL     1      33.789  50.822  20.991  1.00  0.00     0.031 A 
HETATM   14  C4  UNL     1      34.126  51.983  20.328  1.00  0.00     0.005 A 
HETATM   15  C5  UNL     1      35.098  51.989  19.341  1.00  0.00     0.036 A 
HETATM   16  C6  UNL     1      35.730  50.812  19.025  1.00  0.00     0.105 A 
HETATM   17  C7  UNL     1      35.386  49.647  19.697  1.00  0.00     0.067 A 
BRANCH  16  18
HETATM   18  N3  UNL     1      36.735  50.760  18.033  1.00  0.00    -0.116 N 
HETATM   19  O2  UNL     1      37.689  51.550  18.074  1.00  0.00    -0.532 OA
HETATM   20  O3  UNL     1      36.657  49.844  17.023  1.00  0.00    -0.532 OA
ENDBRANCH  16  18
ENDBRANCH   1  12
TORSDOF 4
ENDMDL
