MODEL 1
REMARK VINA RESULT: -4.785495631      0.000      0.000
REMARK  1 active torsions:
REMARK  status: ('A' for Active; 'I' for Inactive)
REMARK    1  A    between atoms: C3_3  and  C4_4 
ROOT
HETATM    1  C1  UNL     1      48.167  33.379  38.569  1.00  0.00     0.012 C 
HETATM    2  C2  UNL     1      48.916  33.951  39.334  1.00  0.00    -0.115 C 
HETATM    3  C3  UNL     1      49.843  34.631  40.255  1.00  0.00     0.118 C 
ENDROOT
BRANCH   3   4
HETATM    4  C4  UNL     1      49.722  36.137  40.060  1.00  0.00     0.095 C 
HETATM    5  C5  UNL     1      50.676  36.541  38.970  1.00  0.00     0.045 C 
HETATM    6  C6  UNL     1      50.690  38.049  38.918  1.00  0.00     0.122 C 
HETATM    7  N1  UNL     1      50.995  38.629  40.181  1.00  0.00    -0.386 N 
HETATM    8  C7  UNL     1      50.250  38.150  41.286  1.00  0.00     0.171 C 
ATOM      9  H1  UNL     1      51.711  39.348  40.285  1.00  0.00     0.160 HD
HETATM   10  N2  UNL     1      49.972  36.762  41.312  1.00  0.00    -0.381 N 
ATOM     11  H2  UNL     1      49.952  36.236  42.186  1.00  0.00     0.160 HD
ENDBRANCH   3   4
TORSDOF 1
ENDMDL
MODEL 2
REMARK VINA RESULT: -4.639825831      0.983      1.130
REMARK  1 active torsions:
REMARK  status: ('A' for Active; 'I' for Inactive)
REMARK    1  A    between atoms: C3_3  and  C4_4 
ROOT
HETATM    1  C1  UNL     1      47.082  33.057  38.283  1.00  0.00     0.012 C 
HETATM    2  C2  UNL     1      48.182  33.443  38.620  1.00  0.00    -0.115 C 
HETATM    3  C3  UNL     1      49.527  33.902  39.007  1.00  0.00     0.118 C 
ENDROOT
BRANCH   3   4
HETATM    4  C4  UNL     1      49.472  35.389  39.330  1.00  0.00     0.095 C 
HETATM    5  C5  UNL     1      50.466  36.092  38.447  1.00  0.00     0.045 C 
HETATM    6  C6  UNL     1      50.543  37.527  38.904  1.00  0.00     0.122 C 
HETATM    7  N1  UNL     1      50.842  37.635  40.291  1.00  0.00    -0.386 N 
HETATM    8  C7  UNL     1      50.053  36.849  41.165  1.00  0.00     0.171 C 
ATOM      9  H1  UNL     1      51.584  38.244  40.637  1.00  0.00     0.160 HD
HETATM   10  N2  UNL     1      49.718  35.546  40.720  1.00  0.00    -0.381 N 
ATOM     11  H2  UNL     1      49.657  34.759  41.366  1.00  0.00     0.160 HD
ENDBRANCH   3   4
TORSDOF 1
ENDMDL
MODEL 3
REMARK VINA RESULT: -4.589604891      1.551      2.326
REMARK  1 active torsions:
REMARK  status: ('A' for Active; 'I' for Inactive)
REMARK    1  A    between atoms: C3_3  and  C4_4 
ROOT
HETATM    1  C1  UNL     1      47.457  32.504  38.601  1.00  0.00     0.012 C 
HETATM    2  C2  UNL     1      47.778  33.617  38.240  1.00  0.00    -0.115 C 
HETATM    3  C3  UNL     1      48.145  34.977  37.810  1.00  0.00     0.118 C 
ENDROOT
BRANCH   3   4
HETATM    4  C4  UNL     1      49.467  35.364  38.460  1.00  0.00     0.095 C 
HETATM    5  C5  UNL     1      49.331  35.161  39.944  1.00  0.00     0.045 C 
HETATM    6  C6  UNL     1      50.570  35.726  40.593  1.00  0.00     0.122 C 
HETATM    7  N1  UNL     1      50.800  37.081  40.227  1.00  0.00    -0.386 N 
HETATM    8  C7  UNL     1      50.757  37.371  38.841  1.00  0.00     0.171 C 
ATOM      9  H1  UNL     1      50.984  37.803  40.922  1.00  0.00     0.160 HD
HETATM   10  N2  UNL     1      49.766  36.701  38.082  1.00  0.00    -0.381 N 
ATOM     11  H2  UNL     1      49.291  37.156  37.303  1.00  0.00     0.160 HD
ENDBRANCH   3   4
TORSDOF 1
ENDMDL
MODEL 4
REMARK VINA RESULT: -4.581327452      1.458      2.236
REMARK  1 active torsions:
REMARK  status: ('A' for Active; 'I' for Inactive)
REMARK    1  A    between atoms: C3_3  and  C4_4 
ROOT
HETATM    1  C1  UNL     1      47.481  34.560  37.747  1.00  0.00     0.012 C 
HETATM    2  C2  UNL     1      48.484  35.193  37.489  1.00  0.00    -0.115 C 
HETATM    3  C3  UNL     1      49.688  35.977  37.162  1.00  0.00     0.118 C 
ENDROOT
BRANCH   3   4
HETATM    4  C4  UNL     1      50.378  36.392  38.454  1.00  0.00     0.095 C 
HETATM    5  C5  UNL     1      49.737  35.635  39.585  1.00  0.00     0.045 C 
HETATM    6  C6  UNL     1      50.291  36.192  40.873  1.00  0.00     0.122 C 
HETATM    7  N1  UNL     1      50.121  37.601  40.968  1.00  0.00    -0.386 N 
HETATM    8  C7  UNL     1      50.540  38.359  39.847  1.00  0.00     0.171 C 
ATOM      9  H1  UNL     1      49.719  38.041  41.796  1.00  0.00     0.160 HD
HETATM   10  N2  UNL     1      50.276  37.805  38.571  1.00  0.00    -0.381 N 
ATOM     11  H2  UNL     1      50.026  38.391  37.774  1.00  0.00     0.160 HD
ENDBRANCH   3   4
TORSDOF 1
ENDMDL
MODEL 5
REMARK VINA RESULT: -4.318745794      1.681      4.054
REMARK  1 active torsions:
REMARK  status: ('A' for Active; 'I' for Inactive)
REMARK    1  A    between atoms: C3_3  and  C4_4 
ROOT
HETATM    1  C1  UNL     1      50.606  38.468  40.096  1.00  0.00     0.012 C 
HETATM    2  C2  UNL     1      50.329  37.749  39.158  1.00  0.00    -0.115 C 
HETATM    3  C3  UNL     1      50.013  36.886  38.007  1.00  0.00     0.118 C 
ENDROOT
BRANCH   3   4
HETATM    4  C4  UNL     1      49.915  35.442  38.481  1.00  0.00     0.095 C 
HETATM    5  C5  UNL     1      48.556  34.921  38.099  1.00  0.00     0.045 C 
HETATM    6  C6  UNL     1      48.397  33.563  38.738  1.00  0.00     0.122 C 
HETATM    7  N1  UNL     1      48.614  33.601  40.144  1.00  0.00    -0.386 N 
HETATM    8  C7  UNL     1      49.797  34.247  40.577  1.00  0.00     0.171 C 
ATOM      9  H1  UNL     1      47.954  33.186  40.802  1.00  0.00     0.160 HD
HETATM   10  N2  UNL     1      50.173  35.420  39.878  1.00  0.00    -0.381 N 
ATOM     11  H2  UNL     1      50.607  36.210  40.354  1.00  0.00     0.160 HD
ENDBRANCH   3   4
TORSDOF 1
ENDMDL
