MODEL 1
REMARK VINA RESULT: -4.523794180      0.000      0.000
REMARK  1 active torsions:
REMARK  status: ('A' for Active; 'I' for Inactive)
REMARK    1  A    between atoms: C2_2  and  C3_3 
ROOT
HETATM    1  C3  UNL     1      50.455  36.192  39.063  1.00  0.00    -0.009 C 
HETATM    2  C4  UNL     1      50.481  35.949  40.521  1.00  0.00     0.049 C 
HETATM    3  C5  UNL     1      49.499  34.979  41.058  1.00  0.00     0.056 C 
HETATM    4  N1  UNL     1      49.077  33.935  40.211  1.00  0.00    -0.402 N 
ATOM      5  H1  UNL     1      48.512  33.160  40.558  1.00  0.00     0.158 HD
HETATM    6  C6  UNL     1      49.479  34.017  38.844  1.00  0.00     0.119 C 
HETATM    7  C7  UNL     1      49.267  35.478  38.430  1.00  0.00     0.024 C 
ENDROOT
BRANCH   1   8
HETATM    8  C2  UNL     1      50.462  37.661  38.699  1.00  0.00     0.000 C 
HETATM    9  C1  UNL     1      50.513  38.427  40.019  1.00  0.00     0.005 C 
ENDBRANCH   1   8
TORSDOF 1
ENDMDL
MODEL 2
REMARK VINA RESULT: -4.204735499      1.591      3.378
REMARK  1 active torsions:
REMARK  status: ('A' for Active; 'I' for Inactive)
REMARK    1  A    between atoms: C2_2  and  C3_3 
ROOT
HETATM    1  C3  UNL     1      49.514  35.208  38.699  1.00  0.00    -0.009 C 
HETATM    2  C4  UNL     1      49.986  36.511  38.184  1.00  0.00     0.049 C 
HETATM    3  C5  UNL     1      50.330  37.545  39.187  1.00  0.00     0.056 C 
HETATM    4  N1  UNL     1      50.795  37.111  40.444  1.00  0.00    -0.402 N 
ATOM      5  H1  UNL     1      51.177  37.764  41.128  1.00  0.00     0.158 HD
HETATM    6  C6  UNL     1      50.707  35.712  40.712  1.00  0.00     0.119 C 
HETATM    7  C7  UNL     1      49.326  35.275  40.210  1.00  0.00     0.024 C 
ENDROOT
BRANCH   1   8
HETATM    8  C2  UNL     1      48.256  34.714  38.017  1.00  0.00     0.000 C 
HETATM    9  C1  UNL     1      47.951  33.346  38.624  1.00  0.00     0.005 C 
ENDBRANCH   1   8
TORSDOF 1
ENDMDL
MODEL 3
REMARK VINA RESULT: -4.095631154      1.643      3.368
REMARK  1 active torsions:
REMARK  status: ('A' for Active; 'I' for Inactive)
REMARK    1  A    between atoms: C2_2  and  C3_3 
ROOT
HETATM    1  C3  UNL     1      49.249  34.865  39.062  1.00  0.00    -0.009 C 
HETATM    2  C4  UNL     1      49.534  35.194  40.475  1.00  0.00     0.049 C 
HETATM    3  C5  UNL     1      50.606  36.183  40.731  1.00  0.00     0.056 C 
HETATM    4  N1  UNL     1      50.837  37.169  39.752  1.00  0.00    -0.402 N 
ATOM      5  H1  UNL     1      51.462  37.957  39.923  1.00  0.00     0.158 HD
HETATM    6  C6  UNL     1      50.153  37.010  38.509  1.00  0.00     0.119 C 
HETATM    7  C7  UNL     1      50.274  35.525  38.150  1.00  0.00     0.024 C 
ENDROOT
BRANCH   1   8
HETATM    8  C2  UNL     1      49.167  33.376  38.799  1.00  0.00     0.000 C 
HETATM    9  C1  UNL     1      47.698  33.074  38.514  1.00  0.00     0.005 C 
ENDBRANCH   1   8
TORSDOF 1
ENDMDL
MODEL 4
REMARK VINA RESULT: -4.093469437      0.424      1.768
REMARK  1 active torsions:
REMARK  status: ('A' for Active; 'I' for Inactive)
REMARK    1  A    between atoms: C2_2  and  C3_3 
ROOT
HETATM    1  C3  UNL     1      49.841  36.435  39.369  1.00  0.00    -0.009 C 
HETATM    2  C4  UNL     1      49.520  35.419  38.345  1.00  0.00     0.049 C 
HETATM    3  C5  UNL     1      49.754  34.002  38.707  1.00  0.00     0.056 C 
HETATM    4  N1  UNL     1      49.641  33.645  40.066  1.00  0.00    -0.402 N 
ATOM      5  H1  UNL     1      49.654  32.671  40.366  1.00  0.00     0.158 HD
HETATM    6  C6  UNL     1      49.507  34.716  41.000  1.00  0.00     0.119 C 
HETATM    7  C7  UNL     1      50.520  35.782  40.566  1.00  0.00     0.024 C 
ENDROOT
BRANCH   1   8
HETATM    8  C2  UNL     1      50.669  37.584  38.835  1.00  0.00     0.000 C 
HETATM    9  C1  UNL     1      50.471  38.743  39.809  1.00  0.00     0.005 C 
ENDBRANCH   1   8
TORSDOF 1
ENDMDL
MODEL 5
REMARK VINA RESULT: -3.902349030      1.068      1.970
REMARK  1 active torsions:
REMARK  status: ('A' for Active; 'I' for Inactive)
REMARK    1  A    between atoms: C2_2  and  C3_3 
ROOT
HETATM    1  C3  UNL     1      49.939  36.870  39.931  1.00  0.00    -0.009 C 
HETATM    2  C4  UNL     1      49.886  36.554  38.487  1.00  0.00     0.049 C 
HETATM    3  C5  UNL     1      50.210  35.165  38.091  1.00  0.00     0.056 C 
HETATM    4  N1  UNL     1      49.930  34.137  39.014  1.00  0.00    -0.402 N 
ATOM      5  H1  UNL     1      50.000  33.153  38.756  1.00  0.00     0.158 HD
HETATM    6  C6  UNL     1      49.545  34.543  40.327  1.00  0.00     0.119 C 
HETATM    7  C7  UNL     1      50.494  35.684  40.710  1.00  0.00     0.024 C 
ENDROOT
BRANCH   1   8
HETATM    8  C2  UNL     1      50.714  38.133  40.240  1.00  0.00     0.000 C 
HETATM    9  C1  UNL     1      50.353  39.134  39.145  1.00  0.00     0.005 C 
ENDBRANCH   1   8
TORSDOF 1
ENDMDL
