MODEL 1
REMARK VINA RESULT: -6.548004759      0.000      0.000
REMARK  19 active torsions:
REMARK  status: ('A' for Active; 'I' for Inactive)
REMARK    1  A    between atoms: C2_7  and  N3_8 
REMARK    2  A    between atoms: N3_8  and  C3_9 
REMARK    3  A    between atoms: N3_8  and  C5_13 
REMARK    4  A    between atoms: C3_9  and  C4_10 
REMARK    5  A    between atoms: C4_10  and  O1_11 
REMARK    6  A    between atoms: C5_13  and  C6_14 
REMARK    7  A    between atoms: C6_14  and  C7_15 
REMARK    8  A    between atoms: C7_15  and  N4_16 
REMARK    9  A    between atoms: N7_27  and  C11_28 
REMARK   10  A    between atoms: C12_30  and  C13_31 
REMARK   11  A    between atoms: C13_31  and  O3_32 
REMARK   12  A    between atoms: C14_34  and  N8_35 
REMARK   13  A    between atoms: C16_42  and  N12_43 
REMARK   14  A    between atoms: C17_46  and  C18_47 
REMARK   15  A    between atoms: C18_47  and  S1_48 
REMARK   16  A    between atoms: S1_48  and  C19_49 
REMARK   17  A    between atoms: C19_49  and  C20_50 
REMARK   18  A    between atoms: C20_50  and  C21_51 
REMARK   19  A    between atoms: C21_51  and  O4_52 
ROOT
HETATM    1  N1  UNL     1      11.715  21.586  12.858  1.00  0.00    -0.383 N 
ATOM      2  H11 UNL     1      10.997  21.576  13.583  1.00  0.00     0.157 HD
ATOM      3  H12 UNL     1      12.445  22.297  12.899  1.00  0.00     0.157 HD
HETATM    4  C1  UNL     1      11.698  20.703  11.891  1.00  0.00     0.145 A 
HETATM    5  N2  UNL     1      12.647  20.715  10.933  1.00  0.00    -0.175 N 
ATOM      6  H2  UNL     1      13.376  21.427  10.975  1.00  0.00     0.186 HD
HETATM    7  C2  UNL     1      12.670  19.831   9.929  1.00  0.00     0.683 A 
HETATM    8  N5  UNL     1      11.711  18.891   9.870  1.00  0.00    -0.173 N 
ATOM      9  H5  UNL     1      11.719  18.212   9.109  1.00  0.00     0.186 HD
HETATM   10  C8  UNL     1      10.742  18.836  10.799  1.00  0.00     0.162 A 
HETATM   11  C9  UNL     1      10.706  19.737  11.836  1.00  0.00     0.123 A 
HETATM   12  N6  UNL     1       9.648  19.435  12.585  1.00  0.00    -0.346 N 
ATOM     13  H6  UNL     1       9.348  19.922  13.430  1.00  0.00     0.167 HD
HETATM   14  C10 UNL     1       9.045  18.370  12.025  1.00  0.00     0.195 A 
HETATM   15  N7  UNL     1       9.690  17.971  10.922  1.00  0.00    -0.250 N 
ENDROOT
BRANCH  15  16
HETATM   16  C11 UNL     1       9.394  16.855  10.007  1.00  0.00     0.275 C 
HETATM   17  O2  UNL     1       9.983  15.714  10.409  1.00  0.00    -0.306 OA
HETATM   18  C12 UNL     1      10.899  15.090   9.603  1.00  0.00     0.184 C 
HETATM   19  C14 UNL     1      10.864  15.517   8.178  1.00  0.00     0.188 C 
HETATM   20  C17 UNL     1      10.517  16.959   7.968  1.00  0.00     0.169 C 
HETATM   21  O5  UNL     1       9.394  17.210   8.700  1.00  0.00    -0.307 OA
BRANCH  18  22
HETATM   22  C13 UNL     1      12.245  15.236  10.282  1.00  0.00     0.199 C 
BRANCH  22  23
HETATM   23  O3  UNL     1      12.766  13.992  10.652  1.00  0.00    -0.398 OA
ATOM     24  H3  UNL     1      12.264  13.604  11.359  1.00  0.00     0.209 HD
ENDBRANCH  22  23
ENDBRANCH  18  22
BRANCH  19  25
HETATM   25  N8  UNL     1      11.998  15.047   7.480  1.00  0.00    -0.112 N 
HETATM   26  N9  UNL     1      12.789  15.872   6.777  1.00  0.00    -0.256 N 
HETATM   27  C15 UNL     1      13.783  15.186   6.235  1.00  0.00     0.222 A 
ATOM     28  H9  UNL     1      12.646  16.877   6.675  1.00  0.00     0.190 HD
HETATM   29  N10 UNL     1      14.840  15.686   5.425  1.00  0.00    -0.061 NA
HETATM   30  N11 UNL     1      13.652  13.912   6.576  1.00  0.00    -0.161 N 
HETATM   31  C16 UNL     1      12.552  13.836   7.341  1.00  0.00     0.695 A 
ATOM     32  H11 UNL     1      14.266  13.142   6.311  1.00  0.00     0.187 HD
BRANCH  31  33
HETATM   33  N12 UNL     1      12.111  12.770   7.853  1.00  0.00    -0.233 N 
ATOM     34 2H12 UNL     1      11.876  12.657   8.839  1.00  0.00     0.174 HD
ATOM     35 1H12 UNL     1      11.939  11.901   7.346  1.00  0.00     0.174 HD
ENDBRANCH  31  33
ENDBRANCH  19  25
BRANCH  20  36
HETATM   36  C18 UNL     1      10.086  17.053   6.488  1.00  0.00     0.108 C 
BRANCH  36  37
HETATM   37  S1  UNL     1       8.995  18.401   6.167  1.00  0.00    -0.166 SA
BRANCH  37  38
HETATM   38  C19 UNL     1       9.682  19.943   5.651  1.00  0.00     0.076 C 
BRANCH  38  39
HETATM   39  C20 UNL     1       9.249  21.130   6.437  1.00  0.00     0.036 C 
BRANCH  39  40
HETATM   40  C21 UNL     1      10.070  21.525   7.605  1.00  0.00     0.165 C 
BRANCH  40  41
HETATM   41  O4  UNL     1       9.502  20.969   8.769  1.00  0.00    -0.401 OA
ATOM     42  H4  UNL     1       9.897  20.119   8.927  1.00  0.00     0.209 HD
ENDBRANCH  40  41
ENDBRANCH  39  40
ENDBRANCH  38  39
ENDBRANCH  37  38
ENDBRANCH  36  37
ENDBRANCH  20  36
ENDBRANCH  15  16
BRANCH   7  43
HETATM   43  N3  UNL     1      13.711  19.868   8.921  1.00  0.00    -0.215 N 
BRANCH  43  44
HETATM   44  C3  UNL     1      13.697  18.900   7.862  1.00  0.00     0.167 C 
BRANCH  44  45
HETATM   45  C4  UNL     1      13.155  19.391   6.558  1.00  0.00     0.184 C 
BRANCH  45  46
HETATM   46  O1  UNL     1      13.416  18.566   5.472  1.00  0.00    -0.399 OA
ATOM     47  H1  UNL     1      13.163  18.925   4.629  1.00  0.00     0.209 HD
ENDBRANCH  45  46
ENDBRANCH  44  45
ENDBRANCH  43  44
BRANCH  43  48
HETATM   48  C5  UNL     1      14.733  20.873   9.013  1.00  0.00     0.143 C 
BRANCH  48  49
HETATM   49  C6  UNL     1      16.109  20.304   8.732  1.00  0.00     0.048 C 
BRANCH  49  50
HETATM   50  C7  UNL     1      16.948  20.402   9.981  1.00  0.00     0.231 C 
BRANCH  50  51
HETATM   51  N4  UNL     1      16.644  21.631  10.672  1.00  0.00    -0.079 N 
ATOM     52  H43 UNL     1      17.148  22.428  10.282  1.00  0.00     0.274 HD
ATOM     53  H42 UNL     1      15.694  21.954  10.484  1.00  0.00     0.274 HD
ATOM     54  H41 UNL     1      16.820  21.514  11.670  1.00  0.00     0.274 HD
ENDBRANCH  50  51
ENDBRANCH  49  50
ENDBRANCH  48  49
ENDBRANCH  43  48
ENDBRANCH   7  43
TORSDOF 19
ENDMDL
MODEL 2
REMARK VINA RESULT: -6.363108867      1.567      2.408
REMARK  19 active torsions:
REMARK  status: ('A' for Active; 'I' for Inactive)
REMARK    1  A    between atoms: C2_7  and  N3_8 
REMARK    2  A    between atoms: N3_8  and  C3_9 
REMARK    3  A    between atoms: N3_8  and  C5_13 
REMARK    4  A    between atoms: C3_9  and  C4_10 
REMARK    5  A    between atoms: C4_10  and  O1_11 
REMARK    6  A    between atoms: C5_13  and  C6_14 
REMARK    7  A    between atoms: C6_14  and  C7_15 
REMARK    8  A    between atoms: C7_15  and  N4_16 
REMARK    9  A    between atoms: N7_27  and  C11_28 
REMARK   10  A    between atoms: C12_30  and  C13_31 
REMARK   11  A    between atoms: C13_31  and  O3_32 
REMARK   12  A    between atoms: C14_34  and  N8_35 
REMARK   13  A    between atoms: C16_42  and  N12_43 
REMARK   14  A    between atoms: C17_46  and  C18_47 
REMARK   15  A    between atoms: C18_47  and  S1_48 
REMARK   16  A    between atoms: S1_48  and  C19_49 
REMARK   17  A    between atoms: C19_49  and  C20_50 
REMARK   18  A    between atoms: C20_50  and  C21_51 
REMARK   19  A    between atoms: C21_51  and  O4_52 
ROOT
HETATM    1  N1  UNL     1      11.631  21.624  12.831  1.00  0.00    -0.383 N 
ATOM      2  H11 UNL     1      10.903  21.623  13.546  1.00  0.00     0.157 HD
ATOM      3  H12 UNL     1      12.356  22.340  12.870  1.00  0.00     0.157 HD
HETATM    4  C1  UNL     1      11.633  20.725  11.880  1.00  0.00     0.145 A 
HETATM    5  N2  UNL     1      12.596  20.726  10.935  1.00  0.00    -0.175 N 
ATOM      6  H2  UNL     1      13.320  21.442  10.975  1.00  0.00     0.186 HD
HETATM    7  C2  UNL     1      12.639  19.824   9.947  1.00  0.00     0.683 A 
HETATM    8  N5  UNL     1      11.686  18.877   9.890  1.00  0.00    -0.173 N 
ATOM      9  H5  UNL     1      11.709  18.185   9.142  1.00  0.00     0.186 HD
HETATM   10  C8  UNL     1      10.704  18.832  10.807  1.00  0.00     0.162 A 
HETATM   11  C9  UNL     1      10.648  19.752  11.827  1.00  0.00     0.123 A 
HETATM   12  N6  UNL     1       9.581  19.456  12.566  1.00  0.00    -0.346 N 
ATOM     13  H6  UNL     1       9.266  19.956  13.398  1.00  0.00     0.167 HD
HETATM   14  C10 UNL     1       8.992  18.378  12.017  1.00  0.00     0.195 A 
HETATM   15  N7  UNL     1       9.655  17.964  10.930  1.00  0.00    -0.250 N 
ENDROOT
BRANCH  15  16
HETATM   16  C11 UNL     1       9.379  16.830  10.030  1.00  0.00     0.275 C 
HETATM   17  O2  UNL     1      10.008  15.711  10.434  1.00  0.00    -0.306 OA
HETATM   18  C12 UNL     1      10.930  15.106   9.620  1.00  0.00     0.184 C 
HETATM   19  C14 UNL     1      10.861  15.517   8.193  1.00  0.00     0.188 C 
HETATM   20  C17 UNL     1      10.468  16.947   7.973  1.00  0.00     0.169 C 
HETATM   21  O5  UNL     1       9.349  17.172   8.721  1.00  0.00    -0.307 OA
BRANCH  18  22
HETATM   22  C13 UNL     1      12.282  15.299  10.278  1.00  0.00     0.199 C 
BRANCH  22  23
HETATM   23  O3  UNL     1      12.846  14.076  10.649  1.00  0.00    -0.398 OA
ATOM     24  H3  UNL     1      13.091  14.072  11.567  1.00  0.00     0.209 HD
ENDBRANCH  22  23
ENDBRANCH  18  22
BRANCH  19  25
HETATM   25  N8  UNL     1      11.998  15.075   7.482  1.00  0.00    -0.112 N 
HETATM   26  N9  UNL     1      12.791  15.925   6.811  1.00  0.00    -0.256 N 
HETATM   27  C15 UNL     1      13.788  15.261   6.248  1.00  0.00     0.222 A 
ATOM     28  H9  UNL     1      12.647  16.933   6.746  1.00  0.00     0.190 HD
HETATM   29  N10 UNL     1      14.846  15.791   5.461  1.00  0.00    -0.061 NA
HETATM   30  N11 UNL     1      13.657  13.975   6.542  1.00  0.00    -0.161 N 
HETATM   31  C16 UNL     1      12.554  13.870   7.301  1.00  0.00     0.695 A 
ATOM     32  H11 UNL     1      14.272  13.216   6.251  1.00  0.00     0.187 HD
BRANCH  31  33
HETATM   33  N12 UNL     1      12.112  12.785   7.771  1.00  0.00    -0.233 N 
ATOM     34 2H12 UNL     1      11.436  12.185   7.299  1.00  0.00     0.174 HD
ATOM     35 1H12 UNL     1      12.376  12.382   8.670  1.00  0.00     0.174 HD
ENDBRANCH  31  33
ENDBRANCH  19  25
BRANCH  20  36
HETATM   36  C18 UNL     1      10.012  17.013   6.499  1.00  0.00     0.108 C 
BRANCH  36  37
HETATM   37  S1  UNL     1      10.222  18.609   5.778  1.00  0.00    -0.166 SA
BRANCH  37  38
HETATM   38  C19 UNL     1      11.601  18.881   4.711  1.00  0.00     0.076 C 
BRANCH  38  39
HETATM   39  C20 UNL     1      11.492  20.066   3.818  1.00  0.00     0.036 C 
BRANCH  39  40
HETATM   40  C21 UNL     1      11.858  19.895   2.392  1.00  0.00     0.165 C 
BRANCH  40  41
HETATM   41  O4  UNL     1      12.739  20.931   2.021  1.00  0.00    -0.401 OA
ATOM     42  H4  UNL     1      12.711  21.033   1.077  1.00  0.00     0.209 HD
ENDBRANCH  40  41
ENDBRANCH  39  40
ENDBRANCH  38  39
ENDBRANCH  37  38
ENDBRANCH  36  37
ENDBRANCH  20  36
ENDBRANCH  15  16
BRANCH   7  43
HETATM   43  N3  UNL     1      13.693  19.850   8.954  1.00  0.00    -0.215 N 
BRANCH  43  44
HETATM   44  C3  UNL     1      15.023  19.466   9.332  1.00  0.00     0.167 C 
BRANCH  44  45
HETATM   45  C4  UNL     1      15.211  18.008   9.606  1.00  0.00     0.184 C 
BRANCH  45  46
HETATM   46  O1  UNL     1      14.856  17.170   8.558  1.00  0.00    -0.399 OA
ATOM     47  H1  UNL     1      14.019  17.368   8.154  1.00  0.00     0.209 HD
ENDBRANCH  45  46
ENDBRANCH  44  45
ENDBRANCH  43  44
BRANCH  43  48
HETATM   48  C5  UNL     1      13.380  20.267   7.615  1.00  0.00     0.143 C 
BRANCH  48  49
HETATM   49  C6  UNL     1      13.824  21.690   7.348  1.00  0.00     0.048 C 
BRANCH  49  50
HETATM   50  C7  UNL     1      12.626  22.603   7.424  1.00  0.00     0.231 C 
BRANCH  50  51
HETATM   51  N4  UNL     1      11.433  21.864   7.087  1.00  0.00    -0.079 N 
ATOM     52  H43 UNL     1      11.504  21.415   6.174  1.00  0.00     0.274 HD
ATOM     53  H42 UNL     1      11.328  21.023   7.656  1.00  0.00     0.274 HD
ATOM     54  H41 UNL     1      10.621  22.477   7.154  1.00  0.00     0.274 HD
ENDBRANCH  50  51
ENDBRANCH  49  50
ENDBRANCH  48  49
ENDBRANCH  43  48
ENDBRANCH   7  43
TORSDOF 19
ENDMDL
MODEL 3
REMARK VINA RESULT: -6.215323981      3.106      7.405
REMARK  19 active torsions:
REMARK  status: ('A' for Active; 'I' for Inactive)
REMARK    1  A    between atoms: C2_7  and  N3_8 
REMARK    2  A    between atoms: N3_8  and  C3_9 
REMARK    3  A    between atoms: N3_8  and  C5_13 
REMARK    4  A    between atoms: C3_9  and  C4_10 
REMARK    5  A    between atoms: C4_10  and  O1_11 
REMARK    6  A    between atoms: C5_13  and  C6_14 
REMARK    7  A    between atoms: C6_14  and  C7_15 
REMARK    8  A    between atoms: C7_15  and  N4_16 
REMARK    9  A    between atoms: N7_27  and  C11_28 
REMARK   10  A    between atoms: C12_30  and  C13_31 
REMARK   11  A    between atoms: C13_31  and  O3_32 
REMARK   12  A    between atoms: C14_34  and  N8_35 
REMARK   13  A    between atoms: C16_42  and  N12_43 
REMARK   14  A    between atoms: C17_46  and  C18_47 
REMARK   15  A    between atoms: C18_47  and  S1_48 
REMARK   16  A    between atoms: S1_48  and  C19_49 
REMARK   17  A    between atoms: C19_49  and  C20_50 
REMARK   18  A    between atoms: C20_50  and  C21_51 
REMARK   19  A    between atoms: C21_51  and  O4_52 
ROOT
HETATM    1  N1  UNL     1      16.667  17.900  10.681  1.00  0.00    -0.383 N 
ATOM      2  H11 UNL     1      17.302  18.656  10.938  1.00  0.00     0.157 HD
ATOM      3  H12 UNL     1      16.851  16.962  11.035  1.00  0.00     0.157 HD
HETATM    4  C1  UNL     1      15.635  18.129   9.908  1.00  0.00     0.145 A 
HETATM    5  N2  UNL     1      14.795  17.130   9.568  1.00  0.00    -0.175 N 
ATOM      6  H2  UNL     1      14.981  16.192   9.924  1.00  0.00     0.186 HD
HETATM    7  C2  UNL     1      13.727  17.320   8.785  1.00  0.00     0.683 A 
HETATM    8  N5  UNL     1      13.478  18.554   8.314  1.00  0.00    -0.173 N 
ATOM      9  H5  UNL     1      12.667  18.710   7.716  1.00  0.00     0.186 HD
HETATM   10  C8  UNL     1      14.284  19.584   8.622  1.00  0.00     0.162 A 
HETATM   11  C9  UNL     1      15.384  19.404   9.426  1.00  0.00     0.123 A 
HETATM   12  N6  UNL     1      15.980  20.588   9.552  1.00  0.00    -0.346 N 
ATOM     13  H6  UNL     1      16.825  20.784  10.087  1.00  0.00     0.167 HD
HETATM   14  C10 UNL     1      15.263  21.480   8.843  1.00  0.00     0.195 A 
HETATM   15  N7  UNL     1      14.210  20.899   8.255  1.00  0.00    -0.250 N 
ENDROOT
BRANCH  15  16
HETATM   16  C11 UNL     1      13.162  21.487   7.401  1.00  0.00     0.275 C 
HETATM   17  O2  UNL     1      13.354  22.806   7.217  1.00  0.00    -0.306 OA
HETATM   18  C12 UNL     1      12.408  23.705   7.635  1.00  0.00     0.184 C 
HETATM   19  C14 UNL     1      11.067  23.118   7.896  1.00  0.00     0.188 C 
HETATM   20  C17 UNL     1      11.092  21.724   8.446  1.00  0.00     0.169 C 
HETATM   21  O5  UNL     1      11.924  20.996   7.647  1.00  0.00    -0.307 OA
BRANCH  18  22
HETATM   22  C13 UNL     1      13.014  24.463   8.799  1.00  0.00     0.199 C 
BRANCH  22  23
HETATM   23  O3  UNL     1      14.311  24.893   8.506  1.00  0.00    -0.398 OA
ATOM     24  H3  UNL     1      14.757  25.203   9.286  1.00  0.00     0.209 HD
ENDBRANCH  22  23
ENDBRANCH  18  22
BRANCH  19  25
HETATM   25  N8  UNL     1      10.236  24.034   8.577  1.00  0.00    -0.112 N 
HETATM   26  N9  UNL     1       9.988  23.925   9.892  1.00  0.00    -0.256 N 
HETATM   27  C15 UNL     1       9.198  24.912  10.283  1.00  0.00     0.222 A 
ATOM     28  H9  UNL     1      10.355  23.191  10.498  1.00  0.00     0.190 HD
HETATM   29  N10 UNL     1       8.708  25.162  11.595  1.00  0.00    -0.061 NA
HETATM   30  N11 UNL     1       8.921  25.672   9.234  1.00  0.00    -0.161 N 
HETATM   31  C16 UNL     1       9.563  25.125   8.190  1.00  0.00     0.695 A 
ATOM     32  H11 UNL     1       8.336  26.508   9.221  1.00  0.00     0.187 HD
BRANCH  31  33
HETATM   33  N12 UNL     1       9.530  25.582   7.013  1.00  0.00    -0.233 N 
ATOM     34 2H12 UNL     1      10.343  25.941   6.511  1.00  0.00     0.174 HD
ATOM     35 1H12 UNL     1       8.697  25.646   6.429  1.00  0.00     0.174 HD
ENDBRANCH  31  33
ENDBRANCH  19  25
BRANCH  20  36
HETATM   36  C18 UNL     1       9.672  21.171   8.193  1.00  0.00     0.108 C 
BRANCH  36  37
HETATM   37  S1  UNL     1       9.234  21.137   6.485  1.00  0.00    -0.166 SA
BRANCH  37  38
HETATM   38  C19 UNL     1       9.735  19.756   5.509  1.00  0.00     0.076 C 
BRANCH  38  39
HETATM   39  C20 UNL     1       9.095  18.460   5.860  1.00  0.00     0.036 C 
BRANCH  39  40
HETATM   40  C21 UNL     1       9.628  17.716   7.025  1.00  0.00     0.165 C 
BRANCH  40  41
HETATM   41  O4  UNL     1       8.546  17.213   7.776  1.00  0.00    -0.401 OA
ATOM     42  H4  UNL     1       8.866  16.529   8.354  1.00  0.00     0.209 HD
ENDBRANCH  40  41
ENDBRANCH  39  40
ENDBRANCH  38  39
ENDBRANCH  37  38
ENDBRANCH  36  37
ENDBRANCH  20  36
ENDBRANCH  15  16
BRANCH   7  43
HETATM   43  N3  UNL     1      12.841  16.224   8.448  1.00  0.00    -0.215 N 
BRANCH  43  44
HETATM   44  C3  UNL     1      12.830  15.717   7.105  1.00  0.00     0.167 C 
BRANCH  44  45
HETATM   45  C4  UNL     1      14.042  14.935   6.711  1.00  0.00     0.184 C 
BRANCH  45  46
HETATM   46  O1  UNL     1      14.381  15.025   5.368  1.00  0.00    -0.399 OA
ATOM     47  H1  UNL     1      14.662  14.208   4.972  1.00  0.00     0.209 HD
ENDBRANCH  45  46
ENDBRANCH  44  45
ENDBRANCH  43  44
BRANCH  43  48
HETATM   48  C5  UNL     1      11.990  15.677   9.468  1.00  0.00     0.143 C 
BRANCH  48  49
HETATM   49  C6  UNL     1      12.595  14.441  10.104  1.00  0.00     0.048 C 
BRANCH  49  50
HETATM   50  C7  UNL     1      11.682  13.265   9.863  1.00  0.00     0.231 C 
BRANCH  50  51
HETATM   51  N4  UNL     1      10.339  13.606  10.266  1.00  0.00    -0.079 N 
ATOM     52  H43 UNL     1       9.691  12.827  10.143  1.00  0.00     0.274 HD
ATOM     53  H42 UNL     1      10.255  13.707  11.279  1.00  0.00     0.274 HD
ATOM     54  H41 UNL     1      10.035  14.443   9.769  1.00  0.00     0.274 HD
ENDBRANCH  50  51
ENDBRANCH  49  50
ENDBRANCH  48  49
ENDBRANCH  43  48
ENDBRANCH   7  43
TORSDOF 19
ENDMDL
MODEL 4
REMARK VINA RESULT: -6.209364496      3.067      6.636
REMARK  19 active torsions:
REMARK  status: ('A' for Active; 'I' for Inactive)
REMARK    1  A    between atoms: C2_7  and  N3_8 
REMARK    2  A    between atoms: N3_8  and  C3_9 
REMARK    3  A    between atoms: N3_8  and  C5_13 
REMARK    4  A    between atoms: C3_9  and  C4_10 
REMARK    5  A    between atoms: C4_10  and  O1_11 
REMARK    6  A    between atoms: C5_13  and  C6_14 
REMARK    7  A    between atoms: C6_14  and  C7_15 
REMARK    8  A    between atoms: C7_15  and  N4_16 
REMARK    9  A    between atoms: N7_27  and  C11_28 
REMARK   10  A    between atoms: C12_30  and  C13_31 
REMARK   11  A    between atoms: C13_31  and  O3_32 
REMARK   12  A    between atoms: C14_34  and  N8_35 
REMARK   13  A    between atoms: C16_42  and  N12_43 
REMARK   14  A    between atoms: C17_46  and  C18_47 
REMARK   15  A    between atoms: C18_47  and  S1_48 
REMARK   16  A    between atoms: S1_48  and  C19_49 
REMARK   17  A    between atoms: C19_49  and  C20_50 
REMARK   18  A    between atoms: C20_50  and  C21_51 
REMARK   19  A    between atoms: C21_51  and  O4_52 
ROOT
HETATM    1  N1  UNL     1       8.616  17.116   9.243  1.00  0.00    -0.383 N 
ATOM      2  H11 UNL     1       8.073  17.967   9.389  1.00  0.00     0.157 HD
ATOM      3  H12 UNL     1       8.229  16.226   9.558  1.00  0.00     0.157 HD
HETATM    4  C1  UNL     1       9.789  17.164   8.663  1.00  0.00     0.145 A 
HETATM    5  N2  UNL     1      10.507  16.039   8.469  1.00  0.00    -0.175 N 
ATOM      6  H2  UNL     1      10.119  15.151   8.785  1.00  0.00     0.186 HD
HETATM    7  C2  UNL     1      11.707  16.042   7.878  1.00  0.00     0.683 A 
HETATM    8  N5  UNL     1      12.222  17.211   7.460  1.00  0.00    -0.173 N 
ATOM      9  H5  UNL     1      13.137  17.225   7.008  1.00  0.00     0.186 HD
HETATM   10  C8  UNL     1      11.548  18.361   7.630  1.00  0.00     0.162 A 
HETATM   11  C9  UNL     1      10.314  18.373   8.235  1.00  0.00     0.123 A 
HETATM   12  N6  UNL     1       9.898  19.638   8.260  1.00  0.00    -0.346 N 
ATOM     13  H6  UNL     1       9.017  19.975   8.647  1.00  0.00     0.167 HD
HETATM   14  C10 UNL     1      10.853  20.390   7.682  1.00  0.00     0.195 A 
HETATM   15  N7  UNL     1      11.887  19.639   7.281  1.00  0.00    -0.250 N 
ENDROOT
BRANCH  15  16
HETATM   16  C11 UNL     1      13.133  20.034   6.601  1.00  0.00     0.275 C 
HETATM   17  O2  UNL     1      14.122  19.150   6.825  1.00  0.00    -0.306 OA
HETATM   18  C12 UNL     1      15.273  19.549   7.455  1.00  0.00     0.184 C 
HETATM   19  C14 UNL     1      15.490  21.020   7.475  1.00  0.00     0.188 C 
HETATM   20  C17 UNL     1      14.237  21.835   7.585  1.00  0.00     0.169 C 
HETATM   21  O5  UNL     1      13.373  21.366   6.639  1.00  0.00    -0.307 OA
BRANCH  18  22
HETATM   22  C13 UNL     1      15.277  18.882   8.815  1.00  0.00     0.199 C 
BRANCH  22  23
HETATM   23  O3  UNL     1      14.941  17.528   8.719  1.00  0.00    -0.398 OA
ATOM     24  H3  UNL     1      14.833  17.137   9.577  1.00  0.00     0.209 HD
ENDBRANCH  22  23
ENDBRANCH  18  22
BRANCH  19  25
HETATM   25  N8  UNL     1      16.530  21.367   8.366  1.00  0.00    -0.112 N 
HETATM   26  N9  UNL     1      16.282  21.823   9.603  1.00  0.00    -0.256 N 
HETATM   27  C15 UNL     1      17.422  22.058  10.232  1.00  0.00     0.222 A 
ATOM     28  H9  UNL     1      15.353  21.966  10.000  1.00  0.00     0.190 HD
HETATM   29  N10 UNL     1      17.597  22.539  11.559  1.00  0.00    -0.061 NA
HETATM   30  N11 UNL     1      18.423  21.761   9.416  1.00  0.00    -0.161 N 
HETATM   31  C16 UNL     1      17.865  21.337   8.271  1.00  0.00     0.695 A 
ATOM     32  H11 UNL     1      19.420  21.838   9.618  1.00  0.00     0.187 HD
BRANCH  31  33
HETATM   33  N12 UNL     1      18.516  20.966   7.255  1.00  0.00    -0.233 N 
ATOM     34 2H12 UNL     1      18.359  20.089   6.759  1.00  0.00     0.174 HD
ATOM     35 1H12 UNL     1      19.269  21.492   6.813  1.00  0.00     0.174 HD
ENDBRANCH  31  33
ENDBRANCH  19  25
BRANCH  20  36
HETATM   36  C18 UNL     1      14.641  23.252   7.123  1.00  0.00     0.108 C 
BRANCH  36  37
HETATM   37  S1  UNL     1      13.297  24.395   7.132  1.00  0.00    -0.166 SA
BRANCH  37  38
HETATM   38  C19 UNL     1      12.383  24.639   5.643  1.00  0.00     0.076 C 
BRANCH  38  39
HETATM   39  C20 UNL     1      11.185  23.772   5.480  1.00  0.00     0.036 C 
BRANCH  39  40
HETATM   40  C21 UNL     1      11.225  22.721   4.436  1.00  0.00     0.165 C 
BRANCH  40  41
HETATM   41  O4  UNL     1      12.567  22.503   4.064  1.00  0.00    -0.401 OA
ATOM     42  H4  UNL     1      12.602  22.331   3.130  1.00  0.00     0.209 HD
ENDBRANCH  40  41
ENDBRANCH  39  40
ENDBRANCH  38  39
ENDBRANCH  37  38
ENDBRANCH  36  37
ENDBRANCH  20  36
ENDBRANCH  15  16
BRANCH   7  43
HETATM   43  N3  UNL     1      12.447  14.812   7.678  1.00  0.00    -0.215 N 
BRANCH  43  44
HETATM   44  C3  UNL     1      13.048  14.555   6.400  1.00  0.00     0.167 C 
BRANCH  44  45
HETATM   45  C4  UNL     1      14.481  14.964   6.278  1.00  0.00     0.184 C 
BRANCH  45  46
HETATM   46  O1  UNL     1      14.680  16.309   5.992  1.00  0.00    -0.399 OA
ATOM     47  H1  UNL     1      15.307  16.748   6.555  1.00  0.00     0.209 HD
ENDBRANCH  45  46
ENDBRANCH  44  45
ENDBRANCH  43  44
BRANCH  43  48
HETATM   48  C5  UNL     1      12.554  13.879   8.764  1.00  0.00     0.143 C 
BRANCH  48  49
HETATM   49  C6  UNL     1      11.974  12.526   8.405  1.00  0.00     0.048 C 
BRANCH  49  50
HETATM   50  C7  UNL     1      10.541  12.464   8.869  1.00  0.00     0.231 C 
BRANCH  50  51
HETATM   51  N4  UNL     1      10.424  13.095  10.161  1.00  0.00    -0.079 N 
ATOM     52  H43 UNL     1       9.898  12.523  10.823  1.00  0.00     0.274 HD
ATOM     53  H42 UNL     1      11.313  13.116  10.662  1.00  0.00     0.274 HD
ATOM     54  H41 UNL     1      10.021  14.026  10.052  1.00  0.00     0.274 HD
ENDBRANCH  50  51
ENDBRANCH  49  50
ENDBRANCH  48  49
ENDBRANCH  43  48
ENDBRANCH   7  43
TORSDOF 19
ENDMDL
MODEL 5
REMARK VINA RESULT: -6.200178068      2.946      7.408
REMARK  19 active torsions:
REMARK  status: ('A' for Active; 'I' for Inactive)
REMARK    1  A    between atoms: C2_7  and  N3_8 
REMARK    2  A    between atoms: N3_8  and  C3_9 
REMARK    3  A    between atoms: N3_8  and  C5_13 
REMARK    4  A    between atoms: C3_9  and  C4_10 
REMARK    5  A    between atoms: C4_10  and  O1_11 
REMARK    6  A    between atoms: C5_13  and  C6_14 
REMARK    7  A    between atoms: C6_14  and  C7_15 
REMARK    8  A    between atoms: C7_15  and  N4_16 
REMARK    9  A    between atoms: N7_27  and  C11_28 
REMARK   10  A    between atoms: C12_30  and  C13_31 
REMARK   11  A    between atoms: C13_31  and  O3_32 
REMARK   12  A    between atoms: C14_34  and  N8_35 
REMARK   13  A    between atoms: C16_42  and  N12_43 
REMARK   14  A    between atoms: C17_46  and  C18_47 
REMARK   15  A    between atoms: C18_47  and  S1_48 
REMARK   16  A    between atoms: S1_48  and  C19_49 
REMARK   17  A    between atoms: C19_49  and  C20_50 
REMARK   18  A    between atoms: C20_50  and  C21_51 
REMARK   19  A    between atoms: C21_51  and  O4_52 
ROOT
HETATM    1  N1  UNL     1      14.954  14.163   6.906  1.00  0.00    -0.383 N 
ATOM      2  H11 UNL     1      15.600  14.610   6.255  1.00  0.00     0.157 HD
ATOM      3  H12 UNL     1      15.237  13.294   7.360  1.00  0.00     0.157 HD
HETATM    4  C1  UNL     1      13.783  14.692   7.153  1.00  0.00     0.145 A 
HETATM    5  N2  UNL     1      12.929  14.102   8.014  1.00  0.00    -0.175 N 
ATOM      6  H2  UNL     1      13.213  13.234   8.466  1.00  0.00     0.186 HD
HETATM    7  C2  UNL     1      11.724  14.610   8.298  1.00  0.00     0.683 A 
HETATM    8  N5  UNL     1      11.345  15.755   7.703  1.00  0.00    -0.173 N 
ATOM      9  H5  UNL     1      10.429  16.151   7.912  1.00  0.00     0.186 HD
HETATM   10  C8  UNL     1      12.158  16.383   6.837  1.00  0.00     0.162 A 
HETATM   11  C9  UNL     1      13.399  15.873   6.536  1.00  0.00     0.123 A 
HETATM   12  N6  UNL     1      13.965  16.701   5.662  1.00  0.00    -0.346 N 
ATOM     13  H6  UNL     1      14.889  16.598   5.244  1.00  0.00     0.167 HD
HETATM   14  C10 UNL     1      13.095  17.702   5.429  1.00  0.00     0.195 A 
HETATM   15  N7  UNL     1      11.969  17.541   6.135  1.00  0.00    -0.250 N 
ENDROOT
BRANCH  15  16
HETATM   16  C11 UNL     1      10.765  18.387   6.198  1.00  0.00     0.275 C 
HETATM   17  O2  UNL     1      10.576  19.068   5.053  1.00  0.00    -0.306 OA
HETATM   18  C12 UNL     1      10.574  20.439   5.058  1.00  0.00     0.184 C 
HETATM   19  C14 UNL     1      10.380  21.053   6.399  1.00  0.00     0.188 C 
HETATM   20  C17 UNL     1      10.992  20.285   7.532  1.00  0.00     0.169 C 
HETATM   21  O5  UNL     1      10.587  18.989   7.398  1.00  0.00    -0.307 OA
BRANCH  18  22
HETATM   22  C13 UNL     1      11.827  20.878   4.328  1.00  0.00     0.199 C 
BRANCH  22  23
HETATM   23  O3  UNL     1      12.031  20.123   3.169  1.00  0.00    -0.398 OA
ATOM     24  H3  UNL     1      11.382  20.326   2.506  1.00  0.00     0.209 HD
ENDBRANCH  22  23
ENDBRANCH  18  22
BRANCH  19  25
HETATM   25  N8  UNL     1      10.664  22.436   6.369  1.00  0.00    -0.112 N 
HETATM   26  N9  UNL     1       9.760  23.337   5.955  1.00  0.00    -0.256 N 
HETATM   27  C15 UNL     1      10.269  24.556   6.038  1.00  0.00     0.222 A 
ATOM     28  H9  UNL     1       8.820  23.115   5.625  1.00  0.00     0.190 HD
HETATM   29  N10 UNL     1       9.636  25.785   5.705  1.00  0.00    -0.061 NA
HETATM   30  N11 UNL     1      11.506  24.465   6.505  1.00  0.00    -0.161 N 
HETATM   31  C16 UNL     1      11.741  23.158   6.705  1.00  0.00     0.695 A 
ATOM     32  H11 UNL     1      12.153  25.235   6.678  1.00  0.00     0.187 HD
BRANCH  31  33
HETATM   33  N12 UNL     1      12.825  22.688   7.147  1.00  0.00    -0.233 N 
ATOM     34 2H12 UNL     1      12.895  21.867   7.748  1.00  0.00     0.174 HD
ATOM     35 1H12 UNL     1      13.753  23.068   6.958  1.00  0.00     0.174 HD
ENDBRANCH  31  33
ENDBRANCH  19  25
BRANCH  20  36
HETATM   36  C18 UNL     1      10.289  20.818   8.800  1.00  0.00     0.108 C 
BRANCH  36  37
HETATM   37  S1  UNL     1      11.227  20.567  10.271  1.00  0.00    -0.166 SA
BRANCH  37  38
HETATM   38  C19 UNL     1      12.894  20.005  10.128  1.00  0.00     0.076 C 
BRANCH  38  39
HETATM   39  C20 UNL     1      13.057  18.550   9.866  1.00  0.00     0.036 C 
BRANCH  39  40
HETATM   40  C21 UNL     1      14.392  18.067   9.443  1.00  0.00     0.165 C 
BRANCH  40  41
HETATM   41  O4  UNL     1      15.045  17.501  10.557  1.00  0.00    -0.401 OA
ATOM     42  H4  UNL     1      15.600  16.790  10.258  1.00  0.00     0.209 HD
ENDBRANCH  40  41
ENDBRANCH  39  40
ENDBRANCH  38  39
ENDBRANCH  37  38
ENDBRANCH  36  37
ENDBRANCH  20  36
ENDBRANCH  15  16
BRANCH   7  43
HETATM   43  N3  UNL     1      10.836  13.953   9.235  1.00  0.00    -0.215 N 
BRANCH  43  44
HETATM   44  C3  UNL     1      10.830  12.519   9.309  1.00  0.00     0.167 C 
BRANCH  44  45
HETATM   45  C4  UNL     1      10.827  11.814   7.991  1.00  0.00     0.184 C 
BRANCH  45  46
HETATM   46  O1  UNL     1      12.078  11.407   7.546  1.00  0.00    -0.399 OA
ATOM     47  H1  UNL     1      12.072  10.922   6.729  1.00  0.00     0.209 HD
ENDBRANCH  45  46
ENDBRANCH  44  45
ENDBRANCH  43  44
BRANCH  43  48
HETATM   48  C5  UNL     1       9.979  14.755  10.063  1.00  0.00     0.143 C 
BRANCH  48  49
HETATM   49  C6  UNL     1      10.664  16.028  10.518  1.00  0.00     0.048 C 
BRANCH  49  50
HETATM   50  C7  UNL     1       9.644  17.136  10.593  1.00  0.00     0.231 C 
BRANCH  50  51
HETATM   51  N4  UNL     1       8.890  17.183   9.364  1.00  0.00    -0.079 N 
ATOM     52  H43 UNL     1       9.476  17.016   8.546  1.00  0.00     0.274 HD
ATOM     53  H42 UNL     1       8.266  16.382   9.263  1.00  0.00     0.274 HD
ATOM     54  H41 UNL     1       8.390  18.070   9.304  1.00  0.00     0.274 HD
ENDBRANCH  50  51
ENDBRANCH  49  50
ENDBRANCH  48  49
ENDBRANCH  43  48
ENDBRANCH   7  43
TORSDOF 19
ENDMDL
