MODEL 1
REMARK VINA RESULT: -10.459209857      0.000      0.000
REMARK  15 active torsions:
REMARK  status: ('A' for Active; 'I' for Inactive)
REMARK       I    between atoms: N2_6  and  C4_8 
REMARK    1  A    between atoms: C4_8  and  C5_10 
REMARK    2  A    between atoms: C8_15  and  C9_16 
REMARK    3  A    between atoms: C9_16  and  C10_17 
REMARK    4  A    between atoms: C10_17  and  C11_18 
REMARK    5  A    between atoms: C11_18  and  O5_20 
REMARK    6  A    between atoms: O5_20  and  C12_21 
REMARK    7  A    between atoms: C12_21  and  C13_22 
REMARK    8  A    between atoms: C13_22  and  C14_23 
REMARK    9  A    between atoms: C14_23  and  C15_24 
REMARK   10  A    between atoms: C21_30  and  C22_31 
REMARK   11  A    between atoms: C22_31  and  C23_32 
REMARK   12  A    between atoms: C26_35  and  C27_36 
REMARK   13  A    between atoms: C27_36  and  C28_37 
REMARK   14  A    between atoms: C28_37  and  C29_38 
REMARK   15  A    between atoms: C29_38  and  N3_39 
REMARK       I    between atoms: N3_39  and  C30_41 
ROOT
HETATM    1  C15 UNL     1      -9.382  15.546  32.543  1.00  0.00    -0.057 A 
HETATM    2  C16 UNL     1     -10.184  16.049  33.544  1.00  0.00     0.009 A 
HETATM    3  C17 UNL     1     -11.568  15.931  33.487  1.00  0.00     0.031 A 
HETATM    4  C18 UNL     1     -12.175  15.303  32.420  1.00  0.00     0.046 A 
HETATM    5  C19 UNL     1     -11.406  14.789  31.401  1.00  0.00     0.003 A 
HETATM    6  C20 UNL     1     -10.024  14.921  31.482  1.00  0.00     0.021 A 
HETATM    7  C21 UNL     1     -12.212  14.233  30.489  1.00  0.00     0.027 A 
HETATM    8  C33 UNL     1     -13.572  14.416  30.976  1.00  0.00     0.253 A 
HETATM    9  O6  UNL     1     -14.675  14.062  30.463  1.00  0.00    -0.268 OA
HETATM   10  N6  UNL     1     -13.435  15.111  32.219  1.00  0.00    -0.322 N 
ATOM     11  H6  UNL     1     -14.195  15.402  32.834  1.00  0.00     0.169 HD
ENDROOT
BRANCH   1  12
HETATM   12  C14 UNL     1      -7.897  15.662  32.590  1.00  0.00     0.041 C 
BRANCH  12  13
HETATM   13  C13 UNL     1      -7.340  16.724  31.703  1.00  0.00     0.031 C 
BRANCH  13  14
HETATM   14  C12 UNL     1      -7.619  16.505  30.237  1.00  0.00     0.179 C 
BRANCH  14  15
HETATM   15  O5  UNL     1      -7.138  17.481  29.380  1.00  0.00    -0.321 OA
BRANCH  15  16
HETATM   16  C11 UNL     1      -6.626  17.335  28.122  1.00  0.00     0.259 C 
HETATM   17  O4  UNL     1      -6.222  16.200  27.773  1.00  0.00    -0.265 OA
BRANCH  16  18
HETATM   18  C10 UNL     1      -6.540  18.461  27.182  1.00  0.00     0.116 C 
BRANCH  18  19
HETATM   19  C9  UNL     1      -5.200  18.639  26.545  1.00  0.00     0.050 C 
BRANCH  19  20
HETATM   20  C8  UNL     1      -5.207  18.577  25.073  1.00  0.00    -0.035 A 
HETATM   21  C2  UNL     1      -4.364  17.744  24.410  1.00  0.00     0.013 A 
HETATM   22  C1  UNL     1      -3.401  16.856  25.152  1.00  0.00     0.068 C 
HETATM   23  N1  UNL     1      -4.340  17.660  23.057  1.00  0.00    -0.346 N 
HETATM   24  C3  UNL     1      -5.177  18.424  22.337  1.00  0.00     0.108 A 
ATOM     25  H1  UNL     1      -3.693  17.022  22.591  1.00  0.00     0.167 HD
HETATM   26  N2  UNL     1      -5.182  18.369  21.062  1.00  0.00    -0.304 N 
HETATM   27  C6  UNL     1      -6.055  19.291  22.970  1.00  0.00     0.049 A 
HETATM   28  C4  UNL     1      -4.310  17.503  20.373  1.00  0.00     0.323 C 
ATOM     29  H2  UNL     1      -5.826  18.958  20.535  1.00  0.00     0.171 HD
HETATM   30  O1  UNL     1      -3.072  17.709  20.317  1.00  0.00    -0.260 OA
HETATM   31  C7  UNL     1      -6.080  19.376  24.335  1.00  0.00     0.013 A 
BRANCH  28  32
HETATM   32  C5  UNL     1      -4.854  16.333  19.703  1.00  0.00     0.270 C 
HETATM   33  O2  UNL     1      -6.062  16.025  19.863  1.00  0.00    -0.640 OA
HETATM   34  O3  UNL     1      -4.085  15.524  18.879  1.00  0.00    -0.640 OA
ENDBRANCH  28  32
ENDBRANCH  19  20
ENDBRANCH  18  19
ENDBRANCH  16  18
ENDBRANCH  15  16
ENDBRANCH  14  15
ENDBRANCH  13  14
ENDBRANCH  12  13
ENDBRANCH   1  12
BRANCH   7  35
HETATM   35  C22 UNL     1     -11.817  13.571  29.244  1.00  0.00     0.083 C 
BRANCH  35  36
HETATM   36  C23 UNL     1     -11.215  14.441  28.227  1.00  0.00    -0.054 A 
HETATM   37  C24 UNL     1     -11.943  15.367  27.509  1.00  0.00     0.008 A 
HETATM   38  C25 UNL     1     -11.344  16.177  26.550  1.00  0.00     0.007 A 
HETATM   39  C26 UNL     1      -9.991  16.066  26.296  1.00  0.00    -0.058 A 
HETATM   40  C31 UNL     1      -9.260  15.151  27.003  1.00  0.00     0.007 A 
HETATM   41  C32 UNL     1      -9.872  14.352  27.955  1.00  0.00     0.008 A 
BRANCH  39  42
HETATM   42  C27 UNL     1      -9.430  16.969  25.251  1.00  0.00     0.040 C 
BRANCH  42  43
HETATM   43  C28 UNL     1      -8.271  16.301  24.539  1.00  0.00     0.024 C 
BRANCH  43  44
HETATM   44  C29 UNL     1      -8.716  15.592  23.293  1.00  0.00     0.122 C 
BRANCH  44  45
HETATM   45  N3  UNL     1      -8.178  16.212  22.110  1.00  0.00    -0.365 N 
HETATM   46  C30 UNL     1      -8.968  16.960  21.202  1.00  0.00     0.181 C 
HETATM   47  N4  UNL     1     -10.108  16.540  20.812  1.00  0.00    -0.374 N 
HETATM   48  N5  UNL     1      -8.470  18.218  20.712  1.00  0.00    -0.064 NA
ATOM     49  H42 UNL     1     -10.461  15.648  21.160  1.00  0.00     0.158 HD
ATOM     50  H41 UNL     1     -10.677  17.078  20.159  1.00  0.00     0.158 HD
ATOM     51  H3  UNL     1      -7.182  16.108  21.916  1.00  0.00     0.162 HD
ENDBRANCH  44  45
ENDBRANCH  43  44
ENDBRANCH  42  43
ENDBRANCH  39  42
ENDBRANCH  35  36
ENDBRANCH   7  35
TORSDOF 15
ENDMDL
MODEL 2
REMARK VINA RESULT: -10.335807315      1.000      1.410
REMARK  15 active torsions:
REMARK  status: ('A' for Active; 'I' for Inactive)
REMARK       I    between atoms: N2_6  and  C4_8 
REMARK    1  A    between atoms: C4_8  and  C5_10 
REMARK    2  A    between atoms: C8_15  and  C9_16 
REMARK    3  A    between atoms: C9_16  and  C10_17 
REMARK    4  A    between atoms: C10_17  and  C11_18 
REMARK    5  A    between atoms: C11_18  and  O5_20 
REMARK    6  A    between atoms: O5_20  and  C12_21 
REMARK    7  A    between atoms: C12_21  and  C13_22 
REMARK    8  A    between atoms: C13_22  and  C14_23 
REMARK    9  A    between atoms: C14_23  and  C15_24 
REMARK   10  A    between atoms: C21_30  and  C22_31 
REMARK   11  A    between atoms: C22_31  and  C23_32 
REMARK   12  A    between atoms: C26_35  and  C27_36 
REMARK   13  A    between atoms: C27_36  and  C28_37 
REMARK   14  A    between atoms: C28_37  and  C29_38 
REMARK   15  A    between atoms: C29_38  and  N3_39 
REMARK       I    between atoms: N3_39  and  C30_41 
ROOT
HETATM    1  C15 UNL     1      -9.412  15.534  32.758  1.00  0.00    -0.057 A 
HETATM    2  C16 UNL     1     -10.235  16.092  33.712  1.00  0.00     0.009 A 
HETATM    3  C17 UNL     1     -11.619  15.992  33.618  1.00  0.00     0.031 A 
HETATM    4  C18 UNL     1     -12.204  15.327  32.561  1.00  0.00     0.046 A 
HETATM    5  C19 UNL     1     -11.413  14.758  31.589  1.00  0.00     0.003 A 
HETATM    6  C20 UNL     1     -10.033  14.872  31.706  1.00  0.00     0.021 A 
HETATM    7  C21 UNL     1     -12.201  14.175  30.678  1.00  0.00     0.027 A 
HETATM    8  C33 UNL     1     -13.571  14.399  31.116  1.00  0.00     0.253 A 
HETATM    9  O6  UNL     1     -14.664  14.038  30.585  1.00  0.00    -0.268 OA
HETATM   10  N6  UNL     1     -13.460  15.146  32.331  1.00  0.00    -0.322 N 
ATOM     11  H6  UNL     1     -14.233  15.474  32.909  1.00  0.00     0.169 HD
ENDROOT
BRANCH   1  12
HETATM   12  C14 UNL     1      -7.928  15.630  32.844  1.00  0.00     0.041 C 
BRANCH  12  13
HETATM   13  C13 UNL     1      -7.382  16.974  32.497  1.00  0.00     0.031 C 
BRANCH  13  14
HETATM   14  C12 UNL     1      -6.752  17.043  31.128  1.00  0.00     0.179 C 
BRANCH  14  15
HETATM   15  O5  UNL     1      -7.562  16.659  30.073  1.00  0.00    -0.321 OA
BRANCH  15  16
HETATM   16  C11 UNL     1      -8.294  17.446  29.229  1.00  0.00     0.259 C 
HETATM   17  O4  UNL     1      -9.525  17.559  29.439  1.00  0.00    -0.265 OA
BRANCH  16  18
HETATM   18  C10 UNL     1      -7.679  18.153  28.097  1.00  0.00     0.116 C 
BRANCH  18  19
HETATM   19  C9  UNL     1      -6.528  17.438  27.468  1.00  0.00     0.050 C 
BRANCH  19  20
HETATM   20  C8  UNL     1      -6.352  17.703  26.028  1.00  0.00    -0.035 A 
HETATM   21  C2  UNL     1      -5.184  17.404  25.405  1.00  0.00     0.013 A 
HETATM   22  C1  UNL     1      -4.034  16.789  26.157  1.00  0.00     0.068 C 
HETATM   23  N1  UNL     1      -4.985  17.635  24.084  1.00  0.00    -0.346 N 
HETATM   24  C3  UNL     1      -5.974  18.180  23.357  1.00  0.00     0.108 A 
ATOM     25  H1  UNL     1      -4.093  17.398  23.647  1.00  0.00     0.167 HD
HETATM   26  N2  UNL     1      -5.820  18.409  22.111  1.00  0.00    -0.304 N 
HETATM   27  C6  UNL     1      -7.184  18.504  23.950  1.00  0.00     0.049 A 
HETATM   28  C4  UNL     1      -4.610  18.097  21.462  1.00  0.00     0.323 C 
ATOM     29  H2  UNL     1      -6.585  18.824  21.577  1.00  0.00     0.171 HD
HETATM   30  O1  UNL     1      -3.555  18.748  21.668  1.00  0.00    -0.260 OA
HETATM   31  C7  UNL     1      -7.386  18.270  25.283  1.00  0.00     0.013 A 
BRANCH  28  32
HETATM   32  C5  UNL     1      -4.573  16.988  20.523  1.00  0.00     0.270 C 
HETATM   33  O2  UNL     1      -5.531  16.809  19.727  1.00  0.00    -0.640 OA
HETATM   34  O3  UNL     1      -3.509  16.100  20.463  1.00  0.00    -0.640 OA
ENDBRANCH  28  32
ENDBRANCH  19  20
ENDBRANCH  18  19
ENDBRANCH  16  18
ENDBRANCH  15  16
ENDBRANCH  14  15
ENDBRANCH  13  14
ENDBRANCH  12  13
ENDBRANCH   1  12
BRANCH   7  35
HETATM   35  C22 UNL     1     -11.780  13.452  29.476  1.00  0.00     0.083 C 
BRANCH  35  36
HETATM   36  C23 UNL     1     -11.356  14.292  28.349  1.00  0.00    -0.054 A 
HETATM   37  C24 UNL     1     -10.046  14.369  27.925  1.00  0.00     0.008 A 
HETATM   38  C25 UNL     1      -9.675  15.175  26.854  1.00  0.00     0.007 A 
HETATM   39  C26 UNL     1     -10.626  15.924  26.188  1.00  0.00    -0.058 A 
HETATM   40  C31 UNL     1     -11.927  15.854  26.601  1.00  0.00     0.007 A 
HETATM   41  C32 UNL     1     -12.281  15.046  27.668  1.00  0.00     0.008 A 
BRANCH  39  42
HETATM   42  C27 UNL     1     -10.143  16.763  25.054  1.00  0.00     0.040 C 
BRANCH  42  43
HETATM   43  C28 UNL     1     -10.593  16.178  23.731  1.00  0.00     0.024 C 
BRANCH  43  44
HETATM   44  C29 UNL     1      -9.548  15.283  23.132  1.00  0.00     0.122 C 
BRANCH  44  45
HETATM   45  N3  UNL     1      -8.726  15.989  22.183  1.00  0.00    -0.365 N 
HETATM   46  C30 UNL     1      -9.257  16.697  21.077  1.00  0.00     0.181 C 
HETATM   47  N4  UNL     1     -10.172  16.193  20.344  1.00  0.00    -0.374 N 
HETATM   48  N5  UNL     1      -8.751  18.011  20.777  1.00  0.00    -0.064 NA
ATOM     49  H42 UNL     1     -10.532  15.263  20.557  1.00  0.00     0.158 HD
ATOM     50  H41 UNL     1     -10.556  16.703  19.548  1.00  0.00     0.158 HD
ATOM     51  H3  UNL     1      -7.714  15.979  22.314  1.00  0.00     0.162 HD
ENDBRANCH  44  45
ENDBRANCH  43  44
ENDBRANCH  42  43
ENDBRANCH  39  42
ENDBRANCH  35  36
ENDBRANCH   7  35
TORSDOF 15
ENDMDL
MODEL 3
REMARK VINA RESULT: -10.194562368      1.924      2.266
REMARK  15 active torsions:
REMARK  status: ('A' for Active; 'I' for Inactive)
REMARK       I    between atoms: N2_6  and  C4_8 
REMARK    1  A    between atoms: C4_8  and  C5_10 
REMARK    2  A    between atoms: C8_15  and  C9_16 
REMARK    3  A    between atoms: C9_16  and  C10_17 
REMARK    4  A    between atoms: C10_17  and  C11_18 
REMARK    5  A    between atoms: C11_18  and  O5_20 
REMARK    6  A    between atoms: O5_20  and  C12_21 
REMARK    7  A    between atoms: C12_21  and  C13_22 
REMARK    8  A    between atoms: C13_22  and  C14_23 
REMARK    9  A    between atoms: C14_23  and  C15_24 
REMARK   10  A    between atoms: C21_30  and  C22_31 
REMARK   11  A    between atoms: C22_31  and  C23_32 
REMARK   12  A    between atoms: C26_35  and  C27_36 
REMARK   13  A    between atoms: C27_36  and  C28_37 
REMARK   14  A    between atoms: C28_37  and  C29_38 
REMARK   15  A    between atoms: C29_38  and  N3_39 
REMARK       I    between atoms: N3_39  and  C30_41 
ROOT
HETATM    1  C15 UNL     1      -9.474  15.370  32.834  1.00  0.00    -0.057 A 
HETATM    2  C16 UNL     1     -10.306  15.953  33.766  1.00  0.00     0.009 A 
HETATM    3  C17 UNL     1     -11.688  15.933  33.614  1.00  0.00     0.031 A 
HETATM    4  C18 UNL     1     -12.263  15.326  32.517  1.00  0.00     0.046 A 
HETATM    5  C19 UNL     1     -11.464  14.734  31.565  1.00  0.00     0.003 A 
HETATM    6  C20 UNL     1     -10.086  14.768  31.742  1.00  0.00     0.021 A 
HETATM    7  C21 UNL     1     -12.244  14.217  30.608  1.00  0.00     0.027 A 
HETATM    8  C33 UNL     1     -13.617  14.508  30.994  1.00  0.00     0.253 A 
HETATM    9  O6  UNL     1     -14.704  14.221  30.411  1.00  0.00    -0.268 OA
HETATM   10  N6  UNL     1     -13.516  15.220  32.231  1.00  0.00    -0.322 N 
ATOM     11  H6  UNL     1     -14.294  15.579  32.785  1.00  0.00     0.169 HD
ENDROOT
BRANCH   1  12
HETATM   12  C14 UNL     1      -7.993  15.381  32.984  1.00  0.00     0.041 C 
BRANCH  12  13
HETATM   13  C13 UNL     1      -7.378  16.736  32.875  1.00  0.00     0.031 C 
BRANCH  13  14
HETATM   14  C12 UNL     1      -7.138  17.186  31.455  1.00  0.00     0.179 C 
BRANCH  14  15
HETATM   15  O5  UNL     1      -8.204  17.817  30.837  1.00  0.00    -0.321 OA
BRANCH  15  16
HETATM   16  C11 UNL     1      -8.774  17.539  29.627  1.00  0.00     0.259 C 
HETATM   17  O4  UNL     1     -10.026  17.548  29.543  1.00  0.00    -0.265 OA
BRANCH  16  18
HETATM   18  C10 UNL     1      -7.966  17.235  28.438  1.00  0.00     0.116 C 
BRANCH  18  19
HETATM   19  C9  UNL     1      -7.148  18.379  27.932  1.00  0.00     0.050 C 
BRANCH  19  20
HETATM   20  C8  UNL     1      -6.290  18.057  26.778  1.00  0.00    -0.035 A 
HETATM   21  C2  UNL     1      -4.940  17.993  26.914  1.00  0.00     0.013 A 
HETATM   22  C1  UNL     1      -4.277  18.243  28.242  1.00  0.00     0.068 C 
HETATM   23  N1  UNL     1      -4.118  17.701  25.876  1.00  0.00    -0.346 N 
HETATM   24  C3  UNL     1      -4.648  17.465  24.665  1.00  0.00     0.108 A 
ATOM     25  H1  UNL     1      -3.107  17.661  26.014  1.00  0.00     0.167 HD
HETATM   26  N2  UNL     1      -3.904  17.186  23.667  1.00  0.00    -0.304 N 
HETATM   27  C6  UNL     1      -6.021  17.520  24.478  1.00  0.00     0.049 A 
HETATM   28  C4  UNL     1      -2.504  17.117  23.807  1.00  0.00     0.323 C 
ATOM     29  H2  UNL     1      -4.327  17.010  22.756  1.00  0.00     0.171 HD
HETATM   30  O1  UNL     1      -1.800  18.141  23.991  1.00  0.00    -0.260 OA
HETATM   31  C7  UNL     1      -6.852  17.814  25.525  1.00  0.00     0.013 A 
BRANCH  28  32
HETATM   32  C5  UNL     1      -1.846  15.822  23.736  1.00  0.00     0.270 C 
HETATM   33  O2  UNL     1      -1.924  15.026  24.707  1.00  0.00    -0.640 OA
HETATM   34  O3  UNL     1      -1.122  15.416  22.625  1.00  0.00    -0.640 OA
ENDBRANCH  28  32
ENDBRANCH  19  20
ENDBRANCH  18  19
ENDBRANCH  16  18
ENDBRANCH  15  16
ENDBRANCH  14  15
ENDBRANCH  13  14
ENDBRANCH  12  13
ENDBRANCH   1  12
BRANCH   7  35
HETATM   35  C22 UNL     1     -11.812  13.499  29.407  1.00  0.00     0.083 C 
BRANCH  35  36
HETATM   36  C23 UNL     1     -11.375  14.342  28.288  1.00  0.00    -0.054 A 
HETATM   37  C24 UNL     1     -12.215  15.225  27.643  1.00  0.00     0.008 A 
HETATM   38  C25 UNL     1     -11.771  16.010  26.585  1.00  0.00     0.007 A 
HETATM   39  C26 UNL     1     -10.462  15.917  26.154  1.00  0.00    -0.058 A 
HETATM   40  C31 UNL     1      -9.621  15.044  26.786  1.00  0.00     0.007 A 
HETATM   41  C32 UNL     1     -10.078  14.270  27.840  1.00  0.00     0.008 A 
BRANCH  39  42
HETATM   42  C27 UNL     1     -10.070  16.791  25.011  1.00  0.00     0.040 C 
BRANCH  42  43
HETATM   43  C28 UNL     1     -10.473  16.157  23.696  1.00  0.00     0.024 C 
BRANCH  43  44
HETATM   44  C29 UNL     1      -9.370  15.319  23.120  1.00  0.00     0.122 C 
BRANCH  44  45
HETATM   45  N3  UNL     1      -8.600  16.052  22.147  1.00  0.00    -0.365 N 
HETATM   46  C30 UNL     1      -9.189  16.759  21.070  1.00  0.00     0.181 C 
HETATM   47  N4  UNL     1     -10.122  16.243  20.368  1.00  0.00    -0.374 N 
HETATM   48  N5  UNL     1      -8.722  18.086  20.764  1.00  0.00    -0.064 NA
ATOM     49  H42 UNL     1     -10.453  15.303  20.585  1.00  0.00     0.158 HD
ATOM     50  H41 UNL     1     -10.546  16.752  19.593  1.00  0.00     0.158 HD
ATOM     51  H3  UNL     1      -7.584  16.061  22.237  1.00  0.00     0.162 HD
ENDBRANCH  44  45
ENDBRANCH  43  44
ENDBRANCH  42  43
ENDBRANCH  39  42
ENDBRANCH  35  36
ENDBRANCH   7  35
TORSDOF 15
ENDMDL
MODEL 4
REMARK VINA RESULT: -9.865075797      2.653      9.613
REMARK  15 active torsions:
REMARK  status: ('A' for Active; 'I' for Inactive)
REMARK       I    between atoms: N2_6  and  C4_8 
REMARK    1  A    between atoms: C4_8  and  C5_10 
REMARK    2  A    between atoms: C8_15  and  C9_16 
REMARK    3  A    between atoms: C9_16  and  C10_17 
REMARK    4  A    between atoms: C10_17  and  C11_18 
REMARK    5  A    between atoms: C11_18  and  O5_20 
REMARK    6  A    between atoms: O5_20  and  C12_21 
REMARK    7  A    between atoms: C12_21  and  C13_22 
REMARK    8  A    between atoms: C13_22  and  C14_23 
REMARK    9  A    between atoms: C14_23  and  C15_24 
REMARK   10  A    between atoms: C21_30  and  C22_31 
REMARK   11  A    between atoms: C22_31  and  C23_32 
REMARK   12  A    between atoms: C26_35  and  C27_36 
REMARK   13  A    between atoms: C27_36  and  C28_37 
REMARK   14  A    between atoms: C28_37  and  C29_38 
REMARK   15  A    between atoms: C29_38  and  N3_39 
REMARK       I    between atoms: N3_39  and  C30_41 
ROOT
HETATM    1  C15 UNL     1      -6.663  18.781  22.970  1.00  0.00    -0.057 A 
HETATM    2  C16 UNL     1      -7.097  18.763  21.662  1.00  0.00     0.009 A 
HETATM    3  C17 UNL     1      -7.982  17.791  21.210  1.00  0.00     0.031 A 
HETATM    4  C18 UNL     1      -8.449  16.814  22.065  1.00  0.00     0.046 A 
HETATM    5  C19 UNL     1      -8.036  16.801  23.378  1.00  0.00     0.003 A 
HETATM    6  C20 UNL     1      -7.151  17.784  23.805  1.00  0.00     0.021 A 
HETATM    7  C21 UNL     1      -8.619  15.771  24.003  1.00  0.00     0.027 A 
HETATM    8  C33 UNL     1      -9.448  15.103  23.011  1.00  0.00     0.253 A 
HETATM    9  O6  UNL     1     -10.190  14.082  23.124  1.00  0.00    -0.268 OA
HETATM   10  N6  UNL     1      -9.267  15.852  21.805  1.00  0.00    -0.322 N 
ATOM     11  H6  UNL     1      -9.705  15.659  20.904  1.00  0.00     0.169 HD
ENDROOT
BRANCH   1  12
HETATM   12  C14 UNL     1      -5.716  19.817  23.471  1.00  0.00     0.041 C 
BRANCH  12  13
HETATM   13  C13 UNL     1      -4.619  19.278  24.326  1.00  0.00     0.031 C 
BRANCH  13  14
HETATM   14  C12 UNL     1      -4.693  19.718  25.767  1.00  0.00     0.179 C 
BRANCH  14  15
HETATM   15  O5  UNL     1      -5.207  18.788  26.654  1.00  0.00    -0.321 OA
BRANCH  15  16
HETATM   16  C11 UNL     1      -6.462  18.723  27.191  1.00  0.00     0.259 C 
HETATM   17  O4  UNL     1      -7.297  19.597  26.857  1.00  0.00    -0.265 OA
BRANCH  16  18
HETATM   18  C10 UNL     1      -6.849  17.667  28.136  1.00  0.00     0.116 C 
BRANCH  18  19
HETATM   19  C9  UNL     1      -8.305  17.635  28.472  1.00  0.00     0.050 C 
BRANCH  19  20
HETATM   20  C8  UNL     1      -8.616  17.079  29.801  1.00  0.00    -0.035 A 
HETATM   21  C2  UNL     1      -9.860  17.201  30.330  1.00  0.00     0.013 A 
HETATM   22  C1  UNL     1     -10.962  17.902  29.580  1.00  0.00     0.068 C 
HETATM   23  N1  UNL     1     -10.184  16.704  31.550  1.00  0.00    -0.346 N 
HETATM   24  C3  UNL     1      -9.246  16.066  32.268  1.00  0.00     0.108 A 
ATOM     25  H1  UNL     1     -11.130  16.814  31.917  1.00  0.00     0.167 HD
HETATM   26  N2  UNL     1      -9.518  15.584  33.418  1.00  0.00    -0.304 N 
HETATM   27  C6  UNL     1      -7.961  15.917  31.769  1.00  0.00     0.049 A 
HETATM   28  C4  UNL     1     -10.809  15.708  33.967  1.00  0.00     0.323 C 
ATOM     29  H2  UNL     1      -8.790  15.103  33.947  1.00  0.00     0.171 HD
HETATM   30  O1  UNL     1     -11.260  16.810  34.369  1.00  0.00    -0.260 OA
HETATM   31  C7  UNL     1      -7.633  16.418  30.538  1.00  0.00     0.013 A 
BRANCH  28  32
HETATM   32  C5  UNL     1     -11.651  14.528  34.076  1.00  0.00     0.270 C 
HETATM   33  O2  UNL     1     -12.089  13.974  33.036  1.00  0.00    -0.640 OA
HETATM   34  O3  UNL     1     -12.000  13.974  35.299  1.00  0.00    -0.640 OA
ENDBRANCH  28  32
ENDBRANCH  19  20
ENDBRANCH  18  19
ENDBRANCH  16  18
ENDBRANCH  15  16
ENDBRANCH  14  15
ENDBRANCH  13  14
ENDBRANCH  12  13
ENDBRANCH   1  12
BRANCH   7  35
HETATM   35  C22 UNL     1      -8.461  15.384  25.407  1.00  0.00     0.083 C 
BRANCH  35  36
HETATM   36  C23 UNL     1      -9.700  15.329  26.192  1.00  0.00    -0.054 A 
HETATM   37  C24 UNL     1     -10.830  16.044  25.858  1.00  0.00     0.008 A 
HETATM   38  C25 UNL     1     -11.989  15.972  26.623  1.00  0.00     0.007 A 
HETATM   39  C26 UNL     1     -12.028  15.171  27.747  1.00  0.00    -0.058 A 
HETATM   40  C31 UNL     1     -10.913  14.457  28.087  1.00  0.00     0.007 A 
HETATM   41  C32 UNL     1      -9.766  14.539  27.314  1.00  0.00     0.008 A 
BRANCH  39  42
HETATM   42  C27 UNL     1     -13.308  15.153  28.512  1.00  0.00     0.040 C 
BRANCH  42  43
HETATM   43  C28 UNL     1     -13.089  14.587  29.900  1.00  0.00     0.024 C 
BRANCH  43  44
HETATM   44  C29 UNL     1     -13.679  13.215  30.042  1.00  0.00     0.122 C 
BRANCH  44  45
HETATM   45  N3  UNL     1     -12.659  12.218  30.244  1.00  0.00    -0.365 N 
HETATM   46  C30 UNL     1     -12.790  11.155  31.171  1.00  0.00     0.181 C 
HETATM   47  N4  UNL     1     -13.233  11.355  32.352  1.00  0.00    -0.374 N 
HETATM   48  N5  UNL     1     -12.414   9.825  30.771  1.00  0.00    -0.064 NA
ATOM     49  H42 UNL     1     -13.500  12.297  32.635  1.00  0.00     0.158 HD
ATOM     50  H41 UNL     1     -13.328  10.590  33.020  1.00  0.00     0.158 HD
ATOM     51  H3  UNL     1     -11.802  12.280  29.694  1.00  0.00     0.162 HD
ENDBRANCH  44  45
ENDBRANCH  43  44
ENDBRANCH  42  43
ENDBRANCH  39  42
ENDBRANCH  35  36
ENDBRANCH   7  35
TORSDOF 15
ENDMDL
MODEL 5
REMARK VINA RESULT: -9.780302275      1.528      2.303
REMARK  15 active torsions:
REMARK  status: ('A' for Active; 'I' for Inactive)
REMARK       I    between atoms: N2_6  and  C4_8 
REMARK    1  A    between atoms: C4_8  and  C5_10 
REMARK    2  A    between atoms: C8_15  and  C9_16 
REMARK    3  A    between atoms: C9_16  and  C10_17 
REMARK    4  A    between atoms: C10_17  and  C11_18 
REMARK    5  A    between atoms: C11_18  and  O5_20 
REMARK    6  A    between atoms: O5_20  and  C12_21 
REMARK    7  A    between atoms: C12_21  and  C13_22 
REMARK    8  A    between atoms: C13_22  and  C14_23 
REMARK    9  A    between atoms: C14_23  and  C15_24 
REMARK   10  A    between atoms: C21_30  and  C22_31 
REMARK   11  A    between atoms: C22_31  and  C23_32 
REMARK   12  A    between atoms: C26_35  and  C27_36 
REMARK   13  A    between atoms: C27_36  and  C28_37 
REMARK   14  A    between atoms: C28_37  and  C29_38 
REMARK   15  A    between atoms: C29_38  and  N3_39 
REMARK       I    between atoms: N3_39  and  C30_41 
ROOT
HETATM    1  C15 UNL     1      -9.205  15.498  32.635  1.00  0.00    -0.057 A 
HETATM    2  C16 UNL     1      -9.964  16.071  33.633  1.00  0.00     0.009 A 
HETATM    3  C17 UNL     1     -11.353  16.022  33.601  1.00  0.00     0.031 A 
HETATM    4  C18 UNL     1     -12.009  15.395  32.562  1.00  0.00     0.046 A 
HETATM    5  C19 UNL     1     -11.284  14.812  31.548  1.00  0.00     0.003 A 
HETATM    6  C20 UNL     1      -9.896  14.876  31.604  1.00  0.00     0.021 A 
HETATM    7  C21 UNL     1     -12.133  14.272  30.665  1.00  0.00     0.027 A 
HETATM    8  C33 UNL     1     -13.473  14.538  31.167  1.00  0.00     0.253 A 
HETATM    9  O6  UNL     1     -14.601  14.225  30.682  1.00  0.00    -0.268 OA
HETATM   10  N6  UNL     1     -13.280  15.262  32.386  1.00  0.00    -0.322 N 
ATOM     11  H6  UNL     1     -14.014  15.609  33.004  1.00  0.00     0.169 HD
ENDROOT
BRANCH   1  12
HETATM   12  C14 UNL     1      -7.716  15.540  32.655  1.00  0.00     0.041 C 
BRANCH  12  13
HETATM   13  C13 UNL     1      -7.136  16.836  32.198  1.00  0.00     0.031 C 
BRANCH  13  14
HETATM   14  C12 UNL     1      -7.799  17.403  30.968  1.00  0.00     0.179 C 
BRANCH  14  15
HETATM   15  O5  UNL     1      -7.403  16.850  29.762  1.00  0.00    -0.321 OA
BRANCH  15  16
HETATM   16  C11 UNL     1      -7.150  17.481  28.577  1.00  0.00     0.259 C 
HETATM   17  O4  UNL     1      -7.980  18.325  28.163  1.00  0.00    -0.265 OA
BRANCH  16  18
HETATM   18  C10 UNL     1      -5.942  17.198  27.788  1.00  0.00     0.116 C 
BRANCH  18  19
HETATM   19  C9  UNL     1      -5.263  18.408  27.234  1.00  0.00     0.050 C 
BRANCH  19  20
HETATM   20  C8  UNL     1      -4.498  18.170  25.997  1.00  0.00    -0.035 A 
HETATM   21  C2  UNL     1      -4.378  19.142  25.057  1.00  0.00     0.013 A 
HETATM   22  C1  UNL     1      -5.016  20.493  25.245  1.00  0.00     0.068 C 
HETATM   23  N1  UNL     1      -3.684  18.960  23.906  1.00  0.00    -0.346 N 
HETATM   24  C3  UNL     1      -3.089  17.778  23.679  1.00  0.00     0.108 A 
ATOM     25  H1  UNL     1      -3.615  19.713  23.221  1.00  0.00     0.167 HD
HETATM   26  N2  UNL     1      -2.426  17.573  22.608  1.00  0.00    -0.304 N 
HETATM   27  C6  UNL     1      -3.184  16.754  24.610  1.00  0.00     0.049 A 
HETATM   28  C4  UNL     1      -2.300  18.582  21.633  1.00  0.00     0.323 C 
ATOM     29  H2  UNL     1      -1.982  16.668  22.456  1.00  0.00     0.171 HD
HETATM   30  O1  UNL     1      -3.266  18.942  20.916  1.00  0.00    -0.260 OA
HETATM   31  C7  UNL     1      -3.884  16.938  25.772  1.00  0.00     0.013 A 
BRANCH  28  32
HETATM   32  C5  UNL     1      -1.012  19.230  21.445  1.00  0.00     0.270 C 
HETATM   33  O2  UNL     1      -0.352  19.019  20.396  1.00  0.00    -0.640 OA
HETATM   34  O3  UNL     1      -0.467  20.088  22.390  1.00  0.00    -0.640 OA
ENDBRANCH  28  32
ENDBRANCH  19  20
ENDBRANCH  18  19
ENDBRANCH  16  18
ENDBRANCH  15  16
ENDBRANCH  14  15
ENDBRANCH  13  14
ENDBRANCH  12  13
ENDBRANCH   1  12
BRANCH   7  35
HETATM   35  C22 UNL     1     -11.792  13.554  29.435  1.00  0.00     0.083 C 
BRANCH  35  36
HETATM   36  C23 UNL     1     -11.233  14.376  28.355  1.00  0.00    -0.054 A 
HETATM   37  C24 UNL     1     -12.005  15.207  27.571  1.00  0.00     0.008 A 
HETATM   38  C25 UNL     1     -11.446  15.974  26.554  1.00  0.00     0.007 A 
HETATM   39  C26 UNL     1     -10.088  15.915  26.309  1.00  0.00    -0.058 A 
HETATM   40  C31 UNL     1      -9.314  15.094  27.081  1.00  0.00     0.007 A 
HETATM   41  C32 UNL     1      -9.886  14.337  28.090  1.00  0.00     0.008 A 
BRANCH  39  42
HETATM   42  C27 UNL     1      -9.571  16.765  25.199  1.00  0.00     0.040 C 
BRANCH  42  43
HETATM   43  C28 UNL     1      -8.410  16.084  24.504  1.00  0.00     0.024 C 
BRANCH  43  44
HETATM   44  C29 UNL     1      -7.354  17.065  24.088  1.00  0.00     0.122 C 
BRANCH  44  45
HETATM   45  N3  UNL     1      -7.859  18.009  23.124  1.00  0.00    -0.365 N 
HETATM   46  C30 UNL     1      -7.401  18.065  21.785  1.00  0.00     0.181 C 
HETATM   47  N4  UNL     1      -6.157  18.008  21.506  1.00  0.00    -0.374 N 
HETATM   48  N5  UNL     1      -8.361  18.190  20.719  1.00  0.00    -0.064 NA
ATOM     49  H42 UNL     1      -5.476  17.919  22.260  1.00  0.00     0.158 HD
ATOM     50  H41 UNL     1      -5.826  18.048  20.542  1.00  0.00     0.158 HD
ATOM     51  H3  UNL     1      -8.580  18.668  23.419  1.00  0.00     0.162 HD
ENDBRANCH  44  45
ENDBRANCH  43  44
ENDBRANCH  42  43
ENDBRANCH  39  42
ENDBRANCH  35  36
ENDBRANCH   7  35
TORSDOF 15
ENDMDL
