MODEL 1
REMARK VINA RESULT: -6.212998019      0.000      0.000
REMARK  6 active torsions:
REMARK  status: ('A' for Active; 'I' for Inactive)
REMARK    1  A    between atoms: C2_2  and  C3_3 
REMARK    2  A    between atoms: C3_3  and  C4_4 
REMARK    3  A    between atoms: C5_7  and  N2_8 
REMARK    4  A    between atoms: C6_13  and  N4_14 
REMARK    5  A    between atoms: N4_14  and  C7_16 
REMARK    6  A    between atoms: C7_16  and  C8_17 
ROOT
HETATM    1  C4  UNL     1       5.336   8.949  -1.935  1.00  0.00     0.051 A 
HETATM    2  N1  UNL     1       5.639   8.513  -0.700  1.00  0.00    -0.194 N 
ATOM      3  H1  UNL     1       4.921   8.014  -0.174  1.00  0.00     0.184 HD
HETATM    4  C5  UNL     1       6.829   8.699  -0.125  1.00  0.00     0.677 A 
HETATM    5  N3  UNL     1       7.807   9.349  -0.778  1.00  0.00    -0.176 N 
ATOM      6  H3  UNL     1       8.714   9.486  -0.333  1.00  0.00     0.186 HD
HETATM    7  C6  UNL     1       7.584   9.826  -2.037  1.00  0.00     0.140 A 
HETATM    8  C10 UNL     1       6.343   9.618  -2.604  1.00  0.00     0.112 A 
HETATM    9  C11 UNL     1       6.124  10.139  -3.945  1.00  0.00     0.105 C 
HETATM   10  N6  UNL     1       5.938  10.563  -4.995  1.00  0.00    -0.191 NA
ENDROOT
BRANCH   1  11
HETATM   11  C3  UNL     1       4.017   8.709  -2.516  1.00  0.00     0.059 C 
BRANCH  11  12
HETATM   12  C2  UNL     1       3.097   9.908  -2.427  1.00  0.00     0.002 C 
HETATM   13  C1  UNL     1       2.408  10.167  -3.751  1.00  0.00     0.005 C 
ENDBRANCH  11  12
ENDBRANCH   1  11
BRANCH   7  14
HETATM   14  N4  UNL     1       8.486  10.458  -2.709  1.00  0.00    -0.372 N 
ATOM     15  H4  UNL     1       8.284  10.848  -3.629  1.00  0.00     0.161 HD
BRANCH  14  16
HETATM   16  C7  UNL     1       9.797  10.590  -2.106  1.00  0.00     0.156 C 
BRANCH  16  17
HETATM   17  C8  UNL     1      10.854  10.908  -3.144  1.00  0.00     0.229 A 
HETATM   18  C9  UNL     1      11.919  11.873  -2.689  1.00  0.00     0.267 A 
HETATM   19  N5  UNL     1      12.206  10.468  -2.894  1.00  0.00    -0.066 N 
ATOM     20  H52 UNL     1      12.608   9.741  -2.302  1.00  0.00     0.277 HD
ATOM     21  H51 UNL     1      12.895   9.968  -3.456  1.00  0.00     0.277 HD
ENDBRANCH  16  17
ENDBRANCH  14  16
ENDBRANCH   7  14
BRANCH   4  22
HETATM   22  N2  UNL     1       7.062   8.259   1.061  1.00  0.00    -0.234 N 
ATOM     23  H22 UNL     1       7.873   7.659   1.213  1.00  0.00     0.174 HD
ATOM     24  H21 UNL     1       6.446   8.502   1.838  1.00  0.00     0.174 HD
ENDBRANCH   4  22
TORSDOF 6
ENDMDL
MODEL 2
REMARK VINA RESULT: -6.095708245      2.979      5.892
REMARK  6 active torsions:
REMARK  status: ('A' for Active; 'I' for Inactive)
REMARK    1  A    between atoms: C2_2  and  C3_3 
REMARK    2  A    between atoms: C3_3  and  C4_4 
REMARK    3  A    between atoms: C5_7  and  N2_8 
REMARK    4  A    between atoms: C6_13  and  N4_14 
REMARK    5  A    between atoms: N4_14  and  C7_16 
REMARK    6  A    between atoms: C7_16  and  C8_17 
ROOT
HETATM    1  C4  UNL     1       7.580  11.017   0.897  1.00  0.00     0.051 A 
HETATM    2  N1  UNL     1       7.272  12.318   1.047  1.00  0.00    -0.194 N 
ATOM      3  H1  UNL     1       7.458  12.757   1.949  1.00  0.00     0.184 HD
HETATM    4  C5  UNL     1       6.738  13.063   0.078  1.00  0.00     0.677 A 
HETATM    5  N3  UNL     1       6.478  12.529  -1.127  1.00  0.00    -0.176 N 
ATOM      6  H3  UNL     1       6.071  13.106  -1.864  1.00  0.00     0.186 HD
HETATM    7  C6  UNL     1       6.758  11.215  -1.365  1.00  0.00     0.140 A 
HETATM    8  C10 UNL     1       7.310  10.471  -0.342  1.00  0.00     0.112 A 
HETATM    9  C11 UNL     1       7.597   9.070  -0.614  1.00  0.00     0.105 C 
HETATM   10  N6  UNL     1       7.809   7.960  -0.815  1.00  0.00    -0.191 NA
ENDROOT
BRANCH   1  11
HETATM   11  C3  UNL     1       8.171  10.253   1.994  1.00  0.00     0.059 C 
BRANCH  11  12
HETATM   12  C2  UNL     1       9.000  11.100   2.935  1.00  0.00     0.002 C 
HETATM   13  C1  UNL     1      10.335  11.458   2.316  1.00  0.00     0.005 C 
ENDBRANCH  11  12
ENDBRANCH   1  11
BRANCH   7  14
HETATM   14  N4  UNL     1       6.528  10.651  -2.502  1.00  0.00    -0.372 N 
ATOM     15  H4  UNL     1       7.291  10.329  -3.096  1.00  0.00     0.161 HD
BRANCH  14  16
HETATM   16  C7  UNL     1       5.144  10.494  -2.901  1.00  0.00     0.156 C 
BRANCH  16  17
HETATM   17  C8  UNL     1       4.745   9.035  -2.952  1.00  0.00     0.229 A 
HETATM   18  C9  UNL     1       3.810   8.595  -1.854  1.00  0.00     0.267 A 
HETATM   19  N5  UNL     1       3.364   8.717  -3.227  1.00  0.00    -0.066 N 
ATOM     20  H52 UNL     1       2.603   9.228  -3.674  1.00  0.00     0.277 HD
ATOM     21  H51 UNL     1       2.909   8.074  -3.876  1.00  0.00     0.277 HD
ENDBRANCH  16  17
ENDBRANCH  14  16
ENDBRANCH   7  14
BRANCH   4  22
HETATM   22  N2  UNL     1       6.465  14.304   0.279  1.00  0.00    -0.234 N 
ATOM     23  H22 UNL     1       6.692  14.718   1.183  1.00  0.00     0.174 HD
ATOM     24  H21 UNL     1       6.027  14.866  -0.451  1.00  0.00     0.174 HD
ENDBRANCH   4  22
TORSDOF 6
ENDMDL
MODEL 3
REMARK VINA RESULT: -5.991793392      2.916      5.742
REMARK  6 active torsions:
REMARK  status: ('A' for Active; 'I' for Inactive)
REMARK    1  A    between atoms: C2_2  and  C3_3 
REMARK    2  A    between atoms: C3_3  and  C4_4 
REMARK    3  A    between atoms: C5_7  and  N2_8 
REMARK    4  A    between atoms: C6_13  and  N4_14 
REMARK    5  A    between atoms: N4_14  and  C7_16 
REMARK    6  A    between atoms: C7_16  and  C8_17 
ROOT
HETATM    1  C4  UNL     1       7.591  11.012   0.895  1.00  0.00     0.051 A 
HETATM    2  N1  UNL     1       7.292  12.314   1.047  1.00  0.00    -0.194 N 
ATOM      3  H1  UNL     1       7.493  12.755   1.944  1.00  0.00     0.184 HD
HETATM    4  C5  UNL     1       6.747  13.060   0.084  1.00  0.00     0.677 A 
HETATM    5  N3  UNL     1       6.466  12.525  -1.116  1.00  0.00    -0.176 N 
ATOM      6  H3  UNL     1       6.050  13.102  -1.848  1.00  0.00     0.186 HD
HETATM    7  C6  UNL     1       6.737  11.209  -1.355  1.00  0.00     0.140 A 
HETATM    8  C10 UNL     1       7.301  10.464  -0.339  1.00  0.00     0.112 A 
HETATM    9  C11 UNL     1       7.577   9.062  -0.613  1.00  0.00     0.105 C 
HETATM   10  N6  UNL     1       7.781   7.951  -0.814  1.00  0.00    -0.191 NA
ENDROOT
BRANCH   1  11
HETATM   11  C3  UNL     1       8.195  10.247   1.984  1.00  0.00     0.059 C 
BRANCH  11  12
HETATM   12  C2  UNL     1       8.982  11.104   2.953  1.00  0.00     0.002 C 
HETATM   13  C1  UNL     1      10.337  11.468   2.383  1.00  0.00     0.005 C 
ENDBRANCH  11  12
ENDBRANCH   1  11
BRANCH   7  14
HETATM   14  N4  UNL     1       6.487  10.644  -2.487  1.00  0.00    -0.372 N 
ATOM     15  H4  UNL     1       7.238  10.390  -3.129  1.00  0.00     0.161 HD
BRANCH  14  16
HETATM   16  C7  UNL     1       5.099  10.386  -2.813  1.00  0.00     0.156 C 
BRANCH  16  17
HETATM   17  C8  UNL     1       4.965   9.680  -4.146  1.00  0.00     0.229 A 
HETATM   18  C9  UNL     1       3.763  10.086  -4.960  1.00  0.00     0.267 A 
HETATM   19  N5  UNL     1       5.105  10.466  -5.349  1.00  0.00    -0.066 N 
ATOM     20  H52 UNL     1       5.549  11.361  -5.552  1.00  0.00     0.277 HD
ATOM     21  H51 UNL     1       5.648  10.346  -6.204  1.00  0.00     0.277 HD
ENDBRANCH  16  17
ENDBRANCH  14  16
ENDBRANCH   7  14
BRANCH   4  22
HETATM   22  N2  UNL     1       6.482  14.303   0.286  1.00  0.00    -0.234 N 
ATOM     23  H22 UNL     1       6.941  14.784   1.059  1.00  0.00     0.174 HD
ATOM     24  H21 UNL     1       5.822  14.800  -0.313  1.00  0.00     0.174 HD
ENDBRANCH   4  22
TORSDOF 6
ENDMDL
MODEL 4
REMARK VINA RESULT: -5.918549015      2.914      5.368
REMARK  6 active torsions:
REMARK  status: ('A' for Active; 'I' for Inactive)
REMARK    1  A    between atoms: C2_2  and  C3_3 
REMARK    2  A    between atoms: C3_3  and  C4_4 
REMARK    3  A    between atoms: C5_7  and  N2_8 
REMARK    4  A    between atoms: C6_13  and  N4_14 
REMARK    5  A    between atoms: N4_14  and  C7_16 
REMARK    6  A    between atoms: C7_16  and  C8_17 
ROOT
HETATM    1  C4  UNL     1       2.659   9.210  -5.445  1.00  0.00     0.051 A 
HETATM    2  N1  UNL     1       3.234   9.096  -6.655  1.00  0.00    -0.194 N 
ATOM      3  H1  UNL     1       2.661   8.772  -7.434  1.00  0.00     0.184 HD
HETATM    4  C5  UNL     1       4.515   9.386  -6.891  1.00  0.00     0.677 A 
HETATM    5  N3  UNL     1       5.310   9.819  -5.898  1.00  0.00    -0.176 N 
ATOM      6  H3  UNL     1       6.288  10.040  -6.085  1.00  0.00     0.186 HD
HETATM    7  C6  UNL     1       4.807   9.962  -4.637  1.00  0.00     0.140 A 
HETATM    8  C10 UNL     1       3.478   9.654  -4.426  1.00  0.00     0.112 A 
HETATM    9  C11 UNL     1       2.964   9.809  -3.073  1.00  0.00     0.105 C 
HETATM   10  N6  UNL     1       2.555   9.910  -2.006  1.00  0.00    -0.191 NA
ENDROOT
BRANCH   1  11
HETATM   11  C3  UNL     1       1.248   8.885  -5.249  1.00  0.00     0.059 C 
BRANCH  11  12
HETATM   12  C2  UNL     1       0.722   7.877  -6.248  1.00  0.00     0.002 C 
HETATM   13  C1  UNL     1       1.186   6.476  -5.905  1.00  0.00     0.005 C 
ENDBRANCH  11  12
ENDBRANCH   1  11
BRANCH   7  14
HETATM   14  N4  UNL     1       5.525  10.373  -3.647  1.00  0.00    -0.372 N 
ATOM     15  H4  UNL     1       5.311  11.245  -3.165  1.00  0.00     0.161 HD
BRANCH  14  16
HETATM   16  C7  UNL     1       6.645   9.546  -3.246  1.00  0.00     0.156 C 
BRANCH  16  17
HETATM   17  C8  UNL     1       6.219   8.470  -2.270  1.00  0.00     0.229 A 
HETATM   18  C9  UNL     1       6.977   8.460  -0.967  1.00  0.00     0.267 A 
HETATM   19  N5  UNL     1       5.593   8.882  -1.035  1.00  0.00    -0.066 N 
ATOM     20  H52 UNL     1       5.104   9.729  -0.746  1.00  0.00     0.277 HD
ATOM     21  H51 UNL     1       4.746   8.590  -0.547  1.00  0.00     0.277 HD
ENDBRANCH  16  17
ENDBRANCH  14  16
ENDBRANCH   7  14
BRANCH   4  22
HETATM   22  N2  UNL     1       5.012   9.258  -8.071  1.00  0.00    -0.234 N 
ATOM     23  H22 UNL     1       5.765   9.883  -8.358  1.00  0.00     0.174 HD
ATOM     24  H21 UNL     1       4.659   8.547  -8.711  1.00  0.00     0.174 HD
ENDBRANCH   4  22
TORSDOF 6
ENDMDL
MODEL 5
REMARK VINA RESULT: -5.903179663      2.267      5.967
REMARK  6 active torsions:
REMARK  status: ('A' for Active; 'I' for Inactive)
REMARK    1  A    between atoms: C2_2  and  C3_3 
REMARK    2  A    between atoms: C3_3  and  C4_4 
REMARK    3  A    between atoms: C5_7  and  N2_8 
REMARK    4  A    between atoms: C6_13  and  N4_14 
REMARK    5  A    between atoms: N4_14  and  C7_16 
REMARK    6  A    between atoms: C7_16  and  C8_17 
ROOT
HETATM    1  C4  UNL     1       9.933  10.752   0.083  1.00  0.00     0.051 A 
HETATM    2  N1  UNL     1       9.124  10.648   1.152  1.00  0.00    -0.194 N 
ATOM      3  H1  UNL     1       9.533  10.753   2.080  1.00  0.00     0.184 HD
HETATM    4  C5  UNL     1       7.813  10.415   1.062  1.00  0.00     0.677 A 
HETATM    5  N3  UNL     1       7.227  10.271  -0.139  1.00  0.00    -0.176 N 
ATOM      6  H3  UNL     1       6.224  10.095  -0.200  1.00  0.00     0.186 HD
HETATM    7  C6  UNL     1       7.975  10.361  -1.276  1.00  0.00     0.140 A 
HETATM    8  C10 UNL     1       9.329  10.603  -1.150  1.00  0.00     0.112 A 
HETATM    9  C11 UNL     1      10.109  10.691  -2.375  1.00  0.00     0.105 C 
HETATM   10  N6  UNL     1      10.735  10.742  -3.336  1.00  0.00    -0.191 NA
ENDROOT
BRANCH   1  11
HETATM   11  C3  UNL     1      11.361  11.016   0.243  1.00  0.00     0.059 C 
BRANCH  11  12
HETATM   12  C2  UNL     1      11.744  11.402   1.656  1.00  0.00     0.002 C 
HETATM   13  C1  UNL     1      13.248  11.416   1.831  1.00  0.00     0.005 C 
ENDBRANCH  11  12
ENDBRANCH   1  11
BRANCH   7  14
HETATM   14  N4  UNL     1       7.465  10.231  -2.454  1.00  0.00    -0.372 N 
ATOM     15  H4  UNL     1       7.548  10.970  -3.151  1.00  0.00     0.161 HD
BRANCH  14  16
HETATM   16  C7  UNL     1       6.771   8.993  -2.747  1.00  0.00     0.156 C 
BRANCH  16  17
HETATM   17  C8  UNL     1       5.334   9.247  -3.150  1.00  0.00     0.229 A 
HETATM   18  C9  UNL     1       4.304   8.530  -2.314  1.00  0.00     0.267 A 
HETATM   19  N5  UNL     1       4.485   9.965  -2.228  1.00  0.00    -0.066 N 
ATOM     20  H52 UNL     1       4.674  10.603  -1.455  1.00  0.00     0.277 HD
ATOM     21  H51 UNL     1       3.853  10.759  -2.331  1.00  0.00     0.277 HD
ENDBRANCH  16  17
ENDBRANCH  14  16
ENDBRANCH   7  14
BRANCH   4  22
HETATM   22  N2  UNL     1       7.087  10.325   2.121  1.00  0.00    -0.234 N 
ATOM     23  H22 UNL     1       6.215   9.799   2.076  1.00  0.00     0.174 HD
ATOM     24  H21 UNL     1       7.376  10.774   2.991  1.00  0.00     0.174 HD
ENDBRANCH   4  22
TORSDOF 6
ENDMDL
