MODEL 1
REMARK VINA RESULT: -6.279293538      0.000      0.000
REMARK  8 active torsions:
REMARK  status: ('A' for Active; 'I' for Inactive)
REMARK    1  A    between atoms: C2_3  and  N2_4 
REMARK       I    between atoms: N2_4  and  C3_6 
REMARK       I    between atoms: C3_6  and  N3_8 
REMARK    2  A    between atoms: N3_8  and  N4_10 
REMARK    3  A    between atoms: N4_10  and  C4_12 
REMARK    4  A    between atoms: C4_12  and  C5_14 
REMARK    5  A    between atoms: C5_14  and  C6_15 
REMARK    6  A    between atoms: C6_15  and  S1_16 
REMARK    7  A    between atoms: S1_16  and  C7_17 
REMARK    8  A    between atoms: C7_17  and  N6_18 
ROOT
HETATM    1  N1  UNL     1     -11.406  75.647  21.282  1.00  0.00    -0.196 NA
HETATM    2  C1  UNL     1     -11.833  74.881  20.525  1.00  0.00     0.078 C 
HETATM    3  C2  UNL     1     -12.373  73.937  19.570  1.00  0.00     0.248 C 
ENDROOT
BRANCH   3   4
HETATM    4  N2  UNL     1     -11.392  72.878  19.390  1.00  0.00    -0.329 N 
HETATM    5  C3  UNL     1     -11.673  71.585  19.883  1.00  0.00     0.335 C 
HETATM    6  O1  UNL     1     -12.766  71.384  20.467  1.00  0.00    -0.246 OA
HETATM    7  N3  UNL     1     -10.727  70.548  19.714  1.00  0.00    -0.251 N 
ATOM      8  H3  UNL     1      -9.844  70.735  19.239  1.00  0.00     0.191 HD
ATOM      9  H2  UNL     1     -10.510  73.067  18.912  1.00  0.00     0.165 HD
BRANCH   7  10
HETATM   10  N4  UNL     1     -11.002  69.270  20.197  1.00  0.00    -0.287 N 
ATOM     11  H4  UNL     1     -11.754  68.729  19.770  1.00  0.00     0.188 HD
BRANCH  10  12
HETATM   12  C4  UNL     1     -10.333  68.755  21.167  1.00  0.00     0.108 C 
HETATM   13  N5  UNL     1      -8.918  68.823  21.035  1.00  0.00    -0.086 NA
BRANCH  12  14
HETATM   14  C5  UNL     1     -11.045  68.163  22.285  1.00  0.00     0.084 C 
BRANCH  14  15
HETATM   15  C6  UNL     1     -12.291  68.874  22.703  1.00  0.00     0.082 C 
BRANCH  15  16
HETATM   16  S1  UNL     1     -12.000  70.317  23.731  1.00  0.00    -0.148 SA
BRANCH  16  17
HETATM   17  C7  UNL     1     -10.256  70.761  23.821  1.00  0.00     0.205 C 
BRANCH  17  18
HETATM   18  N6  UNL     1     -10.015  72.179  23.805  1.00  0.00    -0.318 N 
HETATM   19  C8  UNL     1     -10.875  73.189  23.998  1.00  0.00     0.186 A 
HETATM   20  N7  UNL     1     -10.185  74.337  23.885  1.00  0.00    -0.345 N 
HETATM   21  C9  UNL     1      -8.896  74.077  23.621  1.00  0.00     0.147 A 
ATOM     22  H7  UNL     1     -10.584  75.270  23.985  1.00  0.00     0.167 HD
HETATM   23  C10 UNL     1      -7.759  74.824  23.410  1.00  0.00     0.280 A 
HETATM   24  C12 UNL     1      -8.801  72.714  23.573  1.00  0.00     0.146 A 
HETATM   25  O2  UNL     1      -7.845  76.068  23.454  1.00  0.00    -0.265 OA
HETATM   26  N8  UNL     1      -6.556  74.257  23.158  1.00  0.00    -0.273 N 
HETATM   27  C11 UNL     1      -6.483  72.916  23.114  1.00  0.00     0.328 A 
ATOM     28  H8  UNL     1      -5.727  74.832  23.005  1.00  0.00     0.173 HD
HETATM   29  O3  UNL     1      -5.351  72.384  22.877  1.00  0.00    -0.247 OA
HETATM   30  N9  UNL     1      -7.579  72.168  23.317  1.00  0.00    -0.292 N 
ATOM     31  H9  UNL     1      -7.494  71.152  23.277  1.00  0.00     0.172 HD
ENDBRANCH  17  18
ENDBRANCH  16  17
ENDBRANCH  15  16
ENDBRANCH  14  15
ENDBRANCH  12  14
ENDBRANCH  10  12
ENDBRANCH   7  10
ENDBRANCH   3   4
TORSDOF 8
ENDMDL
MODEL 2
REMARK VINA RESULT: -6.230207614      1.524      1.829
REMARK  8 active torsions:
REMARK  status: ('A' for Active; 'I' for Inactive)
REMARK    1  A    between atoms: C2_3  and  N2_4 
REMARK       I    between atoms: N2_4  and  C3_6 
REMARK       I    between atoms: C3_6  and  N3_8 
REMARK    2  A    between atoms: N3_8  and  N4_10 
REMARK    3  A    between atoms: N4_10  and  C4_12 
REMARK    4  A    between atoms: C4_12  and  C5_14 
REMARK    5  A    between atoms: C5_14  and  C6_15 
REMARK    6  A    between atoms: C6_15  and  S1_16 
REMARK    7  A    between atoms: S1_16  and  C7_17 
REMARK    8  A    between atoms: C7_17  and  N6_18 
ROOT
HETATM    1  N1  UNL     1     -12.732  75.571  20.913  1.00  0.00    -0.196 NA
HETATM    2  C1  UNL     1     -12.807  74.707  20.144  1.00  0.00     0.078 C 
HETATM    3  C2  UNL     1     -12.905  73.639  19.173  1.00  0.00     0.248 C 
ENDROOT
BRANCH   3   4
HETATM    4  N2  UNL     1     -11.718  72.809  19.304  1.00  0.00    -0.329 N 
HETATM    5  C3  UNL     1     -11.856  71.471  19.739  1.00  0.00     0.335 C 
HETATM    6  O1  UNL     1     -13.002  71.035  20.002  1.00  0.00    -0.246 OA
HETATM    7  N3  UNL     1     -10.708  70.655  19.870  1.00  0.00    -0.251 N 
ATOM      8  H3  UNL     1      -9.786  71.032  19.653  1.00  0.00     0.191 HD
ATOM      9  H2  UNL     1     -10.797  73.187  19.085  1.00  0.00     0.165 HD
BRANCH   7  10
HETATM   10  N4  UNL     1     -10.840  69.335  20.295  1.00  0.00    -0.287 N 
ATOM     11  H4  UNL     1     -11.425  68.695  19.758  1.00  0.00     0.188 HD
BRANCH  10  12
HETATM   12  C4  UNL     1     -10.243  68.901  21.349  1.00  0.00     0.108 C 
HETATM   13  N5  UNL     1      -8.825  68.827  21.259  1.00  0.00    -0.086 NA
BRANCH  12  14
HETATM   14  C5  UNL     1     -11.032  68.531  22.510  1.00  0.00     0.084 C 
BRANCH  14  15
HETATM   15  C6  UNL     1     -10.935  69.460  23.677  1.00  0.00     0.082 C 
BRANCH  15  16
HETATM   16  S1  UNL     1     -11.802  71.015  23.449  1.00  0.00    -0.148 SA
BRANCH  16  17
HETATM   17  C7  UNL     1     -10.688  72.432  23.426  1.00  0.00     0.205 C 
BRANCH  17  18
HETATM   18  N6  UNL     1      -9.791  72.484  24.549  1.00  0.00    -0.318 N 
HETATM   19  C8  UNL     1     -10.071  72.564  25.857  1.00  0.00     0.186 A 
HETATM   20  N7  UNL     1      -8.903  72.587  26.521  1.00  0.00    -0.345 N 
HETATM   21  C9  UNL     1      -7.879  72.524  25.658  1.00  0.00     0.147 A 
ATOM     22  H7  UNL     1      -8.809  72.644  27.536  1.00  0.00     0.167 HD
HETATM   23  C10 UNL     1      -6.505  72.511  25.751  1.00  0.00     0.280 A 
HETATM   24  C12 UNL     1      -8.450  72.459  24.418  1.00  0.00     0.146 A 
HETATM   25  O2  UNL     1      -5.982  72.569  26.882  1.00  0.00    -0.265 OA
HETATM   26  N8  UNL     1      -5.706  72.436  24.661  1.00  0.00    -0.273 N 
HETATM   27  C11 UNL     1      -6.287  72.374  23.451  1.00  0.00     0.328 A 
ATOM     28  H8  UNL     1      -4.690  72.427  24.755  1.00  0.00     0.173 HD
HETATM   29  O3  UNL     1      -5.534  72.304  22.426  1.00  0.00    -0.247 OA
HETATM   30  N9  UNL     1      -7.624  72.385  23.337  1.00  0.00    -0.292 N 
ATOM     31  H9  UNL     1      -8.038  72.338  22.406  1.00  0.00     0.172 HD
ENDBRANCH  17  18
ENDBRANCH  16  17
ENDBRANCH  15  16
ENDBRANCH  14  15
ENDBRANCH  12  14
ENDBRANCH  10  12
ENDBRANCH   7  10
ENDBRANCH   3   4
TORSDOF 8
ENDMDL
MODEL 3
REMARK VINA RESULT: -6.102930443      3.365      6.461
REMARK  8 active torsions:
REMARK  status: ('A' for Active; 'I' for Inactive)
REMARK    1  A    between atoms: C2_3  and  N2_4 
REMARK       I    between atoms: N2_4  and  C3_6 
REMARK       I    between atoms: C3_6  and  N3_8 
REMARK    2  A    between atoms: N3_8  and  N4_10 
REMARK    3  A    between atoms: N4_10  and  C4_12 
REMARK    4  A    between atoms: C4_12  and  C5_14 
REMARK    5  A    between atoms: C5_14  and  C6_15 
REMARK    6  A    between atoms: C6_15  and  S1_16 
REMARK    7  A    between atoms: S1_16  and  C7_17 
REMARK    8  A    between atoms: C7_17  and  N6_18 
ROOT
HETATM    1  N1  UNL     1      -5.777  72.165  22.725  1.00  0.00    -0.196 NA
HETATM    2  C1  UNL     1      -5.940  72.838  23.654  1.00  0.00     0.078 C 
HETATM    3  C2  UNL     1      -6.141  73.692  24.805  1.00  0.00     0.248 C 
ENDROOT
BRANCH   3   4
HETATM    4  N2  UNL     1      -7.223  73.125  25.594  1.00  0.00    -0.329 N 
HETATM    5  C3  UNL     1      -6.919  72.213  26.629  1.00  0.00     0.335 C 
HETATM    6  O1  UNL     1      -5.718  71.913  26.839  1.00  0.00    -0.246 OA
HETATM    7  N3  UNL     1      -7.963  71.656  27.403  1.00  0.00    -0.251 N 
ATOM      8  H3  UNL     1      -8.932  71.911  27.213  1.00  0.00     0.191 HD
ATOM      9  H2  UNL     1      -8.191  73.384  25.403  1.00  0.00     0.165 HD
BRANCH   7  10
HETATM   10  N4  UNL     1      -7.667  70.758  28.427  1.00  0.00    -0.287 N 
ATOM     11  H4  UNL     1      -6.847  70.923  29.011  1.00  0.00     0.188 HD
BRANCH  10  12
HETATM   12  C4  UNL     1      -8.400  69.725  28.654  1.00  0.00     0.108 C 
HETATM   13  N5  UNL     1      -7.690  68.526  28.942  1.00  0.00    -0.086 NA
BRANCH  12  14
HETATM   14  C5  UNL     1      -9.844  69.855  28.601  1.00  0.00     0.084 C 
BRANCH  14  15
HETATM   15  C6  UNL     1     -10.526  69.039  27.551  1.00  0.00     0.082 C 
BRANCH  15  16
HETATM   16  S1  UNL     1     -11.127  69.996  26.156  1.00  0.00    -0.148 SA
BRANCH  16  17
HETATM   17  C7  UNL     1     -12.263  69.061  25.114  1.00  0.00     0.205 C 
BRANCH  17  18
HETATM   18  N6  UNL     1     -12.542  69.688  23.851  1.00  0.00    -0.318 N 
HETATM   19  C8  UNL     1     -13.637  70.353  23.457  1.00  0.00     0.186 A 
HETATM   20  N7  UNL     1     -13.434  70.755  22.190  1.00  0.00    -0.345 N 
HETATM   21  C9  UNL     1     -12.227  70.355  21.767  1.00  0.00     0.147 A 
ATOM     22  H7  UNL     1     -14.102  71.286  21.632  1.00  0.00     0.167 HD
HETATM   23  C10 UNL     1     -11.497  70.469  20.604  1.00  0.00     0.280 A 
HETATM   24  C12 UNL     1     -11.673  69.684  22.821  1.00  0.00     0.146 A 
HETATM   25  O2  UNL     1     -12.000  71.082  19.641  1.00  0.00    -0.265 OA
HETATM   26  N8  UNL     1     -10.257  69.942  20.472  1.00  0.00    -0.273 N 
HETATM   27  C11 UNL     1      -9.732  69.286  21.520  1.00  0.00     0.328 A 
ATOM     28  H8  UNL     1      -9.736  70.040  19.600  1.00  0.00     0.173 HD
HETATM   29  O3  UNL     1      -8.565  68.790  21.394  1.00  0.00    -0.247 OA
HETATM   30  N9  UNL     1     -10.425  69.162  22.663  1.00  0.00    -0.292 N 
ATOM     31  H9  UNL     1     -10.001  68.658  23.442  1.00  0.00     0.172 HD
ENDBRANCH  17  18
ENDBRANCH  16  17
ENDBRANCH  15  16
ENDBRANCH  14  15
ENDBRANCH  12  14
ENDBRANCH  10  12
ENDBRANCH   7  10
ENDBRANCH   3   4
TORSDOF 8
ENDMDL
MODEL 4
REMARK VINA RESULT: -6.073055087      3.646      7.151
REMARK  8 active torsions:
REMARK  status: ('A' for Active; 'I' for Inactive)
REMARK    1  A    between atoms: C2_3  and  N2_4 
REMARK       I    between atoms: N2_4  and  C3_6 
REMARK       I    between atoms: C3_6  and  N3_8 
REMARK    2  A    between atoms: N3_8  and  N4_10 
REMARK    3  A    between atoms: N4_10  and  C4_12 
REMARK    4  A    between atoms: C4_12  and  C5_14 
REMARK    5  A    between atoms: C5_14  and  C6_15 
REMARK    6  A    between atoms: C6_15  and  S1_16 
REMARK    7  A    between atoms: S1_16  and  C7_17 
REMARK    8  A    between atoms: C7_17  and  N6_18 
ROOT
HETATM    1  N1  UNL     1      -7.616  73.179  31.709  1.00  0.00    -0.196 NA
HETATM    2  C1  UNL     1      -7.284  73.597  30.681  1.00  0.00     0.078 C 
HETATM    3  C2  UNL     1      -6.857  74.128  29.404  1.00  0.00     0.248 C 
ENDROOT
BRANCH   3   4
HETATM    4  N2  UNL     1      -6.961  73.060  28.422  1.00  0.00    -0.329 N 
HETATM    5  C3  UNL     1      -6.264  73.177  27.198  1.00  0.00     0.335 C 
HETATM    6  O1  UNL     1      -5.574  74.204  26.990  1.00  0.00    -0.246 OA
HETATM    7  N3  UNL     1      -6.358  72.144  26.236  1.00  0.00    -0.251 N 
ATOM      8  H3  UNL     1      -6.928  71.320  26.426  1.00  0.00     0.191 HD
ATOM      9  H2  UNL     1      -7.530  72.235  28.615  1.00  0.00     0.165 HD
BRANCH   7  10
HETATM   10  N4  UNL     1      -5.671  72.255  25.029  1.00  0.00    -0.287 N 
ATOM     11  H4  UNL     1      -4.652  72.193  25.030  1.00  0.00     0.188 HD
BRANCH  10  12
HETATM   12  C4  UNL     1      -6.286  72.434  23.914  1.00  0.00     0.108 C 
HETATM   13  N5  UNL     1      -5.464  72.405  22.753  1.00  0.00    -0.086 NA
BRANCH  12  14
HETATM   14  C5  UNL     1      -7.722  72.645  23.922  1.00  0.00     0.084 C 
BRANCH  14  15
HETATM   15  C6  UNL     1      -8.175  74.009  23.513  1.00  0.00     0.082 C 
BRANCH  15  16
HETATM   16  S1  UNL     1      -9.956  74.173  23.358  1.00  0.00    -0.148 SA
BRANCH  16  17
HETATM   17  C7  UNL     1     -10.838  72.710  23.931  1.00  0.00     0.205 C 
BRANCH  17  18
HETATM   18  N6  UNL     1     -11.576  72.034  22.898  1.00  0.00    -0.318 N 
HETATM   19  C8  UNL     1     -12.830  72.244  22.475  1.00  0.00     0.186 A 
HETATM   20  N7  UNL     1     -13.078  71.363  21.490  1.00  0.00    -0.345 N 
HETATM   21  C9  UNL     1     -12.002  70.592  21.278  1.00  0.00     0.147 A 
ATOM     22  H7  UNL     1     -13.957  71.292  20.978  1.00  0.00     0.167 HD
HETATM   23  C10 UNL     1     -11.678  69.556  20.430  1.00  0.00     0.280 A 
HETATM   24  C12 UNL     1     -11.061  71.023  22.171  1.00  0.00     0.146 A 
HETATM   25  O2  UNL     1     -12.535  69.162  19.613  1.00  0.00    -0.265 OA
HETATM   26  N8  UNL     1     -10.465  68.955  20.450  1.00  0.00    -0.273 N 
HETATM   27  C11 UNL     1      -9.555  69.394  21.336  1.00  0.00     0.328 A 
ATOM     28  H8  UNL     1     -10.248  68.190  19.811  1.00  0.00     0.173 HD
HETATM   29  O3  UNL     1      -8.414  68.828  21.355  1.00  0.00    -0.247 OA
HETATM   30  N9  UNL     1      -9.849  70.401  22.173  1.00  0.00    -0.292 N 
ATOM     31  H9  UNL     1      -9.139  70.713  22.835  1.00  0.00     0.172 HD
ENDBRANCH  17  18
ENDBRANCH  16  17
ENDBRANCH  15  16
ENDBRANCH  14  15
ENDBRANCH  12  14
ENDBRANCH  10  12
ENDBRANCH   7  10
ENDBRANCH   3   4
TORSDOF 8
ENDMDL
MODEL 5
REMARK VINA RESULT: -6.021431467      3.120      4.832
REMARK  8 active torsions:
REMARK  status: ('A' for Active; 'I' for Inactive)
REMARK    1  A    between atoms: C2_3  and  N2_4 
REMARK       I    between atoms: N2_4  and  C3_6 
REMARK       I    between atoms: C3_6  and  N3_8 
REMARK    2  A    between atoms: N3_8  and  N4_10 
REMARK    3  A    between atoms: N4_10  and  C4_12 
REMARK    4  A    between atoms: C4_12  and  C5_14 
REMARK    5  A    between atoms: C5_14  and  C6_15 
REMARK    6  A    between atoms: C6_15  and  S1_16 
REMARK    7  A    between atoms: S1_16  and  C7_17 
REMARK    8  A    between atoms: C7_17  and  N6_18 
ROOT
HETATM    1  N1  UNL     1     -13.285  67.259  18.240  1.00  0.00    -0.196 NA
HETATM    2  C1  UNL     1     -12.437  67.732  18.872  1.00  0.00     0.078 C 
HETATM    3  C2  UNL     1     -11.372  68.331  19.647  1.00  0.00     0.248 C 
ENDROOT
BRANCH   3   4
HETATM    4  N2  UNL     1     -11.905  68.646  20.964  1.00  0.00    -0.329 N 
HETATM    5  C3  UNL     1     -11.032  68.671  22.075  1.00  0.00     0.335 C 
HETATM    6  O1  UNL     1      -9.816  68.420  21.895  1.00  0.00    -0.246 OA
HETATM    7  N3  UNL     1     -11.540  68.976  23.359  1.00  0.00    -0.251 N 
ATOM      8  H3  UNL     1     -12.533  69.174  23.482  1.00  0.00     0.191 HD
ATOM      9  H2  UNL     1     -12.898  68.845  21.084  1.00  0.00     0.165 HD
BRANCH   7  10
HETATM   10  N4  UNL     1     -10.682  69.005  24.457  1.00  0.00    -0.287 N 
ATOM     11  H4  UNL     1      -9.758  68.581  24.376  1.00  0.00     0.188 HD
BRANCH  10  12
HETATM   12  C4  UNL     1     -11.024  69.554  25.569  1.00  0.00     0.108 C 
HETATM   13  N5  UNL     1     -12.189  70.369  25.512  1.00  0.00    -0.086 NA
BRANCH  12  14
HETATM   14  C5  UNL     1     -10.225  69.310  26.756  1.00  0.00     0.084 C 
BRANCH  14  15
HETATM   15  C6  UNL     1     -10.295  70.369  27.808  1.00  0.00     0.082 C 
BRANCH  15  16
HETATM   16  S1  UNL     1      -8.697  70.854  28.465  1.00  0.00    -0.148 SA
BRANCH  16  17
HETATM   17  C7  UNL     1      -8.224  72.522  27.973  1.00  0.00     0.205 C 
BRANCH  17  18
HETATM   18  N6  UNL     1      -7.275  72.563  26.893  1.00  0.00    -0.318 N 
HETATM   19  C8  UNL     1      -5.949  72.758  26.935  1.00  0.00     0.186 A 
HETATM   20  N7  UNL     1      -5.493  72.713  25.671  1.00  0.00    -0.345 N 
HETATM   21  C9  UNL     1      -6.506  72.494  24.821  1.00  0.00     0.147 A 
ATOM     22  H7  UNL     1      -4.517  72.829  25.399  1.00  0.00     0.167 HD
HETATM   23  C10 UNL     1      -6.643  72.355  23.458  1.00  0.00     0.280 A 
HETATM   24  C12 UNL     1      -7.624  72.401  25.602  1.00  0.00     0.146 A 
HETATM   25  O2  UNL     1      -5.623  72.439  22.744  1.00  0.00    -0.265 OA
HETATM   26  N8  UNL     1      -7.841  72.131  22.869  1.00  0.00    -0.273 N 
HETATM   27  C11 UNL     1      -8.927  72.043  23.654  1.00  0.00     0.328 A 
ATOM     28  H8  UNL     1      -7.916  72.031  21.856  1.00  0.00     0.173 HD
HETATM   29  O3  UNL     1     -10.054  71.832  23.098  1.00  0.00    -0.247 OA
HETATM   30  N9  UNL     1      -8.818  72.176  24.985  1.00  0.00    -0.292 N 
ATOM     31  H9  UNL     1      -9.660  72.105  25.556  1.00  0.00     0.172 HD
ENDBRANCH  17  18
ENDBRANCH  16  17
ENDBRANCH  15  16
ENDBRANCH  14  15
ENDBRANCH  12  14
ENDBRANCH  10  12
ENDBRANCH   7  10
ENDBRANCH   3   4
TORSDOF 8
ENDMDL
