MODEL 1
REMARK VINA RESULT: -8.323909619      0.000      0.000
REMARK  12 active torsions:
REMARK  status: ('A' for Active; 'I' for Inactive)
REMARK    1  A    between atoms: N1_1  and  N2_4 
REMARK    2  A    between atoms: N2_4  and  C1_6 
REMARK    3  A    between atoms: C1_6  and  N3_7 
REMARK    4  A    between atoms: C1_6  and  C6_30 
REMARK       I    between atoms: N3_7  and  C2_9 
REMARK       I    between atoms: C2_9  and  N4_11 
REMARK    5  A    between atoms: N4_11  and  N5_13 
REMARK    6  A    between atoms: N5_13  and  C3_15 
REMARK    7  A    between atoms: C4_21  and  C5_22 
REMARK       I    between atoms: C5_22  and  N8_24 
REMARK    8  A    between atoms: N8_24  and  N9_26 
REMARK    9  A    between atoms: N9_26  and  O4_28 
REMARK   10  A    between atoms: N12_35  and  C7_36 
REMARK   11  A    between atoms: C10_39  and  O5_40 
REMARK   12  A    between atoms: C12_43  and  O6_44 
ROOT
HETATM    1  C1  UNL     1      14.411  15.080  11.238  1.00  0.00     0.171 C 
ENDROOT
BRANCH   1   2
HETATM    2  N2  UNL     1      15.359  14.329  11.798  1.00  0.00    -0.289 N 
ATOM      3  H2  UNL     1      16.279  14.260  11.362  1.00  0.00     0.188 HD
BRANCH   2   4
HETATM    4  N1  UNL     1      15.096  13.646  12.963  1.00  0.00    -0.344 N 
ATOM      5  H12 UNL     1      15.876  13.351  13.551  1.00  0.00     0.176 HD
ATOM      6  H11 UNL     1      14.133  13.441  13.227  1.00  0.00     0.176 HD
ENDBRANCH   2   4
ENDBRANCH   1   2
BRANCH   1   7
HETATM    7  N3  UNL     1      13.723  14.468  10.198  1.00  0.00    -0.289 N 
HETATM    8  C2  UNL     1      14.272  14.158   8.946  1.00  0.00     0.340 C 
HETATM    9  O1  UNL     1      15.470  14.400   8.630  1.00  0.00    -0.245 OA
HETATM   10  N4  UNL     1      13.411  13.528   7.966  1.00  0.00    -0.250 N 
ATOM     11  H4  UNL     1      12.437  13.318   8.184  1.00  0.00     0.192 HD
ATOM     12  H3  UNL     1      12.744  14.227  10.357  1.00  0.00     0.172 HD
BRANCH  10  13
HETATM   13  N5  UNL     1      13.938  13.220   6.738  1.00  0.00    -0.278 N 
ATOM     14  H5  UNL     1      14.950  13.104   6.674  1.00  0.00     0.189 HD
BRANCH  13  15
HETATM   15  C3  UNL     1      13.254  13.067   5.659  1.00  0.00     0.176 A 
HETATM   16  N6  UNL     1      11.969  13.486   5.490  1.00  0.00    -0.222 N 
HETATM   17  O2  UNL     1      11.615  13.166   4.298  1.00  0.00    -0.155 OA
ATOM     18  H6  UNL     1      11.394  13.965   6.183  1.00  0.00     0.198 HD
HETATM   19  N7  UNL     1      12.555  12.570   3.659  1.00  0.00    -0.232 N 
HETATM   20  C4  UNL     1      13.652  12.476   4.497  1.00  0.00     0.172 A 
ATOM     21  H7  UNL     1      12.503  12.226   2.700  1.00  0.00     0.197 HD
BRANCH  20  22
HETATM   22  C5  UNL     1      14.909  11.860   4.119  1.00  0.00     0.293 C 
HETATM   23  O3  UNL     1      15.365  10.936   4.841  1.00  0.00    -0.264 OA
HETATM   24  N8  UNL     1      15.635  12.242   3.002  1.00  0.00    -0.245 N 
ATOM     25  H8  UNL     1      15.272  12.991   2.412  1.00  0.00     0.192 HD
BRANCH  24  26
HETATM   26  N9  UNL     1      16.862  11.630   2.649  1.00  0.00    -0.207 N 
ATOM     27  H9  UNL     1      16.922  11.125   1.764  1.00  0.00     0.215 HD
BRANCH  26  28
HETATM   28  O4  UNL     1      17.861  11.684   3.371  1.00  0.00    -0.274 OA
ATOM     29  H4  UNL     1      18.462  12.419   3.353  1.00  0.00     0.246 HD
ENDBRANCH  26  28
ENDBRANCH  24  26
ENDBRANCH  20  22
ENDBRANCH  13  15
ENDBRANCH  10  13
ENDBRANCH   1   7
BRANCH   1  30
HETATM   30  C6  UNL     1      14.207  16.403  11.746  1.00  0.00     0.184 A 
HETATM   31  N10 UNL     1      13.513  17.419  11.128  1.00  0.00    -0.265 N 
HETATM   32  N11 UNL     1      13.597  18.493  11.890  1.00  0.00    -0.219 N 
ATOM     33  H10 UNL     1      13.020  17.352  10.238  1.00  0.00     0.190 HD
HETATM   34  N12 UNL     1      14.307  18.230  12.966  1.00  0.00    -0.178 N 
ATOM     35  H11 UNL     1      13.173  19.397  11.677  1.00  0.00     0.210 HD
HETATM   36  N13 UNL     1      14.662  16.966  12.855  1.00  0.00    -0.258 N 
ATOM     37  H13 UNL     1      15.226  16.474  13.547  1.00  0.00     0.191 HD
BRANCH  34  38
HETATM   38  C7  UNL     1      14.664  19.057  14.060  1.00  0.00     0.109 A 
HETATM   39  C8  UNL     1      15.865  18.831  14.692  1.00  0.00     0.039 A 
HETATM   40  C9  UNL     1      16.200  19.639  15.754  1.00  0.00     0.039 A 
HETATM   41  C10 UNL     1      15.364  20.649  16.179  1.00  0.00     0.068 A 
HETATM   42  C11 UNL     1      14.167  20.861  15.536  1.00  0.00     0.075 A 
HETATM   43  C12 UNL     1      13.817  20.059  14.472  1.00  0.00     0.098 A 
BRANCH  41  44
HETATM   44  O5  UNL     1      15.743  21.458  17.273  1.00  0.00    -0.361 OA
ATOM     45  H5  UNL     1      15.403  21.267  18.139  1.00  0.00     0.217 HD
ENDBRANCH  41  44
BRANCH  43  46
HETATM   46  O6  UNL     1      12.599  20.271  13.813  1.00  0.00    -0.358 OA
ATOM     47  H6  UNL     1      11.957  20.871  14.173  1.00  0.00     0.217 HD
ENDBRANCH  43  46
ENDBRANCH  34  38
ENDBRANCH   1  30
TORSDOF 12
ENDMDL
MODEL 2
REMARK VINA RESULT: -8.207288913      1.604      2.755
REMARK  12 active torsions:
REMARK  status: ('A' for Active; 'I' for Inactive)
REMARK    1  A    between atoms: N1_1  and  N2_4 
REMARK    2  A    between atoms: N2_4  and  C1_6 
REMARK    3  A    between atoms: C1_6  and  N3_7 
REMARK    4  A    between atoms: C1_6  and  C6_30 
REMARK       I    between atoms: N3_7  and  C2_9 
REMARK       I    between atoms: C2_9  and  N4_11 
REMARK    5  A    between atoms: N4_11  and  N5_13 
REMARK    6  A    between atoms: N5_13  and  C3_15 
REMARK    7  A    between atoms: C4_21  and  C5_22 
REMARK       I    between atoms: C5_22  and  N8_24 
REMARK    8  A    between atoms: N8_24  and  N9_26 
REMARK    9  A    between atoms: N9_26  and  O4_28 
REMARK   10  A    between atoms: N12_35  and  C7_36 
REMARK   11  A    between atoms: C10_39  and  O5_40 
REMARK   12  A    between atoms: C12_43  and  O6_44 
ROOT
HETATM    1  C1  UNL     1      14.278  15.389  11.344  1.00  0.00     0.171 C 
ENDROOT
BRANCH   1   2
HETATM    2  N2  UNL     1      15.091  14.536  11.966  1.00  0.00    -0.289 N 
ATOM      3  H2  UNL     1      16.013  14.335  11.579  1.00  0.00     0.188 HD
BRANCH   2   4
HETATM    4  N1  UNL     1      14.686  13.926  13.131  1.00  0.00    -0.344 N 
ATOM      5  H12 UNL     1      13.877  13.305  13.110  1.00  0.00     0.176 HD
ATOM      6  H11 UNL     1      15.192  14.098  13.999  1.00  0.00     0.176 HD
ENDBRANCH   2   4
ENDBRANCH   1   2
BRANCH   1   7
HETATM    7  N3  UNL     1      13.658  14.880  10.210  1.00  0.00    -0.289 N 
HETATM    8  C2  UNL     1      14.327  14.309   9.118  1.00  0.00     0.340 C 
HETATM    9  O1  UNL     1      15.583  14.190   9.053  1.00  0.00    -0.245 OA
HETATM   10  N4  UNL     1      13.529  13.833   8.007  1.00  0.00    -0.250 N 
ATOM     11  H4  UNL     1      12.511  13.912   8.023  1.00  0.00     0.192 HD
ATOM     12  H3  UNL     1      12.640  14.924  10.168  1.00  0.00     0.172 HD
BRANCH  10  13
HETATM   13  N5  UNL     1      14.173  13.273   6.934  1.00  0.00    -0.278 N 
ATOM     14  H5  UNL     1      14.650  12.383   7.082  1.00  0.00     0.189 HD
BRANCH  13  15
HETATM   15  C3  UNL     1      14.222  13.785   5.754  1.00  0.00     0.176 A 
HETATM   16  N6  UNL     1      15.354  14.246   5.156  1.00  0.00    -0.222 N 
HETATM   17  O2  UNL     1      15.024  14.681   3.993  1.00  0.00    -0.155 OA
ATOM     18  H6  UNL     1      16.292  14.247   5.557  1.00  0.00     0.198 HD
HETATM   19  N7  UNL     1      13.768  14.548   3.767  1.00  0.00    -0.232 N 
HETATM   20  C4  UNL     1      13.190  13.967   4.883  1.00  0.00     0.172 A 
ATOM     21  H7  UNL     1      13.280  14.821   2.914  1.00  0.00     0.197 HD
BRANCH  20  22
HETATM   22  C5  UNL     1      11.777  13.661   4.996  1.00  0.00     0.293 C 
HETATM   23  O3  UNL     1      11.187  13.943   6.070  1.00  0.00    -0.264 OA
HETATM   24  N8  UNL     1      11.045  13.071   3.978  1.00  0.00    -0.245 N 
ATOM     25  H8  UNL     1      11.517  12.839   3.104  1.00  0.00     0.192 HD
BRANCH  24  26
HETATM   26  N9  UNL     1       9.666  12.778   4.106  1.00  0.00    -0.207 N 
ATOM     27  H9  UNL     1       9.139  13.215   4.863  1.00  0.00     0.215 HD
BRANCH  26  28
HETATM   28  O4  UNL     1       9.077  12.014   3.337  1.00  0.00    -0.274 OA
ATOM     29  H4  UNL     1       8.331  11.493   3.609  1.00  0.00     0.246 HD
ENDBRANCH  26  28
ENDBRANCH  24  26
ENDBRANCH  20  22
ENDBRANCH  13  15
ENDBRANCH  10  13
ENDBRANCH   1   7
BRANCH   1  30
HETATM   30  C6  UNL     1      14.133  16.706  11.886  1.00  0.00     0.184 A 
HETATM   31  N10 UNL     1      13.496  17.771  11.292  1.00  0.00    -0.265 N 
HETATM   32  N11 UNL     1      13.625  18.819  12.084  1.00  0.00    -0.219 N 
ATOM     33  H10 UNL     1      13.009  17.753  10.396  1.00  0.00     0.190 HD
HETATM   34  N12 UNL     1      14.310  18.492  13.158  1.00  0.00    -0.178 N 
ATOM     35  H11 UNL     1      13.247  19.747  11.892  1.00  0.00     0.210 HD
HETATM   36  N13 UNL     1      14.604  17.216  13.014  1.00  0.00    -0.258 N 
ATOM     37  H13 UNL     1      15.137  16.678  13.698  1.00  0.00     0.191 HD
BRANCH  34  38
HETATM   38  C7  UNL     1      14.697  19.270  14.277  1.00  0.00     0.109 A 
HETATM   39  C8  UNL     1      15.904  19.002  14.881  1.00  0.00     0.039 A 
HETATM   40  C9  UNL     1      16.267  19.764  15.967  1.00  0.00     0.039 A 
HETATM   41  C10 UNL     1      15.453  20.768  16.445  1.00  0.00     0.068 A 
HETATM   42  C11 UNL     1      14.249  21.022  15.829  1.00  0.00     0.075 A 
HETATM   43  C12 UNL     1      13.871  20.267  14.741  1.00  0.00     0.098 A 
BRANCH  41  44
HETATM   44  O5  UNL     1      15.861  21.528  17.563  1.00  0.00    -0.361 OA
ATOM     45  H5  UNL     1      15.207  21.902  18.142  1.00  0.00     0.217 HD
ENDBRANCH  41  44
BRANCH  43  46
HETATM   46  O6  UNL     1      12.646  20.522  14.111  1.00  0.00    -0.358 OA
ATOM     47  H6  UNL     1      11.848  20.588  14.622  1.00  0.00     0.217 HD
ENDBRANCH  43  46
ENDBRANCH  34  38
ENDBRANCH   1  30
TORSDOF 12
ENDMDL
MODEL 3
REMARK VINA RESULT: -8.092477256      2.019      2.362
REMARK  12 active torsions:
REMARK  status: ('A' for Active; 'I' for Inactive)
REMARK    1  A    between atoms: N1_1  and  N2_4 
REMARK    2  A    between atoms: N2_4  and  C1_6 
REMARK    3  A    between atoms: C1_6  and  N3_7 
REMARK    4  A    between atoms: C1_6  and  C6_30 
REMARK       I    between atoms: N3_7  and  C2_9 
REMARK       I    between atoms: C2_9  and  N4_11 
REMARK    5  A    between atoms: N4_11  and  N5_13 
REMARK    6  A    between atoms: N5_13  and  C3_15 
REMARK    7  A    between atoms: C4_21  and  C5_22 
REMARK       I    between atoms: C5_22  and  N8_24 
REMARK    8  A    between atoms: N8_24  and  N9_26 
REMARK    9  A    between atoms: N9_26  and  O4_28 
REMARK   10  A    between atoms: N12_35  and  C7_36 
REMARK   11  A    between atoms: C10_39  and  O5_40 
REMARK   12  A    between atoms: C12_43  and  O6_44 
ROOT
HETATM    1  C1  UNL     1      13.886  15.344  11.234  1.00  0.00     0.171 C 
ENDROOT
BRANCH   1   2
HETATM    2  N2  UNL     1      14.180  14.347  12.068  1.00  0.00    -0.289 N 
ATOM      3  H2  UNL     1      13.435  13.869  12.575  1.00  0.00     0.188 HD
BRANCH   2   4
HETATM    4  N1  UNL     1      15.490  13.964  12.246  1.00  0.00    -0.344 N 
ATOM      5  H12 UNL     1      15.763  13.525  13.125  1.00  0.00     0.176 HD
ATOM      6  H11 UNL     1      16.171  14.121  11.504  1.00  0.00     0.176 HD
ENDBRANCH   2   4
ENDBRANCH   1   2
BRANCH   1   7
HETATM    7  N3  UNL     1      13.583  14.948   9.938  1.00  0.00    -0.289 N 
HETATM    8  C2  UNL     1      14.508  14.431   9.019  1.00  0.00     0.340 C 
HETATM    9  O1  UNL     1      15.732  14.264   9.281  1.00  0.00    -0.245 OA
HETATM   10  N4  UNL     1      14.027  14.075   7.701  1.00  0.00    -0.250 N 
ATOM     11  H4  UNL     1      13.044  14.197   7.452  1.00  0.00     0.192 HD
ATOM     12  H3  UNL     1      12.614  15.040   9.631  1.00  0.00     0.172 HD
BRANCH  10  13
HETATM   13  N5  UNL     1      14.923  13.568   6.795  1.00  0.00    -0.278 N 
ATOM     14  H5  UNL     1      15.899  13.502   7.083  1.00  0.00     0.189 HD
BRANCH  13  15
HETATM   15  C3  UNL     1      14.626  13.171   5.607  1.00  0.00     0.176 A 
HETATM   16  N6  UNL     1      14.404  11.875   5.256  1.00  0.00    -0.222 N 
HETATM   17  O2  UNL     1      14.136  11.858   4.001  1.00  0.00    -0.155 OA
ATOM     18  H6  UNL     1      14.444  11.066   5.876  1.00  0.00     0.198 HD
HETATM   19  N7  UNL     1      14.160  13.033   3.486  1.00  0.00    -0.232 N 
HETATM   20  C4  UNL     1      14.476  13.934   4.488  1.00  0.00     0.172 A 
ATOM     21  H7  UNL     1      13.979  13.263   2.509  1.00  0.00     0.197 HD
BRANCH  20  22
HETATM   22  C5  UNL     1      14.595  15.365   4.282  1.00  0.00     0.293 C 
HETATM   23  O3  UNL     1      13.630  15.977   3.758  1.00  0.00    -0.264 OA
HETATM   24  N8  UNL     1      15.721  16.091   4.635  1.00  0.00    -0.245 N 
ATOM     25  H8  UNL     1      16.509  15.600   5.061  1.00  0.00     0.192 HD
BRANCH  24  26
HETATM   26  N9  UNL     1      15.821  17.487   4.427  1.00  0.00    -0.207 N 
ATOM     27  H9  UNL     1      15.942  18.097   5.236  1.00  0.00     0.215 HD
BRANCH  26  28
HETATM   28  O4  UNL     1      15.766  17.994   3.304  1.00  0.00    -0.274 OA
ATOM     29  H4  UNL     1      14.974  18.395   2.965  1.00  0.00     0.246 HD
ENDBRANCH  26  28
ENDBRANCH  24  26
ENDBRANCH  20  22
ENDBRANCH  13  15
ENDBRANCH  10  13
ENDBRANCH   1   7
BRANCH   1  30
HETATM   30  C6  UNL     1      13.918  16.683  11.740  1.00  0.00     0.184 A 
HETATM   31  N10 UNL     1      13.524  17.820  11.073  1.00  0.00    -0.265 N 
HETATM   32  N11 UNL     1      13.756  18.857  11.857  1.00  0.00    -0.219 N 
ATOM     33  H10 UNL     1      13.122  17.856  10.136  1.00  0.00     0.190 HD
HETATM   34  N12 UNL     1      14.280  18.453  12.994  1.00  0.00    -0.178 N 
ATOM     35  H11 UNL     1      13.559  19.828  11.616  1.00  0.00     0.210 HD
HETATM   36  N13 UNL     1      14.366  17.142  12.899  1.00  0.00    -0.258 N 
ATOM     37  H13 UNL     1      14.739  16.545  13.637  1.00  0.00     0.191 HD
BRANCH  34  38
HETATM   38  C7  UNL     1      14.691  19.191  14.133  1.00  0.00     0.109 A 
HETATM   39  C8  UNL     1      15.900  18.886  14.714  1.00  0.00     0.039 A 
HETATM   40  C9  UNL     1      16.288  19.608  15.819  1.00  0.00     0.039 A 
HETATM   41  C10 UNL     1      15.495  20.609  16.336  1.00  0.00     0.068 A 
HETATM   42  C11 UNL     1      14.289  20.901  15.742  1.00  0.00     0.075 A 
HETATM   43  C12 UNL     1      13.887  20.186  14.636  1.00  0.00     0.098 A 
BRANCH  41  44
HETATM   44  O5  UNL     1      15.928  21.328  17.472  1.00  0.00    -0.361 OA
ATOM     45  H5  UNL     1      15.704  22.248  17.560  1.00  0.00     0.217 HD
ENDBRANCH  41  44
BRANCH  43  46
HETATM   46  O6  UNL     1      12.659  20.480  14.028  1.00  0.00    -0.358 OA
ATOM     47  H6  UNL     1      11.924  19.885  14.119  1.00  0.00     0.217 HD
ENDBRANCH  43  46
ENDBRANCH  34  38
ENDBRANCH   1  30
TORSDOF 12
ENDMDL
MODEL 4
REMARK VINA RESULT: -8.057754743      3.494      9.172
REMARK  12 active torsions:
REMARK  status: ('A' for Active; 'I' for Inactive)
REMARK    1  A    between atoms: N1_1  and  N2_4 
REMARK    2  A    between atoms: N2_4  and  C1_6 
REMARK    3  A    between atoms: C1_6  and  N3_7 
REMARK    4  A    between atoms: C1_6  and  C6_30 
REMARK       I    between atoms: N3_7  and  C2_9 
REMARK       I    between atoms: C2_9  and  N4_11 
REMARK    5  A    between atoms: N4_11  and  N5_13 
REMARK    6  A    between atoms: N5_13  and  C3_15 
REMARK    7  A    between atoms: C4_21  and  C5_22 
REMARK       I    between atoms: C5_22  and  N8_24 
REMARK    8  A    between atoms: N8_24  and  N9_26 
REMARK    9  A    between atoms: N9_26  and  O4_28 
REMARK   10  A    between atoms: N12_35  and  C7_36 
REMARK   11  A    between atoms: C10_39  and  O5_40 
REMARK   12  A    between atoms: C12_43  and  O6_44 
ROOT
HETATM    1  C1  UNL     1      13.979  15.732  12.141  1.00  0.00     0.171 C 
ENDROOT
BRANCH   1   2
HETATM    2  N2  UNL     1      14.284  14.896  13.132  1.00  0.00    -0.289 N 
ATOM      3  H2  UNL     1      13.906  15.053  14.067  1.00  0.00     0.188 HD
BRANCH   2   4
HETATM    4  N1  UNL     1      15.108  13.820  12.894  1.00  0.00    -0.344 N 
ATOM      5  H12 UNL     1      15.814  13.889  12.161  1.00  0.00     0.176 HD
ATOM      6  H11 UNL     1      15.007  12.969  13.447  1.00  0.00     0.176 HD
ENDBRANCH   2   4
ENDBRANCH   1   2
BRANCH   1   7
HETATM    7  N3  UNL     1      14.322  17.058  12.371  1.00  0.00    -0.289 N 
HETATM    8  C2  UNL     1      13.880  18.146  11.605  1.00  0.00     0.340 C 
HETATM    9  O1  UNL     1      13.108  18.033  10.612  1.00  0.00    -0.245 OA
HETATM   10  N4  UNL     1      14.341  19.468  11.976  1.00  0.00    -0.250 N 
ATOM     11  H4  UNL     1      14.967  19.600  12.771  1.00  0.00     0.192 HD
ATOM     12  H3  UNL     1      14.941  17.256  13.158  1.00  0.00     0.172 HD
BRANCH  10  13
HETATM   13  N5  UNL     1      13.915  20.539  11.232  1.00  0.00    -0.278 N 
ATOM     14  H5  UNL     1      13.236  21.169  11.659  1.00  0.00     0.189 HD
BRANCH  13  15
HETATM   15  C3  UNL     1      14.308  20.809  10.037  1.00  0.00     0.176 A 
HETATM   16  N6  UNL     1      13.527  20.720   8.926  1.00  0.00    -0.222 N 
HETATM   17  O2  UNL     1      14.248  21.064   7.921  1.00  0.00    -0.155 OA
ATOM     18  H6  UNL     1      12.549  20.432   8.897  1.00  0.00     0.198 HD
HETATM   19  N7  UNL     1      15.443  21.375   8.269  1.00  0.00    -0.232 N 
HETATM   20  C4  UNL     1      15.543  21.228   9.641  1.00  0.00     0.172 A 
ATOM     21  H7  UNL     1      16.190  21.678   7.644  1.00  0.00     0.197 HD
BRANCH  20  22
HETATM   22  C5  UNL     1      16.752  21.491  10.398  1.00  0.00     0.293 C 
HETATM   23  O3  UNL     1      16.775  21.181  11.617  1.00  0.00    -0.264 OA
HETATM   24  N8  UNL     1      17.884  22.067   9.844  1.00  0.00    -0.245 N 
ATOM     25  H8  UNL     1      17.872  22.321   8.856  1.00  0.00     0.192 HD
BRANCH  24  26
HETATM   26  N9  UNL     1      19.055  22.317  10.598  1.00  0.00    -0.207 N 
ATOM     27  H9  UNL     1      19.964  22.199  10.149  1.00  0.00     0.215 HD
BRANCH  26  28
HETATM   28  O4  UNL     1      19.019  22.673  11.779  1.00  0.00    -0.274 OA
ATOM     29  H4  UNL     1      19.167  22.069  12.497  1.00  0.00     0.246 HD
ENDBRANCH  26  28
ENDBRANCH  24  26
ENDBRANCH  20  22
ENDBRANCH  13  15
ENDBRANCH  10  13
ENDBRANCH   1   7
BRANCH   1  30
HETATM   30  C6  UNL     1      13.342  15.198  10.975  1.00  0.00     0.184 A 
HETATM   31  N10 UNL     1      12.070  14.677  10.902  1.00  0.00    -0.265 N 
HETATM   32  N11 UNL     1      11.876  14.243   9.671  1.00  0.00    -0.219 N 
ATOM     33  H10 UNL     1      11.396  14.634  11.666  1.00  0.00     0.190 HD
HETATM   34  N12 UNL     1      12.951  14.453   8.942  1.00  0.00    -0.178 N 
ATOM     35  H11 UNL     1      11.017  13.808   9.333  1.00  0.00     0.210 HD
HETATM   36  N13 UNL     1      13.818  15.029   9.750  1.00  0.00    -0.258 N 
ATOM     37  H13 UNL     1      14.754  15.313   9.464  1.00  0.00     0.191 HD
BRANCH  34  38
HETATM   38  C7  UNL     1      13.214  14.162   7.580  1.00  0.00     0.109 A 
HETATM   39  C8  UNL     1      12.169  14.198   6.686  1.00  0.00     0.039 A 
HETATM   40  C9  UNL     1      12.438  13.913   5.367  1.00  0.00     0.039 A 
HETATM   41  C10 UNL     1      13.711  13.598   4.945  1.00  0.00     0.068 A 
HETATM   42  C11 UNL     1      14.744  13.568   5.853  1.00  0.00     0.075 A 
HETATM   43  C12 UNL     1      14.491  13.850   7.177  1.00  0.00     0.098 A 
BRANCH  41  44
HETATM   44  O5  UNL     1      13.946  13.312   3.582  1.00  0.00    -0.361 OA
ATOM     45  H5  UNL     1      14.512  12.586   3.345  1.00  0.00     0.217 HD
ENDBRANCH  41  44
BRANCH  43  46
HETATM   46  O6  UNL     1      15.539  13.820   8.106  1.00  0.00    -0.358 OA
ATOM     47  H6  UNL     1      16.260  14.435   8.036  1.00  0.00     0.217 HD
ENDBRANCH  43  46
ENDBRANCH  34  38
ENDBRANCH   1  30
TORSDOF 12
ENDMDL
MODEL 5
REMARK VINA RESULT: -7.931910743      3.793      9.765
REMARK  12 active torsions:
REMARK  status: ('A' for Active; 'I' for Inactive)
REMARK    1  A    between atoms: N1_1  and  N2_4 
REMARK    2  A    between atoms: N2_4  and  C1_6 
REMARK    3  A    between atoms: C1_6  and  N3_7 
REMARK    4  A    between atoms: C1_6  and  C6_30 
REMARK       I    between atoms: N3_7  and  C2_9 
REMARK       I    between atoms: C2_9  and  N4_11 
REMARK    5  A    between atoms: N4_11  and  N5_13 
REMARK    6  A    between atoms: N5_13  and  C3_15 
REMARK    7  A    between atoms: C4_21  and  C5_22 
REMARK       I    between atoms: C5_22  and  N8_24 
REMARK    8  A    between atoms: N8_24  and  N9_26 
REMARK    9  A    between atoms: N9_26  and  O4_28 
REMARK   10  A    between atoms: N12_35  and  C7_36 
REMARK   11  A    between atoms: C10_39  and  O5_40 
REMARK   12  A    between atoms: C12_43  and  O6_44 
ROOT
HETATM    1  C1  UNL     1      14.842  13.595   5.930  1.00  0.00     0.171 C 
ENDROOT
BRANCH   1   2
HETATM    2  N2  UNL     1      15.743  12.739   5.449  1.00  0.00    -0.289 N 
ATOM      3  H2  UNL     1      15.719  11.760   5.733  1.00  0.00     0.188 HD
BRANCH   2   4
HETATM    4  N1  UNL     1      16.705  13.178   4.568  1.00  0.00    -0.344 N 
ATOM      5  H12 UNL     1      16.511  13.996   3.990  1.00  0.00     0.176 HD
ATOM      6  H11 UNL     1      17.596  12.686   4.501  1.00  0.00     0.176 HD
ENDBRANCH   2   4
ENDBRANCH   1   2
BRANCH   1   7
HETATM    7  N3  UNL     1      15.156  14.134   7.172  1.00  0.00    -0.289 N 
HETATM    8  C2  UNL     1      14.396  13.961   8.337  1.00  0.00     0.340 C 
HETATM    9  O1  UNL     1      13.332  13.281   8.382  1.00  0.00    -0.245 OA
HETATM   10  N4  UNL     1      14.861  14.600   9.551  1.00  0.00    -0.250 N 
ATOM     11  H4  UNL     1      15.715  15.158   9.554  1.00  0.00     0.192 HD
ATOM     12  H3  UNL     1      16.004  14.697   7.241  1.00  0.00     0.172 HD
BRANCH  10  13
HETATM   13  N5  UNL     1      14.124  14.438  10.696  1.00  0.00    -0.278 N 
ATOM     14  H5  UNL     1      14.164  13.529  11.158  1.00  0.00     0.189 HD
BRANCH  13  15
HETATM   15  C3  UNL     1      13.386  15.345  11.233  1.00  0.00     0.176 A 
HETATM   16  N6  UNL     1      13.857  16.471  11.835  1.00  0.00    -0.222 N 
HETATM   17  O2  UNL     1      12.840  17.137  12.251  1.00  0.00    -0.155 OA
ATOM     18  H6  UNL     1      14.836  16.737  11.937  1.00  0.00     0.198 HD
HETATM   19  N7  UNL     1      11.733  16.550  11.976  1.00  0.00    -0.232 N 
HETATM   20  C4  UNL     1      12.026  15.372  11.311  1.00  0.00     0.172 A 
ATOM     21  H7  UNL     1      10.800  16.891  12.207  1.00  0.00     0.197 HD
BRANCH  20  22
HETATM   22  C5  UNL     1      11.022  14.437  10.839  1.00  0.00     0.293 C 
HETATM   23  O3  UNL     1      10.544  13.609  11.656  1.00  0.00    -0.264 OA
HETATM   24  N8  UNL     1      10.564  14.412   9.531  1.00  0.00    -0.245 N 
ATOM     25  H8  UNL     1      10.947  15.081   8.863  1.00  0.00     0.192 HD
BRANCH  24  26
HETATM   26  N9  UNL     1       9.583  13.492   9.088  1.00  0.00    -0.207 N 
ATOM     27  H9  UNL     1       9.082  13.688   8.221  1.00  0.00     0.215 HD
BRANCH  26  28
HETATM   28  O4  UNL     1       9.312  12.463   9.712  1.00  0.00    -0.274 OA
ATOM     29  H4  UNL     1       8.511  11.975   9.565  1.00  0.00     0.246 HD
ENDBRANCH  26  28
ENDBRANCH  24  26
ENDBRANCH  20  22
ENDBRANCH  13  15
ENDBRANCH  10  13
ENDBRANCH   1   7
BRANCH   1  30
HETATM   30  C6  UNL     1      13.673  13.861   5.147  1.00  0.00     0.184 A 
HETATM   31  N10 UNL     1      13.574  14.749   4.101  1.00  0.00    -0.265 N 
HETATM   32  N11 UNL     1      12.324  14.743   3.677  1.00  0.00    -0.219 N 
ATOM     33  H10 UNL     1      14.333  15.314   3.720  1.00  0.00     0.190 HD
HETATM   34  N12 UNL     1      11.609  13.900   4.390  1.00  0.00    -0.178 N 
ATOM     35  H11 UNL     1      11.964  15.308   2.907  1.00  0.00     0.210 HD
HETATM   36  N13 UNL     1      12.444  13.383   5.268  1.00  0.00    -0.258 N 
ATOM     37  H13 UNL     1      12.174  12.690   5.965  1.00  0.00     0.191 HD
BRANCH  34  38
HETATM   38  C7  UNL     1      10.237  13.555   4.308  1.00  0.00     0.109 A 
HETATM   39  C8  UNL     1       9.788  12.898   3.186  1.00  0.00     0.039 A 
HETATM   40  C9  UNL     1       8.454  12.570   3.118  1.00  0.00     0.039 A 
HETATM   41  C10 UNL     1       7.584  12.886   4.139  1.00  0.00     0.068 A 
HETATM   42  C11 UNL     1       8.049  13.543   5.255  1.00  0.00     0.075 A 
HETATM   43  C12 UNL     1       9.382  13.879   5.337  1.00  0.00     0.098 A 
BRANCH  41  44
HETATM   44  O5  UNL     1       6.221  12.531   4.032  1.00  0.00    -0.361 OA
ATOM     45  H5  UNL     1       5.796  12.548   3.182  1.00  0.00     0.217 HD
ENDBRANCH  41  44
BRANCH  43  46
HETATM   46  O6  UNL     1       9.861  14.548   6.471  1.00  0.00    -0.358 OA
ATOM     47  H6  UNL     1      10.043  14.068   7.270  1.00  0.00     0.217 HD
ENDBRANCH  43  46
ENDBRANCH  34  38
ENDBRANCH   1  30
TORSDOF 12
ENDMDL
