MODEL 1
REMARK VINA RESULT: -7.999111904      0.000      0.000
REMARK  11 active torsions:
REMARK  status: ('A' for Active; 'I' for Inactive)
REMARK    1  A    between atoms: N1_1  and  N2_4 
REMARK    2  A    between atoms: N2_4  and  C1_6 
REMARK    3  A    between atoms: C1_6  and  O1_7 
REMARK    4  A    between atoms: C1_6  and  C2_9 
REMARK    5  A    between atoms: C3_10  and  S1_11 
REMARK    6  A    between atoms: S1_11  and  S2_12 
REMARK    7  A    between atoms: S2_12  and  C4_13 
REMARK    8  A    between atoms: N5_22  and  N6_23 
REMARK    9  A    between atoms: C9_31  and  C10_32 
REMARK   10  A    between atoms: C11_35  and  O6_36 
REMARK   11  A    between atoms: C12_38  and  O7_39 
ROOT
HETATM    1  C2  UNL     1      13.625  14.703   8.999  1.00  0.00     0.086 A 
HETATM    2  C3  UNL     1      12.694  14.706   7.992  1.00  0.00     0.099 A 
HETATM    3  N8  UNL     1      11.386  14.406   8.173  1.00  0.00    -0.342 N 
ATOM      4  H8  UNL     1      10.761  14.433   7.367  1.00  0.00     0.167 HD
HETATM    5  C9  UNL     1      10.876  14.073   9.377  1.00  0.00     0.147 A 
HETATM    6  C11 UNL     1      11.757  14.055  10.411  1.00  0.00     0.134 A 
HETATM    7  C12 UNL     1      13.144  14.361  10.278  1.00  0.00     0.118 A 
ENDROOT
BRANCH   2   8
HETATM    8  S1  UNL     1      13.211  15.101   6.304  1.00  0.00    -0.032 SA
BRANCH   8   9
HETATM    9  S2  UNL     1      12.792  13.402   5.090  1.00  0.00    -0.030 SA
BRANCH   9  10
HETATM   10  C4  UNL     1      14.307  12.574   4.656  1.00  0.00     0.125 A 
HETATM   11  C5  UNL     1      14.756  11.372   5.123  1.00  0.00     0.145 A 
HETATM   12  N3  UNL     1      15.950  11.074   4.560  1.00  0.00    -0.198 N 
HETATM   13  C6  UNL     1      16.243  12.096   3.741  1.00  0.00     0.697 A 
ATOM     14  H3  UNL     1      16.514  10.240   4.725  1.00  0.00     0.183 HD
HETATM   15  N4  UNL     1      17.296  12.322   2.942  1.00  0.00    -0.139 N 
HETATM   16  N7  UNL     1      15.238  13.016   3.799  1.00  0.00    -0.086 N 
HETATM   17  C7  UNL     1      17.374  13.441   2.198  1.00  0.00     0.363 A 
ATOM     18  H4  UNL     1      18.049  11.636   2.897  1.00  0.00     0.189 HD
HETATM   19  O2  UNL     1      18.331  13.706   1.435  1.00  0.00    -0.244 OA
HETATM   20  N5  UNL     1      16.361  14.343   2.272  1.00  0.00    -0.158 N 
HETATM   21  C8  UNL     1      15.291  14.142   3.066  1.00  0.00     0.371 A 
HETATM   22  O3  UNL     1      14.343  14.965   3.147  1.00  0.00    -0.243 OA
BRANCH  20  23
HETATM   23  N6  UNL     1      16.381  15.529   1.523  1.00  0.00    -0.330 N 
ATOM     24  H62 UNL     1      16.241  15.441   0.516  1.00  0.00     0.177 HD
ATOM     25  H61 UNL     1      16.529  16.436   1.966  1.00  0.00     0.177 HD
ENDBRANCH  20  23
ENDBRANCH   9  10
ENDBRANCH   8   9
ENDBRANCH   2   8
BRANCH   1  26
HETATM   26  C1  UNL     1      15.023  15.022   8.838  1.00  0.00     0.170 C 
BRANCH  26  27
HETATM   27  N2  UNL     1      15.667  16.246   8.618  1.00  0.00    -0.286 N 
ATOM     28  H2  UNL     1      16.652  16.289   8.357  1.00  0.00     0.188 HD
BRANCH  27  29
HETATM   29  N1  UNL     1      14.877  17.443   8.777  1.00  0.00    -0.343 N 
ATOM     30  H12 UNL     1      14.379  17.844   7.982  1.00  0.00     0.176 HD
ATOM     31  H11 UNL     1      14.844  17.860   9.707  1.00  0.00     0.176 HD
ENDBRANCH  27  29
ENDBRANCH  26  27
BRANCH  26  32
HETATM   32  O1  UNL     1      15.843  14.011   8.908  1.00  0.00    -0.344 OA
ATOM     33  H1  UNL     1      16.504  14.013   8.225  1.00  0.00     0.219 HD
ENDBRANCH  26  32
ENDBRANCH   1  26
BRANCH   7  34
HETATM   34  O7  UNL     1      13.914  14.309  11.367  1.00  0.00    -0.357 OA
ATOM     35  H7  UNL     1      13.591  14.072  12.228  1.00  0.00     0.217 HD
ENDBRANCH   7  34
BRANCH   5  36
HETATM   36  C10 UNL     1       9.453  13.769   9.464  1.00  0.00     0.229 C 
HETATM   37  O4  UNL     1       9.046  12.625   9.688  1.00  0.00    -0.643 OA
HETATM   38  O5  UNL     1       8.526  14.803   9.288  1.00  0.00    -0.643 OA
ENDBRANCH   5  36
BRANCH   6  39
HETATM   39  O6  UNL     1      11.357  13.733  11.666  1.00  0.00    -0.356 OA
ATOM     40  H6  UNL     1      11.896  13.190  12.229  1.00  0.00     0.218 HD
ENDBRANCH   6  39
TORSDOF 11
ENDMDL
MODEL 2
REMARK VINA RESULT: -7.829169208      1.958      2.644
REMARK  11 active torsions:
REMARK  status: ('A' for Active; 'I' for Inactive)
REMARK    1  A    between atoms: N1_1  and  N2_4 
REMARK    2  A    between atoms: N2_4  and  C1_6 
REMARK    3  A    between atoms: C1_6  and  O1_7 
REMARK    4  A    between atoms: C1_6  and  C2_9 
REMARK    5  A    between atoms: C3_10  and  S1_11 
REMARK    6  A    between atoms: S1_11  and  S2_12 
REMARK    7  A    between atoms: S2_12  and  C4_13 
REMARK    8  A    between atoms: N5_22  and  N6_23 
REMARK    9  A    between atoms: C9_31  and  C10_32 
REMARK   10  A    between atoms: C11_35  and  O6_36 
REMARK   11  A    between atoms: C12_38  and  O7_39 
ROOT
HETATM    1  C2  UNL     1      13.368  15.202   8.570  1.00  0.00     0.086 A 
HETATM    2  C3  UNL     1      12.369  16.044   8.155  1.00  0.00     0.099 A 
HETATM    3  N8  UNL     1      11.057  15.850   8.431  1.00  0.00    -0.342 N 
ATOM      4  H8  UNL     1      10.378  16.527   8.083  1.00  0.00     0.167 HD
HETATM    5  C9  UNL     1      10.612  14.797   9.148  1.00  0.00     0.147 A 
HETATM    6  C11 UNL     1      11.563  13.931   9.584  1.00  0.00     0.134 A 
HETATM    7  C12 UNL     1      12.957  14.085   9.324  1.00  0.00     0.118 A 
ENDROOT
BRANCH   2   8
HETATM    8  S1  UNL     1      12.784  17.493   7.155  1.00  0.00    -0.032 SA
BRANCH   8   9
HETATM    9  S2  UNL     1      12.906  16.859   5.125  1.00  0.00    -0.030 SA
BRANCH   9  10
HETATM   10  C4  UNL     1      12.633  15.103   5.018  1.00  0.00     0.125 A 
HETATM   11  C5  UNL     1      11.436  14.447   5.076  1.00  0.00     0.145 A 
HETATM   12  N3  UNL     1      11.634  13.113   4.958  1.00  0.00    -0.198 N 
HETATM   13  C6  UNL     1      12.958  12.942   4.825  1.00  0.00     0.697 A 
ATOM     14  H3  UNL     1      10.919  12.385   4.967  1.00  0.00     0.183 HD
HETATM   15  N4  UNL     1      13.701  11.836   4.675  1.00  0.00    -0.139 N 
HETATM   16  N7  UNL     1      13.571  14.159   4.862  1.00  0.00    -0.086 N 
HETATM   17  C7  UNL     1      15.040  11.911   4.560  1.00  0.00     0.363 A 
ATOM     18  H4  UNL     1      13.245  10.924   4.647  1.00  0.00     0.189 HD
HETATM   19  O2  UNL     1      15.785  10.913   4.418  1.00  0.00    -0.244 OA
HETATM   20  N5  UNL     1      15.628  13.134   4.599  1.00  0.00    -0.158 N 
HETATM   21  C8  UNL     1      14.908  14.262   4.749  1.00  0.00     0.371 A 
HETATM   22  O3  UNL     1      15.434  15.403   4.788  1.00  0.00    -0.243 OA
BRANCH  20  23
HETATM   23  N6  UNL     1      17.019  13.281   4.485  1.00  0.00    -0.330 N 
ATOM     24  H62 UNL     1      17.543  12.472   4.149  1.00  0.00     0.177 HD
ATOM     25  H61 UNL     1      17.484  14.156   4.729  1.00  0.00     0.177 HD
ENDBRANCH  20  23
ENDBRANCH   9  10
ENDBRANCH   8   9
ENDBRANCH   2   8
BRANCH   1  26
HETATM   26  C1  UNL     1      14.774  15.384   8.297  1.00  0.00     0.170 C 
BRANCH  26  27
HETATM   27  N2  UNL     1      15.618  16.480   8.512  1.00  0.00    -0.286 N 
ATOM     28  H2  UNL     1      15.855  16.791   9.454  1.00  0.00     0.188 HD
BRANCH  27  29
HETATM   29  N1  UNL     1      16.136  17.151   7.344  1.00  0.00    -0.343 N 
ATOM     30  H12 UNL     1      15.520  17.384   6.565  1.00  0.00     0.176 HD
ATOM     31  H11 UNL     1      17.131  17.376   7.340  1.00  0.00     0.176 HD
ENDBRANCH  27  29
ENDBRANCH  26  27
BRANCH  26  32
HETATM   32  O1  UNL     1      15.379  14.362   7.758  1.00  0.00    -0.344 OA
ATOM     33  H1  UNL     1      16.327  14.416   7.808  1.00  0.00     0.219 HD
ENDBRANCH  26  32
ENDBRANCH   1  26
BRANCH   7  34
HETATM   34  O7  UNL     1      13.799  13.167   9.804  1.00  0.00    -0.357 OA
ATOM     35  H7  UNL     1      13.784  12.254   9.545  1.00  0.00     0.217 HD
ENDBRANCH   7  34
BRANCH   5  36
HETATM   36  C10 UNL     1       9.179  14.683   9.389  1.00  0.00     0.229 C 
HETATM   37  O4  UNL     1       8.443  15.673   9.406  1.00  0.00    -0.643 OA
HETATM   38  O5  UNL     1       8.627  13.415   9.609  1.00  0.00    -0.643 OA
ENDBRANCH   5  36
BRANCH   6  39
HETATM   39  O6  UNL     1      11.231  12.837  10.314  1.00  0.00    -0.356 OA
ATOM     40  H6  UNL     1      10.889  12.921  11.196  1.00  0.00     0.218 HD
ENDBRANCH   6  39
TORSDOF 11
ENDMDL
MODEL 3
REMARK VINA RESULT: -7.806634614      1.638      2.403
REMARK  11 active torsions:
REMARK  status: ('A' for Active; 'I' for Inactive)
REMARK    1  A    between atoms: N1_1  and  N2_4 
REMARK    2  A    between atoms: N2_4  and  C1_6 
REMARK    3  A    between atoms: C1_6  and  O1_7 
REMARK    4  A    between atoms: C1_6  and  C2_9 
REMARK    5  A    between atoms: C3_10  and  S1_11 
REMARK    6  A    between atoms: S1_11  and  S2_12 
REMARK    7  A    between atoms: S2_12  and  C4_13 
REMARK    8  A    between atoms: N5_22  and  N6_23 
REMARK    9  A    between atoms: C9_31  and  C10_32 
REMARK   10  A    between atoms: C11_35  and  O6_36 
REMARK   11  A    between atoms: C12_38  and  O7_39 
ROOT
HETATM    1  C2  UNL     1      12.995  15.422   9.082  1.00  0.00     0.086 A 
HETATM    2  C3  UNL     1      11.953  15.656   8.222  1.00  0.00     0.099 A 
HETATM    3  N8  UNL     1      10.714  15.130   8.378  1.00  0.00    -0.342 N 
ATOM      4  H8  UNL     1       9.996  15.357   7.690  1.00  0.00     0.167 HD
HETATM    5  C9  UNL     1      10.393  14.318   9.406  1.00  0.00     0.147 A 
HETATM    6  C11 UNL     1      11.391  14.053  10.288  1.00  0.00     0.134 A 
HETATM    7  C12 UNL     1      12.712  14.579  10.175  1.00  0.00     0.118 A 
ENDROOT
BRANCH   2   8
HETATM    8  S1  UNL     1      12.215  16.701   6.769  1.00  0.00    -0.032 SA
BRANCH   8   9
HETATM    9  S2  UNL     1      12.572  15.414   5.109  1.00  0.00    -0.030 SA
BRANCH   9  10
HETATM   10  C4  UNL     1      14.309  15.387   4.721  1.00  0.00     0.125 A 
HETATM   11  C5  UNL     1      15.178  16.441   4.742  1.00  0.00     0.145 A 
HETATM   12  N3  UNL     1      16.416  16.026   4.386  1.00  0.00    -0.198 N 
HETATM   13  C6  UNL     1      16.315  14.710   4.143  1.00  0.00     0.697 A 
ATOM     14  H3  UNL     1      17.258  16.599   4.316  1.00  0.00     0.183 HD
HETATM   15  N4  UNL     1      17.225  13.803   3.760  1.00  0.00    -0.139 N 
HETATM   16  N7  UNL     1      15.025  14.317   4.348  1.00  0.00    -0.086 N 
HETATM   17  C7  UNL     1      16.884  12.514   3.576  1.00  0.00     0.363 A 
ATOM     18  H4  UNL     1      18.191  14.094   3.606  1.00  0.00     0.189 HD
HETATM   19  O2  UNL     1      17.690  11.624   3.219  1.00  0.00    -0.244 OA
HETATM   20  N5  UNL     1      15.594  12.146   3.786  1.00  0.00    -0.158 N 
HETATM   21  C8  UNL     1      14.658  13.035   4.171  1.00  0.00     0.371 A 
HETATM   22  O3  UNL     1      13.459  12.714   4.370  1.00  0.00    -0.243 OA
BRANCH  20  23
HETATM   23  N6  UNL     1      15.174  10.819   3.611  1.00  0.00    -0.330 N 
ATOM     24  H62 UNL     1      15.871  10.155   3.273  1.00  0.00     0.177 HD
ATOM     25  H61 UNL     1      14.216  10.533   3.812  1.00  0.00     0.177 HD
ENDBRANCH  20  23
ENDBRANCH   9  10
ENDBRANCH   8   9
ENDBRANCH   2   8
BRANCH   1  26
HETATM   26  C1  UNL     1      14.322  15.971   8.946  1.00  0.00     0.170 C 
BRANCH  26  27
HETATM   27  N2  UNL     1      15.510  15.398   8.474  1.00  0.00    -0.286 N 
ATOM     28  H2  UNL     1      16.404  15.883   8.558  1.00  0.00     0.188 HD
BRANCH  27  29
HETATM   29  N1  UNL     1      15.416  14.094   7.865  1.00  0.00    -0.343 N 
ATOM     30  H12 UNL     1      16.114  13.788   7.186  1.00  0.00     0.176 HD
ATOM     31  H11 UNL     1      14.630  13.506   8.142  1.00  0.00     0.176 HD
ENDBRANCH  27  29
ENDBRANCH  26  27
BRANCH  26  32
HETATM   32  O1  UNL     1      14.459  17.213   9.320  1.00  0.00    -0.344 OA
ATOM     33  H1  UNL     1      14.237  17.359  10.233  1.00  0.00     0.219 HD
ENDBRANCH  26  32
ENDBRANCH   1  26
BRANCH   7  34
HETATM   34  O7  UNL     1      13.611  14.247  11.104  1.00  0.00    -0.357 OA
ATOM     35  H7  UNL     1      13.504  13.517  11.702  1.00  0.00     0.217 HD
ENDBRANCH   7  34
BRANCH   5  36
HETATM   36  C10 UNL     1       9.030  13.805   9.481  1.00  0.00     0.229 C 
HETATM   37  O4  UNL     1       8.791  12.595   9.485  1.00  0.00    -0.643 OA
HETATM   38  O5  UNL     1       7.967  14.713   9.549  1.00  0.00    -0.643 OA
ENDBRANCH   5  36
BRANCH   6  39
HETATM   39  O6  UNL     1      11.183  13.249  11.360  1.00  0.00    -0.356 OA
ATOM     40  H6  UNL     1      10.327  13.187  11.768  1.00  0.00     0.218 HD
ENDBRANCH   6  39
TORSDOF 11
ENDMDL
MODEL 4
REMARK VINA RESULT: -7.758969921      1.864      4.029
REMARK  11 active torsions:
REMARK  status: ('A' for Active; 'I' for Inactive)
REMARK    1  A    between atoms: N1_1  and  N2_4 
REMARK    2  A    between atoms: N2_4  and  C1_6 
REMARK    3  A    between atoms: C1_6  and  O1_7 
REMARK    4  A    between atoms: C1_6  and  C2_9 
REMARK    5  A    between atoms: C3_10  and  S1_11 
REMARK    6  A    between atoms: S1_11  and  S2_12 
REMARK    7  A    between atoms: S2_12  and  C4_13 
REMARK    8  A    between atoms: N5_22  and  N6_23 
REMARK    9  A    between atoms: C9_31  and  C10_32 
REMARK   10  A    between atoms: C11_35  and  O6_36 
REMARK   11  A    between atoms: C12_38  and  O7_39 
ROOT
HETATM    1  C2  UNL     1      10.669  14.432   9.638  1.00  0.00     0.086 A 
HETATM    2  C3  UNL     1      11.623  14.548   8.661  1.00  0.00     0.099 A 
HETATM    3  N8  UNL     1      12.956  14.503   8.900  1.00  0.00    -0.342 N 
ATOM      4  H8  UNL     1      13.598  14.597   8.113  1.00  0.00     0.167 HD
HETATM    5  C9  UNL     1      13.468  14.337  10.137  1.00  0.00     0.147 A 
HETATM    6  C11 UNL     1      12.564  14.217  11.143  1.00  0.00     0.134 A 
HETATM    7  C12 UNL     1      11.151  14.257  10.951  1.00  0.00     0.118 A 
ENDROOT
BRANCH   2   8
HETATM    8  S1  UNL     1      11.114  14.806   6.945  1.00  0.00    -0.032 SA
BRANCH   8   9
HETATM    9  S2  UNL     1      12.372  13.606   5.714  1.00  0.00    -0.030 SA
BRANCH   9  10
HETATM   10  C4  UNL     1      13.880  14.479   5.350  1.00  0.00     0.125 A 
HETATM   11  C5  UNL     1      14.202  15.758   5.706  1.00  0.00     0.145 A 
HETATM   12  N3  UNL     1      15.437  16.068   5.247  1.00  0.00    -0.198 N 
HETATM   13  C6  UNL     1      15.883  14.978   4.605  1.00  0.00     0.697 A 
ATOM     14  H3  UNL     1      15.931  16.953   5.367  1.00  0.00     0.183 HD
HETATM   15  N4  UNL     1      17.034  14.730   3.964  1.00  0.00    -0.139 N 
HETATM   16  N7  UNL     1      14.930  14.004   4.666  1.00  0.00    -0.086 N 
HETATM   17  C7  UNL     1      17.262  13.538   3.382  1.00  0.00     0.363 A 
ATOM     18  H4  UNL     1      17.749  15.457   3.916  1.00  0.00     0.189 HD
HETATM   19  O2  UNL     1      18.317  13.250   2.771  1.00  0.00    -0.244 OA
HETATM   20  N5  UNL     1      16.299  12.584   3.457  1.00  0.00    -0.158 N 
HETATM   21  C8  UNL     1      15.132  12.803   4.094  1.00  0.00     0.371 A 
HETATM   22  O3  UNL     1      14.228  11.933   4.173  1.00  0.00    -0.243 OA
BRANCH  20  23
HETATM   23  N6  UNL     1      16.474  11.320   2.872  1.00  0.00    -0.330 N 
ATOM     24  H62 UNL     1      17.387  11.125   2.462  1.00  0.00     0.177 HD
ATOM     25  H61 UNL     1      15.721  10.632   2.858  1.00  0.00     0.177 HD
ENDBRANCH  20  23
ENDBRANCH   9  10
ENDBRANCH   8   9
ENDBRANCH   2   8
BRANCH   1  26
HETATM   26  C1  UNL     1       9.244  14.471   9.415  1.00  0.00     0.170 C 
BRANCH  26  27
HETATM   27  N2  UNL     1       8.401  15.525   9.041  1.00  0.00    -0.286 N 
ATOM     28  H2  UNL     1       7.580  15.367   8.456  1.00  0.00     0.188 HD
BRANCH  27  29
HETATM   29  N1  UNL     1       8.743  16.843   9.517  1.00  0.00    -0.343 N 
ATOM     30  H12 UNL     1       9.318  17.466   8.949  1.00  0.00     0.176 HD
ATOM     31  H11 UNL     1       8.387  17.114  10.434  1.00  0.00     0.176 HD
ENDBRANCH  27  29
ENDBRANCH  26  27
BRANCH  26  32
HETATM   32  O1  UNL     1       8.616  13.341   9.585  1.00  0.00    -0.344 OA
ATOM     33  H1  UNL     1       8.581  12.807   8.800  1.00  0.00     0.219 HD
ENDBRANCH  26  32
ENDBRANCH   1  26
BRANCH   7  34
HETATM   34  O7  UNL     1      10.360  14.128  12.017  1.00  0.00    -0.357 OA
ATOM     35  H7  UNL     1      10.487  14.607  12.827  1.00  0.00     0.217 HD
ENDBRANCH   7  34
BRANCH   5  36
HETATM   36  C10 UNL     1      14.919  14.301  10.284  1.00  0.00     0.229 C 
HETATM   37  O4  UNL     1      15.653  15.070   9.658  1.00  0.00    -0.643 OA
HETATM   38  O5  UNL     1      15.489  13.369  11.159  1.00  0.00    -0.643 OA
ENDBRANCH   5  36
BRANCH   6  39
HETATM   39  O6  UNL     1      12.965  14.047  12.427  1.00  0.00    -0.356 OA
ATOM     40  H6  UNL     1      12.519  13.436  13.003  1.00  0.00     0.218 HD
ENDBRANCH   6  39
TORSDOF 11
ENDMDL
MODEL 5
REMARK VINA RESULT: -7.666211530      1.429      1.526
REMARK  11 active torsions:
REMARK  status: ('A' for Active; 'I' for Inactive)
REMARK    1  A    between atoms: N1_1  and  N2_4 
REMARK    2  A    between atoms: N2_4  and  C1_6 
REMARK    3  A    between atoms: C1_6  and  O1_7 
REMARK    4  A    between atoms: C1_6  and  C2_9 
REMARK    5  A    between atoms: C3_10  and  S1_11 
REMARK    6  A    between atoms: S1_11  and  S2_12 
REMARK    7  A    between atoms: S2_12  and  C4_13 
REMARK    8  A    between atoms: N5_22  and  N6_23 
REMARK    9  A    between atoms: C9_31  and  C10_32 
REMARK   10  A    between atoms: C11_35  and  O6_36 
REMARK   11  A    between atoms: C12_38  and  O7_39 
ROOT
HETATM    1  C2  UNL     1      13.435  14.281  10.079  1.00  0.00     0.086 A 
HETATM    2  C3  UNL     1      12.926  14.344   8.808  1.00  0.00     0.099 A 
HETATM    3  N8  UNL     1      11.605  14.255   8.519  1.00  0.00    -0.342 N 
ATOM      4  H8  UNL     1      11.311  14.311   7.544  1.00  0.00     0.167 HD
HETATM    5  C9  UNL     1      10.662  14.093   9.471  1.00  0.00     0.147 A 
HETATM    6  C11 UNL     1      11.114  14.025  10.750  1.00  0.00     0.134 A 
HETATM    7  C12 UNL     1      12.491  14.113  11.112  1.00  0.00     0.118 A 
ENDROOT
BRANCH   2   8
HETATM    8  S1  UNL     1      14.053  14.528   7.405  1.00  0.00    -0.032 SA
BRANCH   8   9
HETATM    9  S2  UNL     1      13.192  13.498   5.751  1.00  0.00    -0.030 SA
BRANCH   9  10
HETATM   10  C4  UNL     1      14.459  12.639   4.842  1.00  0.00     0.125 A 
HETATM   11  C5  UNL     1      14.710  11.296   4.842  1.00  0.00     0.145 A 
HETATM   12  N3  UNL     1      15.755  11.021   4.026  1.00  0.00    -0.198 N 
HETATM   13  C6  UNL     1      16.153  12.198   3.519  1.00  0.00     0.697 A 
ATOM     14  H3  UNL     1      16.158  10.104   3.834  1.00  0.00     0.183 HD
HETATM   15  N4  UNL     1      17.137  12.511   2.663  1.00  0.00    -0.139 N 
HETATM   16  N7  UNL     1      15.360  13.190   4.018  1.00  0.00    -0.086 N 
HETATM   17  C7  UNL     1      17.352  13.787   2.291  1.00  0.00     0.363 A 
ATOM     18  H4  UNL     1      17.731  11.772   2.288  1.00  0.00     0.189 HD
HETATM   19  O2  UNL     1      18.254  14.139   1.497  1.00  0.00    -0.244 OA
HETATM   20  N5  UNL     1      16.550  14.757   2.801  1.00  0.00    -0.158 N 
HETATM   21  C8  UNL     1      15.554  14.473   3.662  1.00  0.00     0.371 A 
HETATM   22  O3  UNL     1      14.802  15.357   4.145  1.00  0.00    -0.243 OA
BRANCH  20  23
HETATM   23  N6  UNL     1      16.722  16.106   2.454  1.00  0.00    -0.330 N 
ATOM     24  H62 UNL     1      16.319  16.409   1.567  1.00  0.00     0.177 HD
ATOM     25  H61 UNL     1      17.227  16.751   3.062  1.00  0.00     0.177 HD
ENDBRANCH  20  23
ENDBRANCH   9  10
ENDBRANCH   8   9
ENDBRANCH   2   8
BRANCH   1  26
HETATM   26  C1  UNL     1      14.834  14.377  10.418  1.00  0.00     0.170 C 
BRANCH  26  27
HETATM   27  N2  UNL     1      15.649  13.552  11.203  1.00  0.00    -0.286 N 
ATOM     28  H2  UNL     1      16.239  12.834  10.783  1.00  0.00     0.188 HD
BRANCH  27  29
HETATM   29  N1  UNL     1      15.617  13.760  12.630  1.00  0.00    -0.343 N 
ATOM     30  H12 UNL     1      14.727  13.832  13.123  1.00  0.00     0.176 HD
ATOM     31  H11 UNL     1      16.514  13.831  13.111  1.00  0.00     0.176 HD
ENDBRANCH  27  29
ENDBRANCH  26  27
BRANCH  26  32
HETATM   32  O1  UNL     1      15.466  15.402   9.916  1.00  0.00    -0.344 OA
ATOM     33  H1  UNL     1      15.690  15.295   8.999  1.00  0.00     0.219 HD
ENDBRANCH  26  32
ENDBRANCH   1  26
BRANCH   7  34
HETATM   34  O7  UNL     1      12.816  14.031  12.403  1.00  0.00    -0.357 OA
ATOM     35  H7  UNL     1      13.038  14.784  12.938  1.00  0.00     0.217 HD
ENDBRANCH   7  34
BRANCH   5  36
HETATM   36  C10 UNL     1       9.267  14.010   9.053  1.00  0.00     0.229 C 
HETATM   37  O4  UNL     1       8.441  13.344   9.683  1.00  0.00    -0.643 OA
HETATM   38  O5  UNL     1       8.859  14.703   7.908  1.00  0.00    -0.643 OA
ENDBRANCH   5  36
BRANCH   6  39
HETATM   39  O6  UNL     1      10.256  13.864  11.788  1.00  0.00    -0.356 OA
ATOM     40  H6  UNL     1       9.328  13.723  11.640  1.00  0.00     0.218 HD
ENDBRANCH   6  39
TORSDOF 11
ENDMDL
