MODEL 1
REMARK VINA RESULT: -8.028967463      0.000      0.000
REMARK  8 active torsions:
REMARK  status: ('A' for Active; 'I' for Inactive)
REMARK       I    between atoms: C1_4  and  N3_6 
REMARK    1  A    between atoms: C4_11  and  N5_12 
REMARK    2  A    between atoms: C5_13  and  C6_14 
REMARK    3  A    between atoms: N8_19  and  N9_20 
REMARK    4  A    between atoms: N9_20  and  C7_22 
REMARK    5  A    between atoms: C7_22  and  C8_23 
REMARK    6  A    between atoms: C9_30  and  C10_31 
REMARK    7  A    between atoms: C10_31  and  N13_32 
REMARK    8  A    between atoms: N13_32  and  O2_34 
ROOT
HETATM    1  N5  UNL     1      14.425  15.479   7.938  1.00  0.00    -0.224 N 
HETATM    2  C5  UNL     1      14.522  14.367   8.650  1.00  0.00     0.200 A 
HETATM    3  N7  UNL     1      14.135  13.312   7.830  1.00  0.00    -0.255 N 
ATOM      4  H7  UNL     1      14.111  12.329   8.104  1.00  0.00     0.191 HD
HETATM    5  N8  UNL     1      13.810  13.770   6.668  1.00  0.00    -0.140 N 
HETATM    6  C11 UNL     1      13.987  15.135   6.708  1.00  0.00     0.370 A 
HETATM    7  O3  UNL     1      13.775  15.879   5.734  1.00  0.00    -0.242 OA
ENDROOT
BRANCH   1   8
HETATM    8  C4  UNL     1      14.702  16.797   8.423  1.00  0.00     0.149 A 
HETATM    9  C3  UNL     1      13.778  17.547   9.077  1.00  0.00     0.073 A 
HETATM   10  C2  UNL     1      12.477  17.361   9.532  1.00  0.00     0.127 A 
HETATM   11  C13 UNL     1      14.093  18.855   9.446  1.00  0.00     0.161 A 
HETATM   12  N4  UNL     1      12.089  18.529  10.128  1.00  0.00    -0.300 N 
HETATM   13  N3  UNL     1      13.016  19.416  10.083  1.00  0.00    -0.210 N 
ATOM     14  H4  UNL     1      11.175  18.678  10.556  1.00  0.00     0.186 HD
HETATM   15  C1  UNL     1      13.135  20.776  10.500  1.00  0.00     0.209 C 
HETATM   16  N1  UNL     1      12.588  21.687   9.801  1.00  0.00    -0.372 N 
HETATM   17  N2  UNL     1      13.882  21.109  11.651  1.00  0.00    -0.062 NA
ATOM     18  H12 UNL     1      12.673  22.659  10.099  1.00  0.00     0.158 HD
ATOM     19  H11 UNL     1      12.049  21.447   8.970  1.00  0.00     0.158 HD
HETATM   20  N16 UNL     1      15.309  19.316   9.140  1.00  0.00    -0.174 N 
HETATM   21  C12 UNL     1      16.245  18.554   8.482  1.00  0.00     0.679 A 
ATOM     22  H16 UNL     1      15.552  20.271   9.405  1.00  0.00     0.186 HD
HETATM   23  N14 UNL     1      15.945  17.318   8.132  1.00  0.00    -0.175 N 
HETATM   24  N15 UNL     1      17.381  19.023   8.242  1.00  0.00    -0.234 N 
ATOM     25  H14 UNL     1      16.634  16.746   7.644  1.00  0.00     0.186 HD
ATOM     26 2H15 UNL     1      18.076  18.458   7.754  1.00  0.00     0.174 HD
ATOM     27 1H15 UNL     1      17.614  19.979   8.512  1.00  0.00     0.174 HD
ENDBRANCH   1   8
BRANCH   2  28
HETATM   28  C6  UNL     1      14.925  14.104  10.031  1.00  0.00     0.300 C 
HETATM   29  N6  UNL     1      14.027  14.405  11.102  1.00  0.00    -0.054 NA
HETATM   30  O1  UNL     1      16.030  13.631  10.310  1.00  0.00    -0.268 OA
ENDBRANCH   2  28
BRANCH   5  31
HETATM   31  N9  UNL     1      13.493  13.044   5.567  1.00  0.00    -0.284 N 
ATOM     32  H9  UNL     1      12.810  12.310   5.758  1.00  0.00     0.188 HD
BRANCH  31  33
HETATM   33  C7  UNL     1      13.890  13.080   4.245  1.00  0.00     0.142 C 
BRANCH  33  34
HETATM   34  C8  UNL     1      15.170  12.556   3.768  1.00  0.00     0.096 A 
HETATM   35  N10 UNL     1      15.718  11.369   3.644  1.00  0.00    -0.283 N 
HETATM   36  N11 UNL     1      17.035  11.441   3.387  1.00  0.00    -0.242 N 
ATOM     37  H10 UNL     1      15.203  10.492   3.731  1.00  0.00     0.188 HD
HETATM   38  N12 UNL     1      17.305  12.723   3.351  1.00  0.00    -0.283 N 
ATOM     39  H11 UNL     1      17.683  10.666   3.251  1.00  0.00     0.208 HD
HETATM   40  C9  UNL     1      16.276  13.478   3.562  1.00  0.00     0.096 A 
ATOM     41  H12 UNL     1      18.240  13.091   3.173  1.00  0.00     0.188 HD
BRANCH  40  42
HETATM   42  C10 UNL     1      16.044  14.888   3.476  1.00  0.00     0.147 C 
BRANCH  42  43
HETATM   43  N13 UNL     1      16.425  15.729   4.347  1.00  0.00    -0.278 N 
ATOM     44  H13 UNL     1      17.024  15.419   5.112  1.00  0.00     0.193 HD
BRANCH  43  45
HETATM   45  O2  UNL     1      16.044  17.064   4.283  1.00  0.00    -0.290 OA
ATOM     46  H2  UNL     1      15.184  17.348   4.573  1.00  0.00     0.244 HD
ENDBRANCH  43  45
ENDBRANCH  42  43
ENDBRANCH  40  42
ENDBRANCH  33  34
ENDBRANCH  31  33
ENDBRANCH   5  31
TORSDOF 8
ENDMDL
MODEL 2
REMARK VINA RESULT: -7.839867013      2.682      7.771
REMARK  8 active torsions:
REMARK  status: ('A' for Active; 'I' for Inactive)
REMARK       I    between atoms: C1_4  and  N3_6 
REMARK    1  A    between atoms: C4_11  and  N5_12 
REMARK    2  A    between atoms: C5_13  and  C6_14 
REMARK    3  A    between atoms: N8_19  and  N9_20 
REMARK    4  A    between atoms: N9_20  and  C7_22 
REMARK    5  A    between atoms: C7_22  and  C8_23 
REMARK    6  A    between atoms: C9_30  and  C10_31 
REMARK    7  A    between atoms: C10_31  and  N13_32 
REMARK    8  A    between atoms: N13_32  and  O2_34 
ROOT
HETATM    1  N5  UNL     1      13.418  14.440   7.117  1.00  0.00    -0.224 N 
HETATM    2  C5  UNL     1      13.825  14.543   8.372  1.00  0.00     0.200 A 
HETATM    3  N7  UNL     1      12.693  14.527   9.181  1.00  0.00    -0.255 N 
ATOM      4  H7  UNL     1      12.695  14.586  10.199  1.00  0.00     0.191 HD
HETATM    5  N8  UNL     1      11.641  14.425   8.441  1.00  0.00    -0.140 N 
HETATM    6  C11 UNL     1      12.070  14.365   7.134  1.00  0.00     0.370 A 
HETATM    7  O3  UNL     1      11.297  14.248   6.166  1.00  0.00    -0.242 OA
ENDROOT
BRANCH   1   8
HETATM    8  C4  UNL     1      14.272  14.451   5.968  1.00  0.00     0.149 A 
HETATM    9  C3  UNL     1      14.726  13.314   5.379  1.00  0.00     0.073 A 
HETATM   10  C2  UNL     1      14.525  11.949   5.552  1.00  0.00     0.127 A 
HETATM   11  C13 UNL     1      15.623  13.404   4.315  1.00  0.00     0.161 A 
HETATM   12  N4  UNL     1      15.290  11.309   4.615  1.00  0.00    -0.300 N 
HETATM   13  N3  UNL     1      15.943  12.141   3.887  1.00  0.00    -0.210 N 
ATOM     14  H4  UNL     1      15.336  10.296   4.508  1.00  0.00     0.186 HD
HETATM   15  C1  UNL     1      16.890  12.028   2.825  1.00  0.00     0.209 C 
HETATM   16  N1  UNL     1      18.093  11.722   3.098  1.00  0.00    -0.372 N 
HETATM   17  N2  UNL     1      16.504  12.290   1.492  1.00  0.00    -0.062 NA
ATOM     18  H12 UNL     1      18.770  11.642   2.339  1.00  0.00     0.158 HD
ATOM     19  H11 UNL     1      18.372  11.533   4.061  1.00  0.00     0.158 HD
HETATM   20  N16 UNL     1      15.998  14.622   3.914  1.00  0.00    -0.174 N 
HETATM   21  C12 UNL     1      15.535  15.772   4.508  1.00  0.00     0.679 A 
ATOM     22  H16 UNL     1      16.654  14.701   3.136  1.00  0.00     0.186 HD
HETATM   23  N14 UNL     1      14.688  15.685   5.516  1.00  0.00    -0.175 N 
HETATM   24  N15 UNL     1      15.896  16.891   4.077  1.00  0.00    -0.234 N 
ATOM     25  H14 UNL     1      14.340  16.533   5.961  1.00  0.00     0.186 HD
ATOM     26 2H15 UNL     1      15.553  17.744   4.517  1.00  0.00     0.174 HD
ATOM     27 1H15 UNL     1      16.551  16.959   3.297  1.00  0.00     0.174 HD
ENDBRANCH   1   8
BRANCH   2  28
HETATM   28  C6  UNL     1      15.150  14.666   8.980  1.00  0.00     0.300 C 
HETATM   29  N6  UNL     1      15.739  15.959   9.143  1.00  0.00    -0.054 NA
HETATM   30  O1  UNL     1      15.791  13.680   9.355  1.00  0.00    -0.268 OA
ENDBRANCH   2  28
BRANCH   5  31
HETATM   31  N9  UNL     1      10.362  14.262   8.863  1.00  0.00    -0.284 N 
ATOM     32  H9  UNL     1       9.974  13.352   8.614  1.00  0.00     0.188 HD
BRANCH  31  33
HETATM   33  C7  UNL     1       9.471  15.056   9.558  1.00  0.00     0.142 C 
BRANCH  33  34
HETATM   34  C8  UNL     1       9.761  16.429   9.971  1.00  0.00     0.096 A 
HETATM   35  N10 UNL     1       9.757  17.610   9.396  1.00  0.00    -0.283 N 
HETATM   36  N11 UNL     1      10.357  18.545  10.152  1.00  0.00    -0.242 N 
ATOM     37  H10 UNL     1       9.345  17.796   8.482  1.00  0.00     0.188 HD
HETATM   38  N12 UNL     1      10.743  17.914  11.233  1.00  0.00    -0.283 N 
ATOM     39  H11 UNL     1      10.486  19.532   9.931  1.00  0.00     0.208 HD
HETATM   40  C9  UNL     1      10.442  16.656  11.236  1.00  0.00     0.096 A 
ATOM     41  H12 UNL     1      11.235  18.371  12.001  1.00  0.00     0.188 HD
BRANCH  40  42
HETATM   42  C10 UNL     1      10.515  15.620  12.222  1.00  0.00     0.147 C 
BRANCH  42  43
HETATM   43  N13 UNL     1      11.544  14.908  12.436  1.00  0.00    -0.278 N 
ATOM     44  H13 UNL     1      12.266  15.253  13.069  1.00  0.00     0.193 HD
BRANCH  43  45
HETATM   45  O2  UNL     1      11.709  13.670  11.829  1.00  0.00    -0.290 OA
ATOM     46  H2  UNL     1      12.567  13.269  11.745  1.00  0.00     0.244 HD
ENDBRANCH  43  45
ENDBRANCH  42  43
ENDBRANCH  40  42
ENDBRANCH  33  34
ENDBRANCH  31  33
ENDBRANCH   5  31
TORSDOF 8
ENDMDL
MODEL 3
REMARK VINA RESULT: -7.832577482      1.024      1.075
REMARK  8 active torsions:
REMARK  status: ('A' for Active; 'I' for Inactive)
REMARK       I    between atoms: C1_4  and  N3_6 
REMARK    1  A    between atoms: C4_11  and  N5_12 
REMARK    2  A    between atoms: C5_13  and  C6_14 
REMARK    3  A    between atoms: N8_19  and  N9_20 
REMARK    4  A    between atoms: N9_20  and  C7_22 
REMARK    5  A    between atoms: C7_22  and  C8_23 
REMARK    6  A    between atoms: C9_30  and  C10_31 
REMARK    7  A    between atoms: C10_31  and  N13_32 
REMARK    8  A    between atoms: N13_32  and  O2_34 
ROOT
HETATM    1  N5  UNL     1      14.044  15.335   6.999  1.00  0.00    -0.224 N 
HETATM    2  C5  UNL     1      14.097  14.125   7.533  1.00  0.00     0.200 A 
HETATM    3  N7  UNL     1      13.655  13.224   6.569  1.00  0.00    -0.255 N 
ATOM      4  H7  UNL     1      13.591  12.213   6.692  1.00  0.00     0.191 HD
HETATM    5  N8  UNL     1      13.341  13.866   5.495  1.00  0.00    -0.140 N 
HETATM    6  C11 UNL     1      13.579  15.200   5.738  1.00  0.00     0.370 A 
HETATM    7  O3  UNL     1      13.391  16.093   4.891  1.00  0.00    -0.242 OA
ENDROOT
BRANCH   1   8
HETATM    8  C4  UNL     1      14.383  16.551   7.673  1.00  0.00     0.149 A 
HETATM    9  C3  UNL     1      13.460  17.327   8.297  1.00  0.00     0.073 A 
HETATM   10  C2  UNL     1      12.098  17.244   8.564  1.00  0.00     0.127 A 
HETATM   11  C13 UNL     1      13.852  18.541   8.860  1.00  0.00     0.161 A 
HETATM   12  N4  UNL     1      11.752  18.377   9.248  1.00  0.00    -0.300 N 
HETATM   13  N3  UNL     1      12.761  19.150   9.426  1.00  0.00    -0.210 N 
ATOM     14  H4  UNL     1      10.808  18.582   9.576  1.00  0.00     0.186 HD
HETATM   15  C1  UNL     1      12.959  20.433  10.019  1.00  0.00     0.209 C 
HETATM   16  N1  UNL     1      12.605  21.472   9.377  1.00  0.00    -0.372 N 
HETATM   17  N2  UNL     1      13.574  20.550  11.285  1.00  0.00    -0.062 NA
ATOM     18  H12 UNL     1      12.747  22.390   9.800  1.00  0.00     0.158 HD
ATOM     19  H11 UNL     1      12.161  21.388   8.463  1.00  0.00     0.158 HD
HETATM   20  N16 UNL     1      15.138  18.890   8.764  1.00  0.00    -0.174 N 
HETATM   21  C12 UNL     1      16.073  18.101   8.136  1.00  0.00     0.679 A 
ATOM     22  H16 UNL     1      15.438  19.775   9.173  1.00  0.00     0.186 HD
HETATM   23  N14 UNL     1      15.700  16.954   7.602  1.00  0.00    -0.175 N 
HETATM   24  N15 UNL     1      17.273  18.460   8.096  1.00  0.00    -0.234 N 
ATOM     25  H14 UNL     1      16.387  16.363   7.135  1.00  0.00     0.186 HD
ATOM     26 2H15 UNL     1      17.966  17.875   7.631  1.00  0.00     0.174 HD
ATOM     27 1H15 UNL     1      17.562  19.346   8.509  1.00  0.00     0.174 HD
ENDBRANCH   1   8
BRANCH   2  28
HETATM   28  C6  UNL     1      14.501  13.639   8.852  1.00  0.00     0.300 C 
HETATM   29  N6  UNL     1      15.757  14.042   9.403  1.00  0.00    -0.054 NA
HETATM   30  O1  UNL     1      13.790  12.877   9.513  1.00  0.00    -0.268 OA
ENDBRANCH   2  28
BRANCH   5  31
HETATM   31  N9  UNL     1      12.981  13.330   4.303  1.00  0.00    -0.284 N 
ATOM     32  H9  UNL     1      11.982  13.133   4.240  1.00  0.00     0.188 HD
BRANCH  31  33
HETATM   33  C7  UNL     1      13.670  12.992   3.154  1.00  0.00     0.142 C 
BRANCH  33  34
HETATM   34  C8  UNL     1      15.065  12.554   3.145  1.00  0.00     0.096 A 
HETATM   35  N10 UNL     1      15.707  11.436   3.399  1.00  0.00    -0.283 N 
HETATM   36  N11 UNL     1      17.034  11.622   3.495  1.00  0.00    -0.242 N 
ATOM     37  H10 UNL     1      15.250  10.531   3.512  1.00  0.00     0.188 HD
HETATM   38  N12 UNL     1      17.215  12.903   3.290  1.00  0.00    -0.283 N 
ATOM     39  H11 UNL     1      17.746  10.918   3.687  1.00  0.00     0.208 HD
HETATM   40  C9  UNL     1      16.118  13.554   3.070  1.00  0.00     0.096 A 
ATOM     41  H12 UNL     1      18.133  13.346   3.301  1.00  0.00     0.188 HD
BRANCH  40  42
HETATM   42  C10 UNL     1      15.824  14.894   2.659  1.00  0.00     0.147 C 
BRANCH  42  43
HETATM   43  N13 UNL     1      16.123  15.929   3.330  1.00  0.00    -0.278 N 
ATOM     44  H13 UNL     1      16.099  16.842   2.876  1.00  0.00     0.193 HD
BRANCH  43  45
HETATM   45  O2  UNL     1      16.481  15.846   4.670  1.00  0.00    -0.290 OA
ATOM     46  H2  UNL     1      17.009  16.519   5.085  1.00  0.00     0.244 HD
ENDBRANCH  43  45
ENDBRANCH  42  43
ENDBRANCH  40  42
ENDBRANCH  33  34
ENDBRANCH  31  33
ENDBRANCH   5  31
TORSDOF 8
ENDMDL
MODEL 4
REMARK VINA RESULT: -7.784471737      1.585      2.578
REMARK  8 active torsions:
REMARK  status: ('A' for Active; 'I' for Inactive)
REMARK       I    between atoms: C1_4  and  N3_6 
REMARK    1  A    between atoms: C4_11  and  N5_12 
REMARK    2  A    between atoms: C5_13  and  C6_14 
REMARK    3  A    between atoms: N8_19  and  N9_20 
REMARK    4  A    between atoms: N9_20  and  C7_22 
REMARK    5  A    between atoms: C7_22  and  C8_23 
REMARK    6  A    between atoms: C9_30  and  C10_31 
REMARK    7  A    between atoms: C10_31  and  N13_32 
REMARK    8  A    between atoms: N13_32  and  O2_34 
ROOT
HETATM    1  N5  UNL     1      13.926  15.279   6.906  1.00  0.00    -0.224 N 
HETATM    2  C5  UNL     1      14.152  14.074   7.405  1.00  0.00     0.200 A 
HETATM    3  N7  UNL     1      13.981  13.157   6.373  1.00  0.00    -0.255 N 
ATOM      4  H7  UNL     1      14.095  12.146   6.457  1.00  0.00     0.191 HD
HETATM    5  N8  UNL     1      13.657  13.783   5.293  1.00  0.00    -0.140 N 
HETATM    6  C11 UNL     1      13.617  15.125   5.601  1.00  0.00     0.370 A 
HETATM    7  O3  UNL     1      13.348  16.009   4.767  1.00  0.00    -0.242 OA
ENDROOT
BRANCH   1   8
HETATM    8  C4  UNL     1      13.966  16.501   7.649  1.00  0.00     0.149 A 
HETATM    9  C3  UNL     1      14.946  17.428   7.487  1.00  0.00     0.073 A 
HETATM   10  C2  UNL     1      16.043  17.588   6.648  1.00  0.00     0.127 A 
HETATM   11  C13 UNL     1      14.966  18.555   8.307  1.00  0.00     0.161 A 
HETATM   12  N4  UNL     1      16.648  18.764   6.997  1.00  0.00    -0.300 N 
HETATM   13  N3  UNL     1      16.038  19.341   7.969  1.00  0.00    -0.210 N 
ATOM     14  H4  UNL     1      17.482  19.136   6.543  1.00  0.00     0.186 HD
HETATM   15  C1  UNL     1      16.251  20.527   8.733  1.00  0.00     0.209 C 
HETATM   16  N1  UNL     1      17.146  20.529   9.636  1.00  0.00    -0.372 N 
HETATM   17  N2  UNL     1      15.452  21.672   8.515  1.00  0.00    -0.062 NA
ATOM     18  H12 UNL     1      17.298  21.378  10.182  1.00  0.00     0.158 HD
ATOM     19  H11 UNL     1      17.723  19.704   9.793  1.00  0.00     0.158 HD
HETATM   20  N16 UNL     1      14.004  18.679   9.226  1.00  0.00    -0.174 N 
HETATM   21  C12 UNL     1      13.010  17.743   9.387  1.00  0.00     0.679 A 
ATOM     22  H16 UNL     1      14.008  19.500   9.832  1.00  0.00     0.186 HD
HETATM   23  N14 UNL     1      12.994  16.676   8.611  1.00  0.00    -0.175 N 
HETATM   24  N15 UNL     1      12.115  17.918  10.245  1.00  0.00    -0.234 N 
ATOM     25  H14 UNL     1      12.260  15.977   8.724  1.00  0.00     0.186 HD
ATOM     26 2H15 UNL     1      11.378  17.224  10.364  1.00  0.00     0.174 HD
ATOM     27 1H15 UNL     1      12.127  18.743  10.845  1.00  0.00     0.174 HD
ENDBRANCH   1   8
BRANCH   2  28
HETATM   28  C6  UNL     1      14.512  13.605   8.743  1.00  0.00     0.300 C 
HETATM   29  N6  UNL     1      15.761  13.995   9.320  1.00  0.00    -0.054 NA
HETATM   30  O1  UNL     1      13.770  12.868   9.398  1.00  0.00    -0.268 OA
ENDBRANCH   2  28
BRANCH   5  31
HETATM   31  N9  UNL     1      13.519  13.250   4.053  1.00  0.00    -0.284 N 
ATOM     32  H9  UNL     1      12.641  12.745   3.933  1.00  0.00     0.188 HD
BRANCH  31  33
HETATM   33  C7  UNL     1      14.306  13.241   2.918  1.00  0.00     0.142 C 
BRANCH  33  34
HETATM   34  C8  UNL     1      15.688  12.761   2.894  1.00  0.00     0.096 A 
HETATM   35  N10 UNL     1      16.291  11.609   3.076  1.00  0.00    -0.283 N 
HETATM   36  N11 UNL     1      17.622  11.747   3.198  1.00  0.00    -0.242 N 
ATOM     37  H10 UNL     1      15.806  10.713   3.120  1.00  0.00     0.188 HD
HETATM   38  N12 UNL     1      17.844  13.033   3.084  1.00  0.00    -0.283 N 
ATOM     39  H11 UNL     1      18.311  11.009   3.348  1.00  0.00     0.208 HD
HETATM   40  C9  UNL     1      16.771  13.731   2.900  1.00  0.00     0.096 A 
ATOM     41  H12 UNL     1      18.776  13.445   3.136  1.00  0.00     0.188 HD
BRANCH  40  42
HETATM   42  C10 UNL     1      16.523  15.105   2.579  1.00  0.00     0.147 C 
BRANCH  42  43
HETATM   43  N13 UNL     1      16.310  16.012   3.441  1.00  0.00    -0.278 N 
ATOM     44  H13 UNL     1      16.728  15.928   4.368  1.00  0.00     0.193 HD
BRANCH  43  45
HETATM   45  O2  UNL     1      15.522  17.118   3.150  1.00  0.00    -0.290 OA
ATOM     46  H2  UNL     1      15.908  17.962   2.942  1.00  0.00     0.244 HD
ENDBRANCH  43  45
ENDBRANCH  42  43
ENDBRANCH  40  42
ENDBRANCH  33  34
ENDBRANCH  31  33
ENDBRANCH   5  31
TORSDOF 8
ENDMDL
MODEL 5
REMARK VINA RESULT: -7.740421794      2.903      7.856
REMARK  8 active torsions:
REMARK  status: ('A' for Active; 'I' for Inactive)
REMARK       I    between atoms: C1_4  and  N3_6 
REMARK    1  A    between atoms: C4_11  and  N5_12 
REMARK    2  A    between atoms: C5_13  and  C6_14 
REMARK    3  A    between atoms: N8_19  and  N9_20 
REMARK    4  A    between atoms: N9_20  and  C7_22 
REMARK    5  A    between atoms: C7_22  and  C8_23 
REMARK    6  A    between atoms: C9_30  and  C10_31 
REMARK    7  A    between atoms: C10_31  and  N13_32 
REMARK    8  A    between atoms: N13_32  and  O2_34 
ROOT
HETATM    1  N5  UNL     1      13.450  15.047   7.107  1.00  0.00    -0.224 N 
HETATM    2  C5  UNL     1      13.932  15.553   8.232  1.00  0.00     0.200 A 
HETATM    3  N7  UNL     1      12.938  16.351   8.790  1.00  0.00    -0.255 N 
ATOM      4  H7  UNL     1      13.020  16.868   9.666  1.00  0.00     0.191 HD
HETATM    5  N8  UNL     1      11.897  16.333   8.028  1.00  0.00    -0.140 N 
HETATM    6  C11 UNL     1      12.192  15.516   6.961  1.00  0.00     0.370 A 
HETATM    7  O3  UNL     1      11.386  15.273   6.044  1.00  0.00    -0.242 OA
ENDROOT
BRANCH   1   8
HETATM    8  C4  UNL     1      14.169  14.196   6.210  1.00  0.00     0.149 A 
HETATM    9  C3  UNL     1      15.059  14.672   5.300  1.00  0.00     0.073 A 
HETATM   10  C2  UNL     1      15.597  15.914   4.982  1.00  0.00     0.127 A 
HETATM   11  C13 UNL     1      15.658  13.790   4.401  1.00  0.00     0.161 A 
HETATM   12  N4  UNL     1      16.462  15.722   3.939  1.00  0.00    -0.300 N 
HETATM   13  N3  UNL     1      16.507  14.489   3.582  1.00  0.00    -0.210 N 
ATOM     14  H4  UNL     1      17.004  16.466   3.500  1.00  0.00     0.186 HD
HETATM   15  C1  UNL     1      17.185  13.758   2.561  1.00  0.00     0.209 C 
HETATM   16  N1  UNL     1      16.754  13.819   1.367  1.00  0.00    -0.372 N 
HETATM   17  N2  UNL     1      18.297  12.947   2.879  1.00  0.00    -0.062 NA
ATOM     18  H12 UNL     1      17.238  13.295   0.636  1.00  0.00     0.158 HD
ATOM     19  H11 UNL     1      15.951  14.404   1.136  1.00  0.00     0.158 HD
HETATM   20  N16 UNL     1      15.331  12.497   4.479  1.00  0.00    -0.174 N 
HETATM   21  C12 UNL     1      14.434  12.016   5.404  1.00  0.00     0.679 A 
ATOM     22  H16 UNL     1      15.763  11.842   3.827  1.00  0.00     0.186 HD
HETATM   23  N14 UNL     1      13.866  12.852   6.252  1.00  0.00    -0.175 N 
HETATM   24  N15 UNL     1      14.181  10.790   5.454  1.00  0.00    -0.234 N 
ATOM     25  H14 UNL     1      13.200  12.503   6.940  1.00  0.00     0.186 HD
ATOM     26 2H15 UNL     1      13.516  10.433   6.139  1.00  0.00     0.174 HD
ATOM     27 1H15 UNL     1      14.620  10.144   4.799  1.00  0.00     0.174 HD
ENDBRANCH   1   8
BRANCH   2  28
HETATM   28  C6  UNL     1      15.223  15.422   8.906  1.00  0.00     0.300 C 
HETATM   29  N6  UNL     1      15.593  14.171   9.494  1.00  0.00    -0.054 NA
HETATM   30  O1  UNL     1      16.013  16.366   8.994  1.00  0.00    -0.268 OA
ENDBRANCH   2  28
BRANCH   5  31
HETATM   31  N9  UNL     1      10.689  16.891   8.290  1.00  0.00    -0.284 N 
ATOM     32  H9  UNL     1      10.499  17.715   7.718  1.00  0.00     0.188 HD
BRANCH  31  33
HETATM   33  C7  UNL     1       9.658  16.589   9.158  1.00  0.00     0.142 C 
BRANCH  33  34
HETATM   34  C8  UNL     1       9.836  16.427  10.602  1.00  0.00     0.096 A 
HETATM   35  N10 UNL     1       9.759  17.206  11.657  1.00  0.00    -0.283 N 
HETATM   36  N11 UNL     1      10.271  16.626  12.755  1.00  0.00    -0.242 N 
ATOM     37  H10 UNL     1       9.358  18.144  11.644  1.00  0.00     0.188 HD
HETATM   38  N12 UNL     1      10.676  15.444  12.359  1.00  0.00    -0.283 N 
ATOM     39  H11 UNL     1      10.332  17.020  13.694  1.00  0.00     0.208 HD
HETATM   40  C9  UNL     1      10.467  15.217  11.102  1.00  0.00     0.096 A 
ATOM     41  H12 UNL     1      11.113  14.766  12.983  1.00  0.00     0.188 HD
BRANCH  40  42
HETATM   42  C10 UNL     1      10.592  14.059  10.269  1.00  0.00     0.147 C 
BRANCH  42  43
HETATM   43  N13 UNL     1      10.125  12.915  10.560  1.00  0.00    -0.278 N 
ATOM     44  H13 UNL     1      10.048  12.207   9.830  1.00  0.00     0.193 HD
BRANCH  43  45
HETATM   45  O2  UNL     1       9.718  12.606  11.852  1.00  0.00    -0.290 OA
ATOM     46  H2  UNL     1       8.813  12.393  12.049  1.00  0.00     0.244 HD
ENDBRANCH  43  45
ENDBRANCH  42  43
ENDBRANCH  40  42
ENDBRANCH  33  34
ENDBRANCH  31  33
ENDBRANCH   5  31
TORSDOF 8
ENDMDL
