MODEL 1
REMARK VINA RESULT: -9.622323871      0.000      0.000
REMARK  16 active torsions:
REMARK  status: ('A' for Active; 'I' for Inactive)
REMARK       I    between atoms: C1_2  and  N7_41 
REMARK    1  A    between atoms: N2_3  and  C2_5 
REMARK    2  A    between atoms: C2_5  and  C3_6 
REMARK    3  A    between atoms: C3_6  and  N3_7 
REMARK    4  A    between atoms: N3_7  and  C4_9 
REMARK    5  A    between atoms: N4_11  and  C6_12 
REMARK    6  A    between atoms: C6_12  and  C7_13 
REMARK    7  A    between atoms: C7_13  and  C8_14 
REMARK    8  A    between atoms: C8_14  and  C9_15 
REMARK    9  A    between atoms: C9_15  and  C10_16 
REMARK   10  A    between atoms: C10_16  and  C11_17 
REMARK   11  A    between atoms: C11_17  and  C12_18 
REMARK   12  A    between atoms: C12_18  and  C13_19 
REMARK       I    between atoms: C13_19  and  N5_21 
REMARK   13  A    between atoms: N5_21  and  C14_23 
REMARK   14  A    between atoms: C14_23  and  C15_24 
REMARK   15  A    between atoms: C15_24  and  C16_25 
REMARK   16  A    between atoms: C23_32  and  C24_33 
ROOT
HETATM    1  C4  UNL     1       4.538  -0.243  14.304  1.00  0.00     0.117 A 
HETATM    2  C5  UNL     1       5.070  -1.170  15.189  1.00  0.00     0.138 A 
HETATM    3  N4  UNL     1       6.367  -1.505  15.102  1.00  0.00    -0.361 N 
HETATM    4  C22 UNL     1       7.090  -0.906  14.138  1.00  0.00     0.120 A 
HETATM    5  C23 UNL     1       6.616   0.014  13.241  1.00  0.00     0.059 A 
HETATM    6  N6  UNL     1       5.318   0.337  13.342  1.00  0.00    -0.340 N 
ATOM      7  H6  UNL     1       4.912   1.017  12.700  1.00  0.00     0.167 HD
ENDROOT
BRANCH   3   8
HETATM    8  C6  UNL     1       6.875  -2.471  16.041  1.00  0.00     0.128 C 
BRANCH   8   9
HETATM    9  C7  UNL     1       6.490  -3.855  15.829  1.00  0.00     0.020 C 
BRANCH   9  10
HETATM   10  C8  UNL     1       7.350  -4.497  14.722  1.00  0.00     0.002 C 
BRANCH  10  11
HETATM   11  C9  UNL     1       8.794  -4.272  14.984  1.00  0.00     0.000 C 
BRANCH  11  12
HETATM   12  C10 UNL     1       9.726  -5.422  14.940  1.00  0.00     0.000 C 
BRANCH  12  13
HETATM   13  C11 UNL     1      10.198  -5.972  16.199  1.00  0.00     0.009 C 
BRANCH  13  14
HETATM   14  C12 UNL     1       9.503  -7.081  16.863  1.00  0.00     0.103 C 
BRANCH  14  15
HETATM   15  C13 UNL     1       8.245  -6.720  17.562  1.00  0.00     0.217 C 
HETATM   16  O1  UNL     1       8.151  -5.813  18.420  1.00  0.00    -0.274 OA
HETATM   17  N5  UNL     1       7.068  -7.442  17.246  1.00  0.00    -0.361 N 
ATOM     18  H5  UNL     1       7.138  -8.182  16.547  1.00  0.00     0.162 HD
BRANCH  17  19
HETATM   19  C14 UNL     1       5.785  -7.206  17.839  1.00  0.00     0.127 C 
BRANCH  19  20
HETATM   20  C15 UNL     1       4.626  -7.534  16.940  1.00  0.00     0.058 C 
BRANCH  20  21
HETATM   21  C16 UNL     1       3.877  -6.310  16.561  1.00  0.00    -0.057 A 
HETATM   22  C17 UNL     1       3.628  -5.343  17.530  1.00  0.00     0.007 A 
HETATM   23  C18 UNL     1       2.925  -4.219  17.201  1.00  0.00     0.001 A 
HETATM   24  C19 UNL     1       2.451  -4.016  15.921  1.00  0.00     0.000 A 
HETATM   25  C20 UNL     1       2.691  -4.966  14.949  1.00  0.00     0.001 A 
HETATM   26  C21 UNL     1       3.412  -6.107  15.309  1.00  0.00     0.007 A 
ENDBRANCH  20  21
ENDBRANCH  19  20
ENDBRANCH  17  19
ENDBRANCH  14  15
ENDBRANCH  13  14
ENDBRANCH  12  13
ENDBRANCH  11  12
ENDBRANCH  10  11
ENDBRANCH   9  10
ENDBRANCH   8   9
ENDBRANCH   3   8
BRANCH   1  27
HETATM   27  N3  UNL     1       3.279   0.069  14.402  1.00  0.00    -0.374 N 
ATOM     28  H3  UNL     1       3.029   0.947  14.858  1.00  0.00     0.161 HD
BRANCH  27  29
HETATM   29  C3  UNL     1       2.226  -0.767  13.896  1.00  0.00     0.141 C 
BRANCH  29  30
HETATM   30  C2  UNL     1       1.894  -0.488  12.459  1.00  0.00     0.142 C 
BRANCH  30  31
HETATM   31  N2  UNL     1       1.286   0.815  12.351  1.00  0.00    -0.363 N 
HETATM   32  C1  UNL     1       1.659   1.760  11.585  1.00  0.00     0.189 C 
HETATM   33  N1  UNL     1       0.968   2.999  11.576  1.00  0.00    -0.064 NA
HETATM   34  N7  UNL     1       2.770   1.576  10.735  1.00  0.00    -0.319 N 
HETATM   35  C30 UNL     1       3.780   2.404  10.826  1.00  0.00     0.103 A 
ATOM     36  H7  UNL     1       2.786   0.810  10.061  1.00  0.00     0.169 HD
HETATM   37  C31 UNL     1       5.010   2.341  10.005  1.00  0.00     0.198 A 
HETATM   38  N10 UNL     1       3.944   3.516  11.689  1.00  0.00    -0.319 N 
HETATM   39  N8  UNL     1       5.795   3.436  10.452  1.00  0.00    -0.357 N 
HETATM   40  C32 UNL     1       5.210   4.079  11.381  1.00  0.00     0.190 A 
ATOM     41  H8  UNL     1       6.712   3.676  10.076  1.00  0.00     0.162 HD
HETATM   42  N9  UNL     1       5.723   5.240  12.057  1.00  0.00    -0.063 NA
ATOM     43  H10 UNL     1       3.284   3.847  12.392  1.00  0.00     0.169 HD
ATOM     44  H2  UNL     1       0.477   0.996  12.945  1.00  0.00     0.162 HD
ENDBRANCH  30  31
ENDBRANCH  29  30
ENDBRANCH  27  29
ENDBRANCH   1  27
BRANCH   5  45
HETATM   45  C24 UNL     1       7.515   0.605  12.224  1.00  0.00    -0.008 A 
HETATM   46  C25 UNL     1       7.691  -0.034  11.010  1.00  0.00     0.014 A 
HETATM   47  C26 UNL     1       8.508   0.440   9.999  1.00  0.00     0.001 A 
HETATM   48  C27 UNL     1       9.182   1.615  10.217  1.00  0.00     0.000 A 
HETATM   49  C28 UNL     1       9.037   2.286  11.409  1.00  0.00     0.001 A 
HETATM   50  C29 UNL     1       8.201   1.767  12.398  1.00  0.00     0.014 A 
ENDBRANCH   5  45
TORSDOF 16
ENDMDL
MODEL 2
REMARK VINA RESULT: -9.543280608      1.478      3.987
REMARK  16 active torsions:
REMARK  status: ('A' for Active; 'I' for Inactive)
REMARK       I    between atoms: C1_2  and  N7_41 
REMARK    1  A    between atoms: N2_3  and  C2_5 
REMARK    2  A    between atoms: C2_5  and  C3_6 
REMARK    3  A    between atoms: C3_6  and  N3_7 
REMARK    4  A    between atoms: N3_7  and  C4_9 
REMARK    5  A    between atoms: N4_11  and  C6_12 
REMARK    6  A    between atoms: C6_12  and  C7_13 
REMARK    7  A    between atoms: C7_13  and  C8_14 
REMARK    8  A    between atoms: C8_14  and  C9_15 
REMARK    9  A    between atoms: C9_15  and  C10_16 
REMARK   10  A    between atoms: C10_16  and  C11_17 
REMARK   11  A    between atoms: C11_17  and  C12_18 
REMARK   12  A    between atoms: C12_18  and  C13_19 
REMARK       I    between atoms: C13_19  and  N5_21 
REMARK   13  A    between atoms: N5_21  and  C14_23 
REMARK   14  A    between atoms: C14_23  and  C15_24 
REMARK   15  A    between atoms: C15_24  and  C16_25 
REMARK   16  A    between atoms: C23_32  and  C24_33 
ROOT
HETATM    1  C4  UNL     1       5.858  -0.043  14.383  1.00  0.00     0.117 A 
HETATM    2  C5  UNL     1       6.194  -1.356  14.681  1.00  0.00     0.138 A 
HETATM    3  N4  UNL     1       5.351  -2.349  14.354  1.00  0.00    -0.361 N 
HETATM    4  C22 UNL     1       4.206  -2.001  13.741  1.00  0.00     0.120 A 
HETATM    5  C23 UNL     1       3.826  -0.725  13.422  1.00  0.00     0.059 A 
HETATM    6  N6  UNL     1       4.679   0.255  13.757  1.00  0.00    -0.340 N 
ATOM      7  H6  UNL     1       4.448   1.225  13.543  1.00  0.00     0.167 HD
ENDROOT
BRANCH   3   8
HETATM    8  C6  UNL     1       5.741  -3.695  14.684  1.00  0.00     0.128 C 
BRANCH   8   9
HETATM    9  C7  UNL     1       6.954  -3.852  15.467  1.00  0.00     0.020 C 
BRANCH   9  10
HETATM   10  C8  UNL     1       8.063  -4.517  14.627  1.00  0.00     0.002 C 
BRANCH  10  11
HETATM   11  C9  UNL     1       9.398  -3.999  15.019  1.00  0.00     0.000 C 
BRANCH  11  12
HETATM   12  C10 UNL     1       9.920  -4.293  16.374  1.00  0.00     0.000 C 
BRANCH  12  13
HETATM   13  C11 UNL     1      10.567  -5.574  16.597  1.00  0.00     0.009 C 
BRANCH  13  14
HETATM   14  C12 UNL     1       9.794  -6.809  16.768  1.00  0.00     0.103 C 
BRANCH  14  15
HETATM   15  C13 UNL     1       8.605  -6.701  17.650  1.00  0.00     0.217 C 
HETATM   16  O1  UNL     1       8.648  -6.352  18.852  1.00  0.00    -0.274 OA
HETATM   17  N5  UNL     1       7.333  -7.012  17.107  1.00  0.00    -0.361 N 
ATOM     18  H5  UNL     1       7.292  -7.296  16.128  1.00  0.00     0.162 HD
BRANCH  17  19
HETATM   19  C14 UNL     1       6.102  -6.954  17.836  1.00  0.00     0.127 C 
BRANCH  19  20
HETATM   20  C15 UNL     1       4.925  -7.522  17.095  1.00  0.00     0.058 C 
BRANCH  20  21
HETATM   21  C16 UNL     1       4.014  -6.448  16.627  1.00  0.00    -0.057 A 
HETATM   22  C17 UNL     1       3.797  -5.343  17.445  1.00  0.00     0.007 A 
HETATM   23  C18 UNL     1       2.948  -4.354  17.036  1.00  0.00     0.001 A 
HETATM   24  C19 UNL     1       2.295  -4.422  15.823  1.00  0.00     0.000 A 
HETATM   25  C20 UNL     1       2.501  -5.511  15.001  1.00  0.00     0.001 A 
HETATM   26  C21 UNL     1       3.373  -6.510  15.440  1.00  0.00     0.007 A 
ENDBRANCH  20  21
ENDBRANCH  19  20
ENDBRANCH  17  19
ENDBRANCH  14  15
ENDBRANCH  13  14
ENDBRANCH  12  13
ENDBRANCH  11  12
ENDBRANCH  10  11
ENDBRANCH   9  10
ENDBRANCH   8   9
ENDBRANCH   3   8
BRANCH   1  27
HETATM   27  N3  UNL     1       6.685   0.907  14.708  1.00  0.00    -0.374 N 
ATOM     28  H3  UNL     1       6.397   1.582  15.416  1.00  0.00     0.161 HD
BRANCH  27  29
HETATM   29  C3  UNL     1       7.985   1.048  14.112  1.00  0.00     0.141 C 
BRANCH  29  30
HETATM   30  C2  UNL     1       7.958   0.945  12.614  1.00  0.00     0.142 C 
BRANCH  30  31
HETATM   31  N2  UNL     1       8.352   2.207  12.039  1.00  0.00    -0.363 N 
HETATM   32  C1  UNL     1       7.573   3.142  11.666  1.00  0.00     0.189 C 
HETATM   33  N1  UNL     1       8.093   4.340  11.114  1.00  0.00    -0.064 NA
HETATM   34  N7  UNL     1       6.177   2.987  11.803  1.00  0.00    -0.319 N 
HETATM   35  C30 UNL     1       5.421   3.099  10.740  1.00  0.00     0.103 A 
ATOM     36  H7  UNL     1       5.764   2.791  12.715  1.00  0.00     0.169 HD
HETATM   37  C31 UNL     1       3.947   2.964  10.726  1.00  0.00     0.198 A 
HETATM   38  N10 UNL     1       5.801   3.365   9.401  1.00  0.00    -0.319 N 
HETATM   39  N8  UNL     1       3.582   3.174   9.370  1.00  0.00    -0.357 N 
HETATM   40  C32 UNL     1       4.603   3.390   8.641  1.00  0.00     0.190 A 
ATOM     41  H8  UNL     1       2.623   3.153   9.024  1.00  0.00     0.162 HD
HETATM   42  N9  UNL     1       4.592   3.641   7.226  1.00  0.00    -0.063 NA
ATOM     43  H10 UNL     1       6.749   3.510   9.052  1.00  0.00     0.169 HD
ATOM     44  H2  UNL     1       9.352   2.367  11.920  1.00  0.00     0.162 HD
ENDBRANCH  30  31
ENDBRANCH  29  30
ENDBRANCH  27  29
ENDBRANCH   1  27
BRANCH   5  45
HETATM   45  C24 UNL     1       2.536  -0.470  12.743  1.00  0.00    -0.008 A 
HETATM   46  C25 UNL     1       1.390  -0.281  13.496  1.00  0.00     0.014 A 
HETATM   47  C26 UNL     1       0.142  -0.038  12.953  1.00  0.00     0.001 A 
HETATM   48  C27 UNL     1       0.036   0.020  11.586  1.00  0.00     0.000 A 
HETATM   49  C28 UNL     1       1.149  -0.161  10.797  1.00  0.00     0.001 A 
HETATM   50  C29 UNL     1       2.387  -0.405  11.393  1.00  0.00     0.014 A 
ENDBRANCH   5  45
TORSDOF 16
ENDMDL
MODEL 3
REMARK VINA RESULT: -9.194806604      0.994      3.366
REMARK  16 active torsions:
REMARK  status: ('A' for Active; 'I' for Inactive)
REMARK       I    between atoms: C1_2  and  N7_41 
REMARK    1  A    between atoms: N2_3  and  C2_5 
REMARK    2  A    between atoms: C2_5  and  C3_6 
REMARK    3  A    between atoms: C3_6  and  N3_7 
REMARK    4  A    between atoms: N3_7  and  C4_9 
REMARK    5  A    between atoms: N4_11  and  C6_12 
REMARK    6  A    between atoms: C6_12  and  C7_13 
REMARK    7  A    between atoms: C7_13  and  C8_14 
REMARK    8  A    between atoms: C8_14  and  C9_15 
REMARK    9  A    between atoms: C9_15  and  C10_16 
REMARK   10  A    between atoms: C10_16  and  C11_17 
REMARK   11  A    between atoms: C11_17  and  C12_18 
REMARK   12  A    between atoms: C12_18  and  C13_19 
REMARK       I    between atoms: C13_19  and  N5_21 
REMARK   13  A    between atoms: N5_21  and  C14_23 
REMARK   14  A    between atoms: C14_23  and  C15_24 
REMARK   15  A    between atoms: C15_24  and  C16_25 
REMARK   16  A    between atoms: C23_32  and  C24_33 
ROOT
HETATM    1  C4  UNL     1       4.305  -0.320  14.285  1.00  0.00     0.117 A 
HETATM    2  C5  UNL     1       4.752  -1.337  15.116  1.00  0.00     0.138 A 
HETATM    3  N4  UNL     1       6.023  -1.762  15.024  1.00  0.00    -0.361 N 
HETATM    4  C22 UNL     1       6.803  -1.158  14.109  1.00  0.00     0.120 A 
HETATM    5  C23 UNL     1       6.414  -0.151  13.267  1.00  0.00     0.059 A 
HETATM    6  N6  UNL     1       5.142   0.260  13.373  1.00  0.00    -0.340 N 
ATOM      7  H6  UNL     1       4.797   1.008  12.771  1.00  0.00     0.167 HD
ENDROOT
BRANCH   3   8
HETATM    8  C6  UNL     1       6.442  -2.820  15.905  1.00  0.00     0.128 C 
BRANCH   8   9
HETATM    9  C7  UNL     1       6.169  -4.179  15.472  1.00  0.00     0.020 C 
BRANCH   9  10
HETATM   10  C8  UNL     1       5.039  -4.803  16.316  1.00  0.00     0.002 C 
BRANCH  10  11
HETATM   11  C9  UNL     1       4.055  -5.493  15.444  1.00  0.00     0.000 C 
BRANCH  11  12
HETATM   12  C10 UNL     1       3.568  -6.839  15.826  1.00  0.00     0.000 C 
BRANCH  12  13
HETATM   13  C11 UNL     1       4.095  -7.440  17.039  1.00  0.00     0.009 C 
BRANCH  13  14
HETATM   14  C12 UNL     1       4.936  -8.642  17.001  1.00  0.00     0.103 C 
BRANCH  14  15
HETATM   15  C13 UNL     1       6.247  -8.528  17.689  1.00  0.00     0.217 C 
HETATM   16  O1  UNL     1       6.698  -9.378  18.490  1.00  0.00    -0.274 OA
HETATM   17  N5  UNL     1       7.046  -7.387  17.430  1.00  0.00    -0.361 N 
ATOM     18  H5  UNL     1       6.683  -6.691  16.778  1.00  0.00     0.162 HD
BRANCH  17  19
HETATM   19  C14 UNL     1       8.329  -7.142  18.020  1.00  0.00     0.127 C 
BRANCH  19  20
HETATM   20  C15 UNL     1       9.476  -7.250  17.056  1.00  0.00     0.058 C 
BRANCH  20  21
HETATM   21  C16 UNL     1       9.677  -5.980  16.315  1.00  0.00    -0.057 A 
HETATM   22  C17 UNL     1       9.887  -4.806  17.032  1.00  0.00     0.007 A 
HETATM   23  C18 UNL     1      10.058  -3.626  16.365  1.00  0.00     0.001 A 
HETATM   24  C19 UNL     1      10.027  -3.567  14.987  1.00  0.00     0.000 A 
HETATM   25  C20 UNL     1       9.820  -4.724  14.262  1.00  0.00     0.001 A 
HETATM   26  C21 UNL     1       9.649  -5.918  14.966  1.00  0.00     0.007 A 
ENDBRANCH  20  21
ENDBRANCH  19  20
ENDBRANCH  17  19
ENDBRANCH  14  15
ENDBRANCH  13  14
ENDBRANCH  12  13
ENDBRANCH  11  12
ENDBRANCH  10  11
ENDBRANCH   9  10
ENDBRANCH   8   9
ENDBRANCH   3   8
BRANCH   1  27
HETATM   27  N3  UNL     1       3.071   0.078  14.387  1.00  0.00    -0.374 N 
ATOM     28  H3  UNL     1       2.882   0.961  14.861  1.00  0.00     0.161 HD
BRANCH  27  29
HETATM   29  C3  UNL     1       1.963  -0.671  13.862  1.00  0.00     0.141 C 
BRANCH  29  30
HETATM   30  C2  UNL     1       1.694  -0.383  12.413  1.00  0.00     0.142 C 
BRANCH  30  31
HETATM   31  N2  UNL     1       1.140   0.942  12.282  1.00  0.00    -0.363 N 
HETATM   32  C1  UNL     1       1.572   1.868  11.524  1.00  0.00     0.189 C 
HETATM   33  N1  UNL     1       0.930   3.132  11.489  1.00  0.00    -0.064 NA
HETATM   34  N7  UNL     1       2.700   1.638  10.709  1.00  0.00    -0.319 N 
HETATM   35  C30 UNL     1       3.738   2.427  10.826  1.00  0.00     0.103 A 
ATOM     36  H7  UNL     1       2.707   0.868  10.038  1.00  0.00     0.169 HD
HETATM   37  C31 UNL     1       4.988   2.312  10.042  1.00  0.00     0.198 A 
HETATM   38  N10 UNL     1       3.919   3.536  11.689  1.00  0.00    -0.319 N 
HETATM   39  N8  UNL     1       5.801   3.378  10.508  1.00  0.00    -0.357 N 
HETATM   40  C32 UNL     1       5.214   4.049  11.416  1.00  0.00     0.190 A 
ATOM     41  H8  UNL     1       6.738   3.581  10.159  1.00  0.00     0.162 HD
HETATM   42  N9  UNL     1       5.751   5.192  12.103  1.00  0.00    -0.063 NA
ATOM     43  H10 UNL     1       3.251   3.895  12.371  1.00  0.00     0.169 HD
ATOM     44  H2  UNL     1       0.322   1.157  12.851  1.00  0.00     0.162 HD
ENDBRANCH  30  31
ENDBRANCH  29  30
ENDBRANCH  27  29
ENDBRANCH   1  27
BRANCH   5  45
HETATM   45  C24 UNL     1       7.371   0.435  12.301  1.00  0.00    -0.008 A 
HETATM   46  C25 UNL     1       8.045   1.599  12.624  1.00  0.00     0.014 A 
HETATM   47  C26 UNL     1       8.956   2.220  11.788  1.00  0.00     0.001 A 
HETATM   48  C27 UNL     1       9.204   1.644  10.568  1.00  0.00     0.000 A 
HETATM   49  C28 UNL     1       8.557   0.485  10.204  1.00  0.00     0.001 A 
HETATM   50  C29 UNL     1       7.646  -0.103  11.082  1.00  0.00     0.014 A 
ENDBRANCH   5  45
TORSDOF 16
ENDMDL
MODEL 4
REMARK VINA RESULT: -9.169649439      1.631      5.152
REMARK  16 active torsions:
REMARK  status: ('A' for Active; 'I' for Inactive)
REMARK       I    between atoms: C1_2  and  N7_41 
REMARK    1  A    between atoms: N2_3  and  C2_5 
REMARK    2  A    between atoms: C2_5  and  C3_6 
REMARK    3  A    between atoms: C3_6  and  N3_7 
REMARK    4  A    between atoms: N3_7  and  C4_9 
REMARK    5  A    between atoms: N4_11  and  C6_12 
REMARK    6  A    between atoms: C6_12  and  C7_13 
REMARK    7  A    between atoms: C7_13  and  C8_14 
REMARK    8  A    between atoms: C8_14  and  C9_15 
REMARK    9  A    between atoms: C9_15  and  C10_16 
REMARK   10  A    between atoms: C10_16  and  C11_17 
REMARK   11  A    between atoms: C11_17  and  C12_18 
REMARK   12  A    between atoms: C12_18  and  C13_19 
REMARK       I    between atoms: C13_19  and  N5_21 
REMARK   13  A    between atoms: N5_21  and  C14_23 
REMARK   14  A    between atoms: C14_23  and  C15_24 
REMARK   15  A    between atoms: C15_24  and  C16_25 
REMARK   16  A    between atoms: C23_32  and  C24_33 
ROOT
HETATM    1  C4  UNL     1       5.888  -0.034  14.338  1.00  0.00     0.117 A 
HETATM    2  C5  UNL     1       6.265  -1.351  14.558  1.00  0.00     0.138 A 
HETATM    3  N4  UNL     1       5.431  -2.347  14.220  1.00  0.00    -0.361 N 
HETATM    4  C22 UNL     1       4.252  -1.998  13.674  1.00  0.00     0.120 A 
HETATM    5  C23 UNL     1       3.831  -0.717  13.435  1.00  0.00     0.059 A 
HETATM    6  N6  UNL     1       4.676   0.265  13.779  1.00  0.00    -0.340 N 
ATOM      7  H6  UNL     1       4.415   1.239  13.623  1.00  0.00     0.167 HD
ENDROOT
BRANCH   3   8
HETATM    8  C6  UNL     1       5.864  -3.698  14.466  1.00  0.00     0.128 C 
BRANCH   8   9
HETATM    9  C7  UNL     1       5.772  -4.175  15.835  1.00  0.00     0.020 C 
BRANCH   9  10
HETATM   10  C8  UNL     1       4.298  -4.362  16.249  1.00  0.00     0.002 C 
BRANCH  10  11
HETATM   11  C9  UNL     1       3.668  -5.453  15.462  1.00  0.00     0.000 C 
BRANCH  11  12
HETATM   12  C10 UNL     1       2.836  -6.461  16.160  1.00  0.00     0.000 C 
BRANCH  12  13
HETATM   13  C11 UNL     1       3.452  -7.248  17.214  1.00  0.00     0.009 C 
BRANCH  13  14
HETATM   14  C12 UNL     1       4.742  -7.919  17.021  1.00  0.00     0.103 C 
BRANCH  14  15
HETATM   15  C13 UNL     1       5.879  -7.351  17.788  1.00  0.00     0.217 C 
HETATM   16  O1  UNL     1       5.755  -6.556  18.747  1.00  0.00    -0.274 OA
HETATM   17  N5  UNL     1       7.195  -7.726  17.419  1.00  0.00    -0.361 N 
ATOM     18  H5  UNL     1       7.302  -8.374  16.638  1.00  0.00     0.162 HD
BRANCH  17  19
HETATM   19  C14 UNL     1       8.385  -7.259  18.065  1.00  0.00     0.127 C 
BRANCH  19  20
HETATM   20  C15 UNL     1       9.603  -7.268  17.185  1.00  0.00     0.058 C 
BRANCH  20  21
HETATM   21  C16 UNL     1       9.707  -6.016  16.396  1.00  0.00    -0.057 A 
HETATM   22  C17 UNL     1       9.949  -4.817  17.061  1.00  0.00     0.007 A 
HETATM   23  C18 UNL     1      10.031  -3.653  16.351  1.00  0.00     0.001 A 
HETATM   24  C19 UNL     1       9.878  -3.634  14.980  1.00  0.00     0.000 A 
HETATM   25  C20 UNL     1       9.637  -4.814  14.307  1.00  0.00     0.001 A 
HETATM   26  C21 UNL     1       9.558  -5.992  15.053  1.00  0.00     0.007 A 
ENDBRANCH  20  21
ENDBRANCH  19  20
ENDBRANCH  17  19
ENDBRANCH  14  15
ENDBRANCH  13  14
ENDBRANCH  12  13
ENDBRANCH  11  12
ENDBRANCH  10  11
ENDBRANCH   9  10
ENDBRANCH   8   9
ENDBRANCH   3   8
BRANCH   1  27
HETATM   27  N3  UNL     1       6.708   0.919  14.673  1.00  0.00    -0.374 N 
ATOM     28  H3  UNL     1       6.415   1.585  15.387  1.00  0.00     0.161 HD
BRANCH  27  29
HETATM   29  C3  UNL     1       8.008   1.075  14.079  1.00  0.00     0.141 C 
BRANCH  29  30
HETATM   30  C2  UNL     1       7.986   0.965  12.582  1.00  0.00     0.142 C 
BRANCH  30  31
HETATM   31  N2  UNL     1       8.362   2.231  12.003  1.00  0.00    -0.363 N 
HETATM   32  C1  UNL     1       7.570   3.157  11.637  1.00  0.00     0.189 C 
HETATM   33  N1  UNL     1       8.073   4.360  11.079  1.00  0.00    -0.064 NA
HETATM   34  N7  UNL     1       6.177   2.988  11.786  1.00  0.00    -0.319 N 
HETATM   35  C30 UNL     1       5.410   3.092  10.730  1.00  0.00     0.103 A 
ATOM     36  H7  UNL     1       5.775   2.788  12.702  1.00  0.00     0.169 HD
HETATM   37  C31 UNL     1       3.938   2.942  10.729  1.00  0.00     0.198 A 
HETATM   38  N10 UNL     1       5.775   3.361   9.388  1.00  0.00    -0.319 N 
HETATM   39  N8  UNL     1       3.558   3.147   9.377  1.00  0.00    -0.357 N 
HETATM   40  C32 UNL     1       4.570   3.373   8.639  1.00  0.00     0.190 A 
ATOM     41  H8  UNL     1       2.597   3.116   9.039  1.00  0.00     0.162 HD
HETATM   42  N9  UNL     1       4.544   3.623   7.223  1.00  0.00    -0.063 NA
ATOM     43  H10 UNL     1       6.718   3.515   9.030  1.00  0.00     0.169 HD
ATOM     44  H2  UNL     1       9.359   2.401  11.875  1.00  0.00     0.162 HD
ENDBRANCH  30  31
ENDBRANCH  29  30
ENDBRANCH  27  29
ENDBRANCH   1  27
BRANCH   5  45
HETATM   45  C24 UNL     1       2.506  -0.461  12.826  1.00  0.00    -0.008 A 
HETATM   46  C25 UNL     1       2.381  -0.418  11.449  1.00  0.00     0.014 A 
HETATM   47  C26 UNL     1       1.187  -0.187  10.790  1.00  0.00     0.001 A 
HETATM   48  C27 UNL     1       0.062   0.012  11.549  1.00  0.00     0.000 A 
HETATM   49  C28 UNL     1       0.138  -0.022  12.923  1.00  0.00     0.001 A 
HETATM   50  C29 UNL     1       1.366  -0.259  13.542  1.00  0.00     0.014 A 
ENDBRANCH   5  45
TORSDOF 16
ENDMDL
MODEL 5
REMARK VINA RESULT: -9.158131750      1.230      3.933
REMARK  16 active torsions:
REMARK  status: ('A' for Active; 'I' for Inactive)
REMARK       I    between atoms: C1_2  and  N7_41 
REMARK    1  A    between atoms: N2_3  and  C2_5 
REMARK    2  A    between atoms: C2_5  and  C3_6 
REMARK    3  A    between atoms: C3_6  and  N3_7 
REMARK    4  A    between atoms: N3_7  and  C4_9 
REMARK    5  A    between atoms: N4_11  and  C6_12 
REMARK    6  A    between atoms: C6_12  and  C7_13 
REMARK    7  A    between atoms: C7_13  and  C8_14 
REMARK    8  A    between atoms: C8_14  and  C9_15 
REMARK    9  A    between atoms: C9_15  and  C10_16 
REMARK   10  A    between atoms: C10_16  and  C11_17 
REMARK   11  A    between atoms: C11_17  and  C12_18 
REMARK   12  A    between atoms: C12_18  and  C13_19 
REMARK       I    between atoms: C13_19  and  N5_21 
REMARK   13  A    between atoms: N5_21  and  C14_23 
REMARK   14  A    between atoms: C14_23  and  C15_24 
REMARK   15  A    between atoms: C15_24  and  C16_25 
REMARK   16  A    between atoms: C23_32  and  C24_33 
ROOT
HETATM    1  C4  UNL     1       6.461  -0.056  12.758  1.00  0.00     0.117 A 
HETATM    2  C5  UNL     1       6.755  -0.778  13.905  1.00  0.00     0.138 A 
HETATM    3  N4  UNL     1       5.760  -1.337  14.613  1.00  0.00    -0.361 N 
HETATM    4  C22 UNL     1       4.508  -1.159  14.153  1.00  0.00     0.120 A 
HETATM    5  C23 UNL     1       4.163  -0.459  13.028  1.00  0.00     0.059 A 
HETATM    6  N6  UNL     1       5.169   0.093  12.334  1.00  0.00    -0.340 N 
ATOM      7  H6  UNL     1       4.971   0.626  11.487  1.00  0.00     0.167 HD
ENDROOT
BRANCH   3   8
HETATM    8  C6  UNL     1       6.111  -2.077  15.797  1.00  0.00     0.128 C 
BRANCH   8   9
HETATM    9  C7  UNL     1       6.415  -3.486  15.622  1.00  0.00     0.020 C 
BRANCH   9  10
HETATM   10  C8  UNL     1       7.939  -3.722  15.640  1.00  0.00     0.002 C 
BRANCH  10  11
HETATM   11  C9  UNL     1       8.334  -4.670  14.567  1.00  0.00     0.000 C 
BRANCH  11  12
HETATM   12  C10 UNL     1       9.587  -5.446  14.713  1.00  0.00     0.000 C 
BRANCH  12  13
HETATM   13  C11 UNL     1      10.007  -5.826  16.050  1.00  0.00     0.009 C 
BRANCH  13  14
HETATM   14  C12 UNL     1       9.457  -7.008  16.724  1.00  0.00     0.103 C 
BRANCH  14  15
HETATM   15  C13 UNL     1       8.304  -6.752  17.624  1.00  0.00     0.217 C 
HETATM   16  O1  UNL     1       8.409  -6.376  18.813  1.00  0.00    -0.274 OA
HETATM   17  N5  UNL     1       6.996  -6.943  17.114  1.00  0.00    -0.361 N 
ATOM     18  H5  UNL     1       6.905  -7.250  16.144  1.00  0.00     0.162 HD
BRANCH  17  19
HETATM   19  C14 UNL     1       5.793  -6.737  17.863  1.00  0.00     0.127 C 
BRANCH  19  20
HETATM   20  C15 UNL     1       4.542  -7.140  17.135  1.00  0.00     0.058 C 
BRANCH  20  21
HETATM   21  C16 UNL     1       3.821  -5.956  16.607  1.00  0.00    -0.057 A 
HETATM   22  C17 UNL     1       3.516  -4.909  17.473  1.00  0.00     0.007 A 
HETATM   23  C18 UNL     1       2.838  -3.820  17.006  1.00  0.00     0.001 A 
HETATM   24  C19 UNL     1       2.444  -3.728  15.687  1.00  0.00     0.000 A 
HETATM   25  C20 UNL     1       2.740  -4.757  14.816  1.00  0.00     0.001 A 
HETATM   26  C21 UNL     1       3.434  -5.861  15.316  1.00  0.00     0.007 A 
ENDBRANCH  20  21
ENDBRANCH  19  20
ENDBRANCH  17  19
ENDBRANCH  14  15
ENDBRANCH  13  14
ENDBRANCH  12  13
ENDBRANCH  11  12
ENDBRANCH  10  11
ENDBRANCH   9  10
ENDBRANCH   8   9
ENDBRANCH   3   8
BRANCH   1  27
HETATM   27  N3  UNL     1       7.437   0.480  12.085  1.00  0.00    -0.374 N 
ATOM     28  H3  UNL     1       7.797   1.384  12.387  1.00  0.00     0.161 HD
BRANCH  27  29
HETATM   29  C3  UNL     1       8.028  -0.147  10.935  1.00  0.00     0.141 C 
BRANCH  29  30
HETATM   30  C2  UNL     1       8.624   0.839   9.972  1.00  0.00     0.142 C 
BRANCH  30  31
HETATM   31  N2  UNL     1       7.684   1.104   8.912  1.00  0.00    -0.363 N 
HETATM   32  C1  UNL     1       6.916   2.114   8.821  1.00  0.00     0.189 C 
HETATM   33  N1  UNL     1       6.033   2.255   7.721  1.00  0.00    -0.064 NA
HETATM   34  N7  UNL     1       6.941   3.106   9.824  1.00  0.00    -0.319 N 
HETATM   35  C30 UNL     1       5.832   3.398  10.454  1.00  0.00     0.103 A 
ATOM     36  H7  UNL     1       7.811   3.588  10.055  1.00  0.00     0.169 HD
HETATM   37  C31 UNL     1       5.701   4.412  11.524  1.00  0.00     0.198 A 
HETATM   38  N10 UNL     1       4.538   2.847  10.280  1.00  0.00    -0.319 N 
HETATM   39  N8  UNL     1       4.329   4.378  11.885  1.00  0.00    -0.357 N 
HETATM   40  C32 UNL     1       3.690   3.514  11.203  1.00  0.00     0.190 A 
ATOM     41  H8  UNL     1       3.908   4.970  12.600  1.00  0.00     0.162 HD
HETATM   42  N9  UNL     1       2.287   3.220  11.313  1.00  0.00    -0.063 NA
ATOM     43  H10 UNL     1       4.269   2.116   9.622  1.00  0.00     0.169 HD
ATOM     44  H2  UNL     1       7.628   0.415   8.162  1.00  0.00     0.162 HD
ENDBRANCH  30  31
ENDBRANCH  29  30
ENDBRANCH  27  29
ENDBRANCH   1  27
BRANCH   5  45
HETATM   45  C24 UNL     1       2.744  -0.335  12.623  1.00  0.00    -0.008 A 
HETATM   46  C25 UNL     1       2.412  -0.328  11.281  1.00  0.00     0.014 A 
HETATM   47  C26 UNL     1       1.118  -0.217  10.806  1.00  0.00     0.001 A 
HETATM   48  C27 UNL     1       0.104  -0.108  11.725  1.00  0.00     0.000 A 
HETATM   49  C28 UNL     1       0.387  -0.111  13.072  1.00  0.00     0.001 A 
HETATM   50  C29 UNL     1       1.710  -0.225  13.501  1.00  0.00     0.014 A 
ENDBRANCH   5  45
TORSDOF 16
ENDMDL
