MODEL 1
REMARK VINA RESULT: -10.537760884      0.000      0.000
REMARK  13 active torsions:
REMARK  status: ('A' for Active; 'I' for Inactive)
REMARK    1  A    between atoms: C2_2  and  C3_4 
REMARK    2  A    between atoms: C3_4  and  O2_5 
REMARK    3  A    between atoms: O2_5  and  C4_6 
REMARK    4  A    between atoms: C4_6  and  C5_8 
REMARK       I    between atoms: N1_27  and  C19_28 
REMARK    5  A    between atoms: C19_28  and  C20_30 
REMARK    6  A    between atoms: C20_30  and  C21_31 
REMARK    7  A    between atoms: C21_31  and  C22_32 
REMARK       I    between atoms: C22_32  and  N2_34 
REMARK    8  A    between atoms: N2_34  and  C23_36 
REMARK    9  A    between atoms: C23_36  and  N3_37 
REMARK   10  A    between atoms: N3_37  and  C24_40 
REMARK   11  A    between atoms: C24_40  and  C25_41 
REMARK   12  A    between atoms: C26_44  and  O11_45 
REMARK   13  A    between atoms: O11_45  and  C27_46 
ROOT
HETATM    1  C5  UNL     1       1.973  26.688  24.850  1.00  0.00     0.135 C 
HETATM    2  C6  UNL     1       1.839  25.479  24.265  1.00  0.00     0.170 C 
HETATM    3  O4  UNL     1       1.022  24.484  24.704  1.00  0.00    -0.358 OA
HETATM    4  C7  UNL     1       1.156  23.185  25.129  1.00  0.00     0.200 C 
HETATM    5  C8  UNL     1       1.120  22.126  24.060  1.00  0.00     0.194 C 
HETATM    6  O5  UNL     1       2.242  21.334  24.042  1.00  0.00    -0.387 OA
HETATM    7  C9  UNL     1       1.853  20.008  24.183  1.00  0.00     0.193 C 
HETATM    8  C10 UNL     1       2.750  19.227  25.092  1.00  0.00     0.193 C 
HETATM    9  O6  UNL     1       2.284  19.375  26.394  1.00  0.00    -0.389 OA
HETATM   10  C11 UNL     1       3.308  19.924  27.194  1.00  0.00     0.169 C 
HETATM   11  C12 UNL     1       3.043  19.472  28.603  1.00  0.00     0.052 C 
HETATM   12  C13 UNL     1       3.190  20.581  29.592  1.00  0.00     0.169 C 
HETATM   13  O7  UNL     1       3.457  21.777  28.944  1.00  0.00    -0.391 OA
HETATM   14  C14 UNL     1       3.406  22.863  29.827  1.00  0.00     0.169 C 
HETATM   15  C15 UNL     1       4.239  23.963  29.216  1.00  0.00     0.052 C 
HETATM   16  C16 UNL     1       3.705  25.300  29.660  1.00  0.00     0.169 C 
HETATM   17  O8  UNL     1       2.467  25.541  29.071  1.00  0.00    -0.389 OA
HETATM   18  C17 UNL     1       2.567  26.425  27.999  1.00  0.00     0.188 C 
HETATM   19  C18 UNL     1       1.239  26.403  27.276  1.00  0.00     0.158 C 
HETATM   20  N1  UNL     1       1.272  27.134  26.005  1.00  0.00    -0.309 N 
HETATM   21  C19 UNL     1       0.528  28.349  25.985  1.00  0.00     0.225 C 
HETATM   22  O9  UNL     1       0.431  29.073  24.961  1.00  0.00    -0.273 OA
ENDROOT
BRANCH   1  23
HETATM   23  C4  UNL     1       2.906  27.634  24.231  1.00  0.00     0.312 C 
HETATM   24  O3  UNL     1       3.919  28.064  24.889  1.00  0.00    -0.258 OA
BRANCH  23  25
HETATM   25  O2  UNL     1       2.811  28.144  22.957  1.00  0.00    -0.309 OA
BRANCH  25  26
HETATM   26  C3  UNL     1       3.444  29.273  22.435  1.00  0.00     0.256 C 
BRANCH  26  27
HETATM   27  C2  UNL     1       2.593  30.240  21.726  1.00  0.00     0.147 C 
HETATM   28  C1  UNL     1       1.556  31.115  22.277  1.00  0.00     0.093 C 
HETATM   29  O1  UNL     1       2.795  30.313  20.496  1.00  0.00    -0.296 OA
ENDBRANCH  26  27
ENDBRANCH  25  26
ENDBRANCH  23  25
ENDBRANCH   1  23
BRANCH  21  30
HETATM   30  C20 UNL     1      -0.171  28.790  27.237  1.00  0.00     0.112 C 
BRANCH  30  31
HETATM   31  C21 UNL     1      -1.680  28.648  27.067  1.00  0.00     0.112 C 
BRANCH  31  32
HETATM   32  C22 UNL     1      -2.138  29.547  25.974  1.00  0.00     0.219 C 
HETATM   33  O10 UNL     1      -2.912  29.109  25.095  1.00  0.00    -0.274 OA
HETATM   34  N2  UNL     1      -1.702  30.877  25.936  1.00  0.00    -0.338 N 
ATOM     35  H2  UNL     1      -1.070  31.193  26.672  1.00  0.00     0.164 HD
BRANCH  34  36
HETATM   36  C23 UNL     1      -2.085  31.828  24.927  1.00  0.00     0.357 C 
BRANCH  36  37
HETATM   37  N3  UNL     1      -1.884  31.278  23.627  1.00  0.00    -0.056 N 
ATOM     38  H32 UNL     1      -1.030  30.725  23.575  1.00  0.00     0.279 HD
ATOM     39  H31 UNL     1      -2.554  30.538  23.418  1.00  0.00     0.279 HD
BRANCH  37  40
HETATM   40  C24 UNL     1      -1.911  32.319  22.644  1.00  0.00     0.284 C 
BRANCH  40  41
HETATM   41  C25 UNL     1      -3.172  32.379  21.830  1.00  0.00     0.260 C 
HETATM   42  N4  UNL     1      -4.118  31.434  22.410  1.00  0.00    -0.110 NA
HETATM   43  N5  UNL     1      -3.929  30.283  21.600  1.00  0.00    -0.086 NA
HETATM   44  C26 UNL     1      -3.816  30.902  20.293  1.00  0.00     0.381 C 
HETATM   45  O13 UNL     1      -2.998  31.983  20.512  1.00  0.00    -0.321 OA
BRANCH  44  46
HETATM   46  O11 UNL     1      -5.052  31.209  19.754  1.00  0.00    -0.298 OA
BRANCH  46  47
HETATM   47  C27 UNL     1      -5.009  32.318  18.927  1.00  0.00     0.405 C 
HETATM   48  N6  UNL     1      -4.980  31.855  17.531  1.00  0.00    -0.058 NA
HETATM   49  N7  UNL     1      -6.380  31.881  17.652  1.00  0.00     0.020 NA
HETATM   50  O12 UNL     1      -6.222  32.878  18.579  1.00  0.00    -0.219 OA
ENDBRANCH  46  47
ENDBRANCH  44  46
ENDBRANCH  40  41
ENDBRANCH  37  40
ENDBRANCH  36  37
ENDBRANCH  34  36
ENDBRANCH  31  32
ENDBRANCH  30  31
ENDBRANCH  21  30
TORSDOF 13
ENDMDL
MODEL 2
REMARK VINA RESULT: -10.428286770      2.729      4.418
REMARK  13 active torsions:
REMARK  status: ('A' for Active; 'I' for Inactive)
REMARK    1  A    between atoms: C2_2  and  C3_4 
REMARK    2  A    between atoms: C3_4  and  O2_5 
REMARK    3  A    between atoms: O2_5  and  C4_6 
REMARK    4  A    between atoms: C4_6  and  C5_8 
REMARK       I    between atoms: N1_27  and  C19_28 
REMARK    5  A    between atoms: C19_28  and  C20_30 
REMARK    6  A    between atoms: C20_30  and  C21_31 
REMARK    7  A    between atoms: C21_31  and  C22_32 
REMARK       I    between atoms: C22_32  and  N2_34 
REMARK    8  A    between atoms: N2_34  and  C23_36 
REMARK    9  A    between atoms: C23_36  and  N3_37 
REMARK   10  A    between atoms: N3_37  and  C24_40 
REMARK   11  A    between atoms: C24_40  and  C25_41 
REMARK   12  A    between atoms: C26_44  and  O11_45 
REMARK   13  A    between atoms: O11_45  and  C27_46 
ROOT
HETATM    1  C5  UNL     1       0.328  24.868  26.610  1.00  0.00     0.135 C 
HETATM    2  C6  UNL     1       0.087  23.838  27.447  1.00  0.00     0.170 C 
HETATM    3  O4  UNL     1       0.630  23.692  28.685  1.00  0.00    -0.358 OA
HETATM    4  C7  UNL     1       1.415  22.774  29.339  1.00  0.00     0.200 C 
HETATM    5  C8  UNL     1       0.692  21.641  30.019  1.00  0.00     0.194 C 
HETATM    6  O5  UNL     1       1.094  20.402  29.586  1.00  0.00    -0.387 OA
HETATM    7  C9  UNL     1       1.525  19.666  30.683  1.00  0.00     0.193 C 
HETATM    8  C10 UNL     1       2.759  18.866  30.404  1.00  0.00     0.193 C 
HETATM    9  O6  UNL     1       3.865  19.669  30.663  1.00  0.00    -0.389 OA
HETATM   10  C11 UNL     1       4.650  19.768  29.497  1.00  0.00     0.169 C 
HETATM   11  C12 UNL     1       6.059  20.039  29.948  1.00  0.00     0.052 C 
HETATM   12  C13 UNL     1       6.712  21.120  29.151  1.00  0.00     0.169 C 
HETATM   13  O7  UNL     1       5.817  21.659  28.241  1.00  0.00    -0.391 OA
HETATM   14  C14 UNL     1       6.342  22.800  27.619  1.00  0.00     0.169 C 
HETATM   15  C15 UNL     1       5.610  22.960  26.309  1.00  0.00     0.052 C 
HETATM   16  C16 UNL     1       5.564  24.419  25.937  1.00  0.00     0.169 C 
HETATM   17  O8  UNL     1       4.720  25.109  26.802  1.00  0.00    -0.389 OA
HETATM   18  C17 UNL     1       3.480  25.369  26.221  1.00  0.00     0.188 C 
HETATM   19  C18 UNL     1       2.567  25.866  27.318  1.00  0.00     0.158 C 
HETATM   20  N1  UNL     1       1.170  25.982  26.885  1.00  0.00    -0.309 N 
HETATM   21  C19 UNL     1       0.683  27.315  26.764  1.00  0.00     0.225 C 
HETATM   22  O9  UNL     1      -0.502  27.581  26.435  1.00  0.00    -0.273 OA
ENDROOT
BRANCH   1  23
HETATM   23  C4  UNL     1      -0.351  24.852  25.311  1.00  0.00     0.312 C 
HETATM   24  O3  UNL     1       0.318  25.030  24.232  1.00  0.00    -0.258 OA
BRANCH  23  25
HETATM   25  O2  UNL     1      -1.698  24.663  25.107  1.00  0.00    -0.309 OA
BRANCH  25  26
HETATM   26  C3  UNL     1      -2.745  24.925  25.992  1.00  0.00     0.256 C 
BRANCH  26  27
HETATM   27  C2  UNL     1      -3.562  23.776  26.409  1.00  0.00     0.147 C 
HETATM   28  C1  UNL     1      -3.231  22.729  27.377  1.00  0.00     0.093 C 
HETATM   29  O1  UNL     1      -4.681  23.701  25.860  1.00  0.00    -0.296 OA
ENDBRANCH  26  27
ENDBRANCH  25  26
ENDBRANCH  23  25
ENDBRANCH   1  23
BRANCH  21  30
HETATM   30  C20 UNL     1       1.618  28.455  27.038  1.00  0.00     0.112 C 
BRANCH  30  31
HETATM   31  C21 UNL     1       0.854  29.613  27.674  1.00  0.00     0.112 C 
BRANCH  31  32
HETATM   32  C22 UNL     1       0.711  30.711  26.682  1.00  0.00     0.219 C 
HETATM   33  O10 UNL     1       1.076  31.869  26.983  1.00  0.00    -0.274 OA
HETATM   34  N2  UNL     1       0.171  30.444  25.418  1.00  0.00    -0.338 N 
ATOM     35  H2  UNL     1      -0.114  29.486  25.214  1.00  0.00     0.164 HD
BRANCH  34  36
HETATM   36  C23 UNL     1      -0.007  31.431  24.387  1.00  0.00     0.357 C 
BRANCH  36  37
HETATM   37  N3  UNL     1      -1.098  32.290  24.709  1.00  0.00    -0.056 N 
ATOM     38  H32 UNL     1      -1.976  31.778  24.792  1.00  0.00     0.279 HD
ATOM     39  H31 UNL     1      -1.039  32.641  25.664  1.00  0.00     0.279 HD
BRANCH  37  40
HETATM   40  C24 UNL     1      -1.186  33.352  23.751  1.00  0.00     0.284 C 
BRANCH  40  41
HETATM   41  C25 UNL     1      -2.476  33.398  22.984  1.00  0.00     0.260 C 
HETATM   42  N4  UNL     1      -3.509  32.796  23.819  1.00  0.00    -0.110 NA
HETATM   43  N5  UNL     1      -3.544  31.461  23.338  1.00  0.00    -0.086 NA
HETATM   44  C26 UNL     1      -3.430  31.696  21.911  1.00  0.00     0.381 C 
HETATM   45  O13 UNL     1      -2.451  32.654  21.814  1.00  0.00    -0.321 OA
BRANCH  44  46
HETATM   46  O11 UNL     1      -4.642  32.045  21.343  1.00  0.00    -0.298 OA
BRANCH  46  47
HETATM   47  C27 UNL     1      -4.535  32.313  19.989  1.00  0.00     0.405 C 
HETATM   48  N6  UNL     1      -4.858  31.086  19.246  1.00  0.00    -0.058 NA
HETATM   49  N7  UNL     1      -6.178  31.561  19.333  1.00  0.00     0.020 NA
HETATM   50  O12 UNL     1      -5.656  32.829  19.370  1.00  0.00    -0.219 OA
ENDBRANCH  46  47
ENDBRANCH  44  46
ENDBRANCH  40  41
ENDBRANCH  37  40
ENDBRANCH  36  37
ENDBRANCH  34  36
ENDBRANCH  31  32
ENDBRANCH  30  31
ENDBRANCH  21  30
TORSDOF 13
ENDMDL
MODEL 3
REMARK VINA RESULT: -10.421697888      2.447      3.931
REMARK  13 active torsions:
REMARK  status: ('A' for Active; 'I' for Inactive)
REMARK    1  A    between atoms: C2_2  and  C3_4 
REMARK    2  A    between atoms: C3_4  and  O2_5 
REMARK    3  A    between atoms: O2_5  and  C4_6 
REMARK    4  A    between atoms: C4_6  and  C5_8 
REMARK       I    between atoms: N1_27  and  C19_28 
REMARK    5  A    between atoms: C19_28  and  C20_30 
REMARK    6  A    between atoms: C20_30  and  C21_31 
REMARK    7  A    between atoms: C21_31  and  C22_32 
REMARK       I    between atoms: C22_32  and  N2_34 
REMARK    8  A    between atoms: N2_34  and  C23_36 
REMARK    9  A    between atoms: C23_36  and  N3_37 
REMARK   10  A    between atoms: N3_37  and  C24_40 
REMARK   11  A    between atoms: C24_40  and  C25_41 
REMARK   12  A    between atoms: C26_44  and  O11_45 
REMARK   13  A    between atoms: O11_45  and  C27_46 
ROOT
HETATM    1  C5  UNL     1      -0.039  24.703  26.429  1.00  0.00     0.135 C 
HETATM    2  C6  UNL     1      -0.384  23.655  27.205  1.00  0.00     0.170 C 
HETATM    3  O4  UNL     1       0.007  23.476  28.496  1.00  0.00    -0.358 OA
HETATM    4  C7  UNL     1       0.703  22.538  29.217  1.00  0.00     0.200 C 
HETATM    5  C8  UNL     1      -0.100  21.394  29.777  1.00  0.00     0.194 C 
HETATM    6  O5  UNL     1       0.346  20.163  29.365  1.00  0.00    -0.387 OA
HETATM    7  C9  UNL     1       0.639  19.398  30.488  1.00  0.00     0.193 C 
HETATM    8  C10 UNL     1       1.895  18.597  30.340  1.00  0.00     0.193 C 
HETATM    9  O6  UNL     1       2.964  19.386  30.749  1.00  0.00    -0.389 OA
HETATM   10  C11 UNL     1       3.885  19.507  29.688  1.00  0.00     0.169 C 
HETATM   11  C12 UNL     1       5.230  19.758  30.312  1.00  0.00     0.052 C 
HETATM   12  C13 UNL     1       5.979  20.853  29.625  1.00  0.00     0.169 C 
HETATM   13  O7  UNL     1       5.201  21.420  28.627  1.00  0.00    -0.391 OA
HETATM   14  C14 UNL     1       5.802  22.571  28.100  1.00  0.00     0.169 C 
HETATM   15  C15 UNL     1       5.233  22.767  26.716  1.00  0.00     0.052 C 
HETATM   16  C16 UNL     1       5.237  24.235  26.377  1.00  0.00     0.169 C 
HETATM   17  O8  UNL     1       4.298  24.909  27.152  1.00  0.00    -0.389 OA
HETATM   18  C17 UNL     1       3.139  25.191  26.433  1.00  0.00     0.188 C 
HETATM   19  C18 UNL     1       2.102  25.668  27.424  1.00  0.00     0.158 C 
HETATM   20  N1  UNL     1       0.768  25.804  26.830  1.00  0.00    -0.309 N 
HETATM   21  C19 UNL     1       0.304  27.143  26.683  1.00  0.00     0.225 C 
HETATM   22  O9  UNL     1      -0.832  27.426  26.221  1.00  0.00    -0.273 OA
ENDROOT
BRANCH   1  23
HETATM   23  C4  UNL     1      -0.558  24.723  25.058  1.00  0.00     0.312 C 
HETATM   24  O3  UNL     1      -1.809  24.551  24.840  1.00  0.00    -0.258 OA
BRANCH  23  25
HETATM   25  O2  UNL     1       0.186  24.911  23.916  1.00  0.00    -0.309 OA
BRANCH  25  26
HETATM   26  C3  UNL     1       1.326  24.215  23.510  1.00  0.00     0.256 C 
BRANCH  26  27
HETATM   27  C2  UNL     1       1.243  22.747  23.522  1.00  0.00     0.147 C 
HETATM   28  C1  UNL     1       1.540  21.828  24.622  1.00  0.00     0.093 C 
HETATM   29  O1  UNL     1       0.867  22.235  22.447  1.00  0.00    -0.296 OA
ENDBRANCH  26  27
ENDBRANCH  25  26
ENDBRANCH  23  25
ENDBRANCH   1  23
BRANCH  21  30
HETATM   30  C20 UNL     1       1.204  28.270  27.096  1.00  0.00     0.112 C 
BRANCH  30  31
HETATM   31  C21 UNL     1       0.377  29.400  27.704  1.00  0.00     0.112 C 
BRANCH  31  32
HETATM   32  C22 UNL     1       0.390  30.568  26.785  1.00  0.00     0.219 C 
HETATM   33  O10 UNL     1       0.785  31.680  27.201  1.00  0.00    -0.274 OA
HETATM   34  N2  UNL     1      -0.037  30.418  25.460  1.00  0.00    -0.338 N 
ATOM     35  H2  UNL     1      -0.352  29.495  25.162  1.00  0.00     0.164 HD
BRANCH  34  36
HETATM   36  C23 UNL     1      -0.062  31.481  24.491  1.00  0.00     0.357 C 
BRANCH  36  37
HETATM   37  N3  UNL     1      -1.106  32.403  24.794  1.00  0.00    -0.056 N 
ATOM     38  H32 UNL     1      -1.999  31.933  24.944  1.00  0.00     0.279 HD
ATOM     39  H31 UNL     1      -0.996  32.813  25.721  1.00  0.00     0.279 HD
BRANCH  37  40
HETATM   40  C24 UNL     1      -1.191  33.403  23.771  1.00  0.00     0.284 C 
BRANCH  40  41
HETATM   41  C25 UNL     1      -2.487  33.414  23.013  1.00  0.00     0.260 C 
HETATM   42  N4  UNL     1      -3.500  32.794  23.859  1.00  0.00    -0.110 NA
HETATM   43  N5  UNL     1      -3.508  31.455  23.388  1.00  0.00    -0.086 NA
HETATM   44  C26 UNL     1      -3.409  31.683  21.959  1.00  0.00     0.381 C 
HETATM   45  O13 UNL     1      -2.453  32.662  21.848  1.00  0.00    -0.321 OA
BRANCH  44  46
HETATM   46  O11 UNL     1      -4.632  31.999  21.396  1.00  0.00    -0.298 OA
BRANCH  46  47
HETATM   47  C27 UNL     1      -4.533  32.309  20.051  1.00  0.00     0.405 C 
HETATM   48  N6  UNL     1      -4.858  31.104  19.273  1.00  0.00    -0.058 NA
HETATM   49  N7  UNL     1      -6.178  31.574  19.381  1.00  0.00     0.020 NA
HETATM   50  O12 UNL     1      -5.658  32.840  19.454  1.00  0.00    -0.219 OA
ENDBRANCH  46  47
ENDBRANCH  44  46
ENDBRANCH  40  41
ENDBRANCH  37  40
ENDBRANCH  36  37
ENDBRANCH  34  36
ENDBRANCH  31  32
ENDBRANCH  30  31
ENDBRANCH  21  30
TORSDOF 13
ENDMDL
MODEL 4
REMARK VINA RESULT: -10.381744874      0.966      1.224
REMARK  13 active torsions:
REMARK  status: ('A' for Active; 'I' for Inactive)
REMARK    1  A    between atoms: C2_2  and  C3_4 
REMARK    2  A    between atoms: C3_4  and  O2_5 
REMARK    3  A    between atoms: O2_5  and  C4_6 
REMARK    4  A    between atoms: C4_6  and  C5_8 
REMARK       I    between atoms: N1_27  and  C19_28 
REMARK    5  A    between atoms: C19_28  and  C20_30 
REMARK    6  A    between atoms: C20_30  and  C21_31 
REMARK    7  A    between atoms: C21_31  and  C22_32 
REMARK       I    between atoms: C22_32  and  N2_34 
REMARK    8  A    between atoms: N2_34  and  C23_36 
REMARK    9  A    between atoms: C23_36  and  N3_37 
REMARK   10  A    between atoms: N3_37  and  C24_40 
REMARK   11  A    between atoms: C24_40  and  C25_41 
REMARK   12  A    between atoms: C26_44  and  O11_45 
REMARK   13  A    between atoms: O11_45  and  C27_46 
ROOT
HETATM    1  C5  UNL     1       2.004  26.698  24.749  1.00  0.00     0.135 C 
HETATM    2  C6  UNL     1       1.981  25.480  24.169  1.00  0.00     0.170 C 
HETATM    3  O4  UNL     1       1.218  24.432  24.581  1.00  0.00    -0.358 OA
HETATM    4  C7  UNL     1       1.423  23.148  25.022  1.00  0.00     0.200 C 
HETATM    5  C8  UNL     1       1.508  22.083  23.961  1.00  0.00     0.194 C 
HETATM    6  O5  UNL     1       2.683  21.373  23.997  1.00  0.00    -0.387 OA
HETATM    7  C9  UNL     1       2.382  20.022  24.133  1.00  0.00     0.193 C 
HETATM    8  C10 UNL     1       3.291  19.312  25.085  1.00  0.00     0.193 C 
HETATM    9  O6  UNL     1       2.761  19.433  26.365  1.00  0.00    -0.389 OA
HETATM   10  C11 UNL     1       3.708  20.057  27.203  1.00  0.00     0.169 C 
HETATM   11  C12 UNL     1       3.414  19.594  28.603  1.00  0.00     0.052 C 
HETATM   12  C13 UNL     1       3.441  20.716  29.589  1.00  0.00     0.169 C 
HETATM   13  O7  UNL     1       3.651  21.924  28.943  1.00  0.00    -0.391 OA
HETATM   14  C14 UNL     1       3.486  23.009  29.815  1.00  0.00     0.169 C 
HETATM   15  C15 UNL     1       4.265  24.162  29.231  1.00  0.00     0.052 C 
HETATM   16  C16 UNL     1       3.620  25.460  29.640  1.00  0.00     0.169 C 
HETATM   17  O8  UNL     1       2.395  25.610  28.998  1.00  0.00    -0.389 OA
HETATM   18  C17 UNL     1       2.478  26.494  27.923  1.00  0.00     0.188 C 
HETATM   19  C18 UNL     1       1.188  26.375  27.145  1.00  0.00     0.158 C 
HETATM   20  N1  UNL     1       1.224  27.099  25.870  1.00  0.00    -0.309 N 
HETATM   21  C19 UNL     1       0.399  28.259  25.809  1.00  0.00     0.225 C 
HETATM   22  O9  UNL     1       0.295  28.969  24.775  1.00  0.00    -0.273 OA
ENDROOT
BRANCH   1  23
HETATM   23  C4  UNL     1       2.894  27.704  24.163  1.00  0.00     0.312 C 
HETATM   24  O3  UNL     1       3.895  28.147  24.832  1.00  0.00    -0.258 OA
BRANCH  23  25
HETATM   25  O2  UNL     1       2.769  28.261  22.912  1.00  0.00    -0.309 OA
BRANCH  25  26
HETATM   26  C3  UNL     1       3.318  29.456  22.445  1.00  0.00     0.256 C 
BRANCH  26  27
HETATM   27  C2  UNL     1       2.418  30.353  21.706  1.00  0.00     0.147 C 
HETATM   28  C1  UNL     1       1.289  31.132  22.218  1.00  0.00     0.093 C 
HETATM   29  O1  UNL     1       2.664  30.455  20.486  1.00  0.00    -0.296 OA
ENDBRANCH  26  27
ENDBRANCH  25  26
ENDBRANCH  23  25
ENDBRANCH   1  23
BRANCH  21  30
HETATM   30  C20 UNL     1      -0.383  28.656  27.026  1.00  0.00     0.112 C 
BRANCH  30  31
HETATM   31  C21 UNL     1       0.359  29.752  27.785  1.00  0.00     0.112 C 
BRANCH  31  32
HETATM   32  C22 UNL     1       0.437  30.971  26.937  1.00  0.00     0.219 C 
HETATM   33  O10 UNL     1       1.442  31.712  27.007  1.00  0.00    -0.274 OA
HETATM   34  N2  UNL     1      -0.614  31.282  26.066  1.00  0.00    -0.338 N 
ATOM     35  H2  UNL     1      -1.415  30.652  26.041  1.00  0.00     0.164 HD
BRANCH  34  36
HETATM   36  C23 UNL     1      -0.638  32.433  25.203  1.00  0.00     0.357 C 
BRANCH  36  37
HETATM   37  N3  UNL     1      -1.959  32.662  24.720  1.00  0.00    -0.056 N 
ATOM     38  H32 UNL     1      -2.523  31.813  24.733  1.00  0.00     0.279 HD
ATOM     39  H31 UNL     1      -2.513  33.219  25.370  1.00  0.00     0.279 HD
BRANCH  37  40
HETATM   40  C24 UNL     1      -1.910  33.253  23.415  1.00  0.00     0.284 C 
BRANCH  40  41
HETATM   41  C25 UNL     1      -3.023  32.837  22.497  1.00  0.00     0.260 C 
HETATM   42  N4  UNL     1      -3.893  31.932  23.239  1.00  0.00    -0.110 NA
HETATM   43  N5  UNL     1      -3.409  30.657  22.844  1.00  0.00    -0.086 NA
HETATM   44  C26 UNL     1      -3.190  30.890  21.429  1.00  0.00     0.381 C 
HETATM   45  O13 UNL     1      -2.590  32.125  21.389  1.00  0.00    -0.321 OA
BRANCH  44  46
HETATM   46  O11 UNL     1      -4.359  30.789  20.698  1.00  0.00    -0.298 OA
BRANCH  46  47
HETATM   47  C27 UNL     1      -4.422  31.712  19.668  1.00  0.00     0.405 C 
HETATM   48  N6  UNL     1      -5.053  31.067  18.507  1.00  0.00    -0.058 NA
HETATM   49  N7  UNL     1      -6.248  31.507  19.101  1.00  0.00     0.020 NA
HETATM   50  O12 UNL     1      -5.527  32.539  19.645  1.00  0.00    -0.219 OA
ENDBRANCH  46  47
ENDBRANCH  44  46
ENDBRANCH  40  41
ENDBRANCH  37  40
ENDBRANCH  36  37
ENDBRANCH  34  36
ENDBRANCH  31  32
ENDBRANCH  30  31
ENDBRANCH  21  30
TORSDOF 13
ENDMDL
MODEL 5
REMARK VINA RESULT: -10.245008491      2.027      2.957
REMARK  13 active torsions:
REMARK  status: ('A' for Active; 'I' for Inactive)
REMARK    1  A    between atoms: C2_2  and  C3_4 
REMARK    2  A    between atoms: C3_4  and  O2_5 
REMARK    3  A    between atoms: O2_5  and  C4_6 
REMARK    4  A    between atoms: C4_6  and  C5_8 
REMARK       I    between atoms: N1_27  and  C19_28 
REMARK    5  A    between atoms: C19_28  and  C20_30 
REMARK    6  A    between atoms: C20_30  and  C21_31 
REMARK    7  A    between atoms: C21_31  and  C22_32 
REMARK       I    between atoms: C22_32  and  N2_34 
REMARK    8  A    between atoms: N2_34  and  C23_36 
REMARK    9  A    between atoms: C23_36  and  N3_37 
REMARK   10  A    between atoms: N3_37  and  C24_40 
REMARK   11  A    between atoms: C24_40  and  C25_41 
REMARK   12  A    between atoms: C26_44  and  O11_45 
REMARK   13  A    between atoms: O11_45  and  C27_46 
ROOT
HETATM    1  C5  UNL     1       1.205  24.248  24.752  1.00  0.00     0.135 C 
HETATM    2  C6  UNL     1       1.652  22.986  24.582  1.00  0.00     0.170 C 
HETATM    3  O4  UNL     1       1.361  21.937  25.398  1.00  0.00    -0.358 OA
HETATM    4  C7  UNL     1       2.054  21.045  26.178  1.00  0.00     0.200 C 
HETATM    5  C8  UNL     1       2.537  19.793  25.494  1.00  0.00     0.194 C 
HETATM    6  O5  UNL     1       3.895  19.615  25.581  1.00  0.00    -0.387 OA
HETATM    7  C9  UNL     1       4.145  18.379  26.165  1.00  0.00     0.193 C 
HETATM    8  C10 UNL     1       5.269  18.412  27.152  1.00  0.00     0.193 C 
HETATM    9  O6  UNL     1       4.747  18.756  28.394  1.00  0.00    -0.389 OA
HETATM   10  C11 UNL     1       5.385  19.925  28.859  1.00  0.00     0.169 C 
HETATM   11  C12 UNL     1       5.309  19.888  30.361  1.00  0.00     0.052 C 
HETATM   12  C13 UNL     1       4.906  21.205  30.941  1.00  0.00     0.169 C 
HETATM   13  O7  UNL     1       4.623  22.112  29.932  1.00  0.00    -0.391 OA
HETATM   14  C14 UNL     1       4.058  23.288  30.444  1.00  0.00     0.169 C 
HETATM   15  C15 UNL     1       4.321  24.376  29.432  1.00  0.00     0.052 C 
HETATM   16  C16 UNL     1       3.225  25.407  29.510  1.00  0.00     0.169 C 
HETATM   17  O8  UNL     1       2.031  24.876  29.030  1.00  0.00    -0.389 OA
HETATM   18  C17 UNL     1       1.753  25.312  27.736  1.00  0.00     0.188 C 
HETATM   19  C18 UNL     1       0.604  24.477  27.220  1.00  0.00     0.158 C 
HETATM   20  N1  UNL     1       0.342  24.690  25.793  1.00  0.00    -0.309 N 
HETATM   21  C19 UNL     1      -0.871  25.377  25.495  1.00  0.00     0.225 C 
HETATM   22  O9  UNL     1      -1.253  25.608  24.319  1.00  0.00    -0.273 OA
ENDROOT
BRANCH   1  23
HETATM   23  C4  UNL     1       1.627  25.248  23.767  1.00  0.00     0.312 C 
HETATM   24  O3  UNL     1       1.746  24.925  22.532  1.00  0.00    -0.258 OA
BRANCH  23  25
HETATM   25  O2  UNL     1       1.931  26.563  24.032  1.00  0.00    -0.309 OA
BRANCH  25  26
HETATM   26  C3  UNL     1       3.193  27.153  24.111  1.00  0.00     0.256 C 
BRANCH  26  27
HETATM   27  C2  UNL     1       3.890  27.054  25.402  1.00  0.00     0.147 C 
HETATM   28  C1  UNL     1       3.857  27.989  26.527  1.00  0.00     0.093 C 
HETATM   29  O1  UNL     1       4.594  26.032  25.540  1.00  0.00    -0.296 OA
ENDBRANCH  26  27
ENDBRANCH  25  26
ENDBRANCH  23  25
ENDBRANCH   1  23
BRANCH  21  30
HETATM   30  C20 UNL     1      -1.733  25.848  26.629  1.00  0.00     0.112 C 
BRANCH  30  31
HETATM   31  C21 UNL     1      -2.356  27.197  26.283  1.00  0.00     0.112 C 
BRANCH  31  32
HETATM   32  C22 UNL     1      -1.325  28.261  26.405  1.00  0.00     0.219 C 
HETATM   33  O10 UNL     1      -1.218  28.900  27.475  1.00  0.00    -0.274 OA
HETATM   34  N2  UNL     1      -0.480  28.541  25.325  1.00  0.00    -0.338 N 
ATOM     35  H2  UNL     1      -0.602  27.997  24.471  1.00  0.00     0.164 HD
BRANCH  34  36
HETATM   36  C23 UNL     1       0.549  29.546  25.340  1.00  0.00     0.357 C 
BRANCH  36  37
HETATM   37  N3  UNL     1      -0.030  30.847  25.405  1.00  0.00    -0.056 N 
ATOM     38  H32 UNL     1      -0.932  30.839  25.880  1.00  0.00     0.279 HD
ATOM     39  H31 UNL     1       0.473  31.457  26.048  1.00  0.00     0.279 HD
BRANCH  37  40
HETATM   40  C24 UNL     1      -0.120  31.411  24.091  1.00  0.00     0.284 C 
BRANCH  40  41
HETATM   41  C25 UNL     1      -1.490  31.896  23.711  1.00  0.00     0.260 C 
HETATM   42  N4  UNL     1      -2.451  31.236  24.586  1.00  0.00    -0.110 NA
HETATM   43  N5  UNL     1      -2.878  30.139  23.791  1.00  0.00    -0.086 NA
HETATM   44  C26 UNL     1      -2.989  30.784  22.497  1.00  0.00     0.381 C 
HETATM   45  O13 UNL     1      -1.858  31.558  22.417  1.00  0.00    -0.321 OA
BRANCH  44  46
HETATM   46  O11 UNL     1      -4.178  31.479  22.363  1.00  0.00    -0.298 OA
BRANCH  46  47
HETATM   47  C27 UNL     1      -4.272  32.140  21.151  1.00  0.00     0.405 C 
HETATM   48  N6  UNL     1      -4.725  31.180  20.133  1.00  0.00    -0.058 NA
HETATM   49  N7  UNL     1      -6.008  31.570  20.554  1.00  0.00     0.020 NA
HETATM   50  O12 UNL     1      -5.464  32.783  20.888  1.00  0.00    -0.219 OA
ENDBRANCH  46  47
ENDBRANCH  44  46
ENDBRANCH  40  41
ENDBRANCH  37  40
ENDBRANCH  36  37
ENDBRANCH  34  36
ENDBRANCH  31  32
ENDBRANCH  30  31
ENDBRANCH  21  30
TORSDOF 13
ENDMDL
