MODEL 1
REMARK VINA RESULT: -9.207065834      0.000      0.000
REMARK  14 active torsions:
REMARK  status: ('A' for Active; 'I' for Inactive)
REMARK       I    between atoms: C2_2  and  N1_4 
REMARK    1  A    between atoms: N1_4  and  N2_6 
REMARK       I    between atoms: N2_6  and  C3_8 
REMARK    2  A    between atoms: C3_8  and  C4_10 
REMARK    3  A    between atoms: N4_17  and  C8_18 
REMARK    4  A    between atoms: C9_21  and  C10_22 
REMARK    5  A    between atoms: C10_22  and  C12_24 
REMARK    6  A    between atoms: C12_24  and  O3_25 
REMARK    7  A    between atoms: O3_25  and  C13_26 
REMARK    8  A    between atoms: C13_26  and  C14_28 
REMARK    9  A    between atoms: C16_33  and  N7_34 
REMARK   10  A    between atoms: N8_37  and  C19_38 
REMARK   11  A    between atoms: C19_38  and  C20_39 
REMARK   12  A    between atoms: C20_39  and  O6_40 
REMARK   13  A    between atoms: C23_47  and  C24_48 
REMARK   14  A    between atoms: C26_53  and  O8_54 
ROOT
HETATM    1  C12 UNL     1      -2.641  22.932  28.455  1.00  0.00     0.189 C 
ENDROOT
BRANCH   1   2
HETATM    2  C10 UNL     1      -1.932  21.678  27.922  1.00  0.00     0.061 C 
HETATM    3  C11 UNL     1      -2.492  20.525  28.756  1.00  0.00     0.018 C 
BRANCH   2   4
HETATM    4  C9  UNL     1      -0.502  21.841  28.286  1.00  0.00     0.083 A 
HETATM    5  N5  UNL     1       0.095  22.622  29.188  1.00  0.00    -0.191 N 
HETATM    6  C8  UNL     1       1.397  22.438  29.142  1.00  0.00     0.683 A 
ATOM      7  H5  UNL     1      -0.386  23.265  29.818  1.00  0.00     0.184 HD
HETATM    8  N12 UNL     1       1.648  21.521  28.194  1.00  0.00    -0.169 N 
HETATM    9  C26 UNL     1       0.504  21.115  27.627  1.00  0.00     0.179 A 
ATOM     10  H12 UNL     1       2.576  21.182  27.942  1.00  0.00     0.186 HD
BRANCH   6  11
HETATM   11  N4  UNL     1       2.369  23.132  29.960  1.00  0.00    -0.201 N 
HETATM   12  C4  UNL     1       3.628  23.476  29.329  1.00  0.00     0.221 C 
HETATM   13  C5  UNL     1       4.734  23.564  30.327  1.00  0.00     0.267 C 
HETATM   14  N3  UNL     1       4.251  24.383  31.445  1.00  0.00    -0.071 N 
HETATM   15  C6  UNL     1       3.276  23.551  32.158  1.00  0.00     0.252 C 
ATOM     16  H32 UNL     1       4.998  24.739  32.042  1.00  0.00     0.277 HD
ATOM     17  H31 UNL     1       3.882  25.290  31.158  1.00  0.00     0.277 HD
HETATM   18  C7  UNL     1       2.047  23.468  31.308  1.00  0.00     0.170 C 
BRANCH  12  19
HETATM   19  C3  UNL     1       3.490  24.773  28.619  1.00  0.00     0.261 C 
HETATM   20  N2  UNL     1       2.959  24.748  27.277  1.00  0.00    -0.266 N 
ATOM     21  H2  UNL     1       2.694  23.867  26.836  1.00  0.00     0.190 HD
HETATM   22  O2  UNL     1       3.826  25.822  29.197  1.00  0.00    -0.269 OA
BRANCH  20  23
HETATM   23  N1  UNL     1       2.813  25.980  26.587  1.00  0.00    -0.268 N 
HETATM   24  C2  UNL     1       3.802  26.445  25.710  1.00  0.00     0.232 C 
HETATM   25  C1  UNL     1       3.625  27.760  25.000  1.00  0.00     0.119 C 
HETATM   26  O1  UNL     1       4.846  25.779  25.503  1.00  0.00    -0.272 OA
ATOM     27  H1  UNL     1       1.972  26.538  26.731  1.00  0.00     0.190 HD
ENDBRANCH  20  23
ENDBRANCH  12  19
ENDBRANCH   6  11
BRANCH   9  28
HETATM   28  O8  UNL     1       0.341  20.183  26.611  1.00  0.00    -0.344 OA
ATOM     29  H8  UNL     1       0.570  20.284  25.695  1.00  0.00     0.219 HD
ENDBRANCH   9  28
ENDBRANCH   2   4
ENDBRANCH   1   2
BRANCH   1  30
HETATM   30  O3  UNL     1      -3.871  22.999  27.774  1.00  0.00    -0.317 OA
BRANCH  30  31
HETATM   31  C13 UNL     1      -4.082  23.779  26.622  1.00  0.00     0.301 C 
HETATM   32  O4  UNL     1      -4.904  23.317  25.804  1.00  0.00    -0.259 OA
BRANCH  31  33
HETATM   33  C14 UNL     1      -3.358  25.018  26.466  1.00  0.00     0.144 A 
HETATM   34  C15 UNL     1      -3.832  26.225  26.975  1.00  0.00     0.279 A 
HETATM   35  O5  UNL     1      -4.913  26.270  27.586  1.00  0.00    -0.266 OA
HETATM   36  N6  UNL     1      -3.028  27.268  26.739  1.00  0.00    -0.153 N 
HETATM   37  C16 UNL     1      -1.881  27.238  26.095  1.00  0.00     0.706 A 
ATOM     38  H6  UNL     1      -3.333  28.175  27.093  1.00  0.00     0.187 HD
HETATM   39  N9  UNL     1      -1.382  26.065  25.579  1.00  0.00    -0.077 N 
HETATM   40  N10 UNL     1      -0.286  25.933  24.942  1.00  0.00    -0.267 N 
HETATM   41  C25 UNL     1      -2.136  24.981  25.779  1.00  0.00     0.139 A 
HETATM   42  C23 UNL     1       0.097  24.757  24.489  1.00  0.00     0.157 A 
ATOM     43  H10 UNL     1       0.303  26.750  24.781  1.00  0.00     0.189 HD
HETATM   44  S1  UNL     1      -1.195  23.767  25.008  1.00  0.00    -0.044 SA
BRANCH  37  45
HETATM   45  N7  UNL     1      -1.160  28.481  25.965  1.00  0.00    -0.206 N 
HETATM   46  C17 UNL     1      -1.672  29.556  25.158  1.00  0.00     0.186 C 
HETATM   47  C18 UNL     1      -0.854  30.783  25.126  1.00  0.00     0.088 C 
HETATM   48  N8  UNL     1      -0.109  31.085  26.273  1.00  0.00    -0.349 N 
HETATM   49  C21 UNL     1       0.199  30.039  27.159  1.00  0.00     0.088 C 
HETATM   50  C22 UNL     1       0.100  28.651  26.640  1.00  0.00     0.186 C 
BRANCH  48  51
HETATM   51  C19 UNL     1       0.657  32.267  26.300  1.00  0.00     0.094 C 
BRANCH  51  52
HETATM   52  C20 UNL     1       1.610  32.405  27.466  1.00  0.00     0.209 C 
BRANCH  52  53
HETATM   53  O6  UNL     1       0.955  33.052  28.503  1.00  0.00    -0.396 OA
ATOM     54  H6  UNL     1       1.351  32.790  29.326  1.00  0.00     0.209 HD
ENDBRANCH  52  53
ENDBRANCH  51  52
ENDBRANCH  48  51
ENDBRANCH  37  45
BRANCH  42  55
HETATM   55  C24 UNL     1       1.316  24.400  23.731  1.00  0.00     0.289 C 
HETATM   56  N11 UNL     1       1.486  24.826  22.393  1.00  0.00    -0.055 NA
HETATM   57  O7  UNL     1       2.161  23.708  24.360  1.00  0.00    -0.269 OA
ENDBRANCH  42  55
ENDBRANCH  31  33
ENDBRANCH  30  31
ENDBRANCH   1  30
TORSDOF 14
ENDMDL
MODEL 2
REMARK VINA RESULT: -9.084338440      3.727      9.413
REMARK  14 active torsions:
REMARK  status: ('A' for Active; 'I' for Inactive)
REMARK       I    between atoms: C2_2  and  N1_4 
REMARK    1  A    between atoms: N1_4  and  N2_6 
REMARK       I    between atoms: N2_6  and  C3_8 
REMARK    2  A    between atoms: C3_8  and  C4_10 
REMARK    3  A    between atoms: N4_17  and  C8_18 
REMARK    4  A    between atoms: C9_21  and  C10_22 
REMARK    5  A    between atoms: C10_22  and  C12_24 
REMARK    6  A    between atoms: C12_24  and  O3_25 
REMARK    7  A    between atoms: O3_25  and  C13_26 
REMARK    8  A    between atoms: C13_26  and  C14_28 
REMARK    9  A    between atoms: C16_33  and  N7_34 
REMARK   10  A    between atoms: N8_37  and  C19_38 
REMARK   11  A    between atoms: C19_38  and  C20_39 
REMARK   12  A    between atoms: C20_39  and  O6_40 
REMARK   13  A    between atoms: C23_47  and  C24_48 
REMARK   14  A    between atoms: C26_53  and  O8_54 
ROOT
HETATM    1  C12 UNL     1       1.687  26.681  25.449  1.00  0.00     0.189 C 
ENDROOT
BRANCH   1   2
HETATM    2  C10 UNL     1       2.659  27.865  25.324  1.00  0.00     0.061 C 
HETATM    3  C11 UNL     1       2.784  28.422  26.743  1.00  0.00     0.018 C 
BRANCH   2   4
HETATM    4  C9  UNL     1       1.950  28.880  24.504  1.00  0.00     0.083 A 
HETATM    5  N5  UNL     1       0.832  29.571  24.729  1.00  0.00    -0.191 N 
HETATM    6  C8  UNL     1       0.577  30.350  23.700  1.00  0.00     0.683 A 
ATOM      7  H5  UNL     1       0.260  29.505  25.572  1.00  0.00     0.184 HD
HETATM    8  N12 UNL     1       1.548  30.160  22.793  1.00  0.00    -0.169 N 
HETATM    9  C26 UNL     1       2.430  29.255  23.239  1.00  0.00     0.179 A 
ATOM     10  H12 UNL     1       1.606  30.636  21.893  1.00  0.00     0.186 HD
BRANCH   6  11
HETATM   11  N4  UNL     1      -0.568  31.227  23.578  1.00  0.00    -0.201 N 
HETATM   12  C4  UNL     1      -0.515  32.231  22.533  1.00  0.00     0.221 C 
HETATM   13  C5  UNL     1      -1.343  33.423  22.877  1.00  0.00     0.267 C 
HETATM   14  N3  UNL     1      -2.651  32.935  23.329  1.00  0.00    -0.071 N 
HETATM   15  C6  UNL     1      -2.421  32.342  24.651  1.00  0.00     0.252 C 
ATOM     16  H32 UNL     1      -3.378  33.650  23.322  1.00  0.00     0.277 HD
ATOM     17  H31 UNL     1      -3.099  32.299  22.669  1.00  0.00     0.277 HD
HETATM   18  C7  UNL     1      -1.686  31.055  24.448  1.00  0.00     0.170 C 
BRANCH  12  19
HETATM   19  C3  UNL     1      -0.993  31.642  21.255  1.00  0.00     0.261 C 
HETATM   20  N2  UNL     1      -0.003  31.326  20.254  1.00  0.00    -0.266 N 
ATOM     21  H2  UNL     1       0.987  31.507  20.422  1.00  0.00     0.190 HD
HETATM   22  O2  UNL     1      -2.209  31.441  21.096  1.00  0.00    -0.269 OA
BRANCH  20  23
HETATM   23  N1  UNL     1      -0.441  30.755  19.029  1.00  0.00    -0.268 N 
HETATM   24  C2  UNL     1       0.454  30.105  18.168  1.00  0.00     0.232 C 
HETATM   25  C1  UNL     1      -0.038  29.520  16.871  1.00  0.00     0.119 C 
HETATM   26  O1  UNL     1       1.670  30.002  18.459  1.00  0.00    -0.272 OA
ATOM     27  H1  UNL     1      -1.425  30.820  18.771  1.00  0.00     0.190 HD
ENDBRANCH  20  23
ENDBRANCH  12  19
ENDBRANCH   6  11
BRANCH   9  28
HETATM   28  O8  UNL     1       3.567  28.787  22.596  1.00  0.00    -0.344 OA
ATOM     29  H8  UNL     1       4.442  29.153  22.634  1.00  0.00     0.219 HD
ENDBRANCH   9  28
ENDBRANCH   2   4
ENDBRANCH   1   2
BRANCH   1  30
HETATM   30  O3  UNL     1       1.863  25.912  24.283  1.00  0.00    -0.317 OA
BRANCH  30  31
HETATM   31  C13 UNL     1       1.181  24.707  24.035  1.00  0.00     0.301 C 
HETATM   32  O4  UNL     1       0.856  24.509  22.846  1.00  0.00    -0.259 OA
BRANCH  31  33
HETATM   33  C14 UNL     1       0.908  23.811  25.134  1.00  0.00     0.144 A 
HETATM   34  C15 UNL     1       1.888  22.981  25.676  1.00  0.00     0.279 A 
HETATM   35  O5  UNL     1       3.043  22.988  25.220  1.00  0.00    -0.266 OA
HETATM   36  N6  UNL     1       1.457  22.223  26.690  1.00  0.00    -0.153 N 
HETATM   37  C16 UNL     1       0.238  22.204  27.186  1.00  0.00     0.706 A 
ATOM     38  H6  UNL     1       2.138  21.598  27.121  1.00  0.00     0.187 HD
HETATM   39  N9  UNL     1      -0.754  23.008  26.676  1.00  0.00    -0.077 N 
HETATM   40  N10 UNL     1      -1.959  23.062  27.085  1.00  0.00    -0.267 N 
HETATM   41  C25 UNL     1      -0.391  23.794  25.659  1.00  0.00     0.139 A 
HETATM   42  C23 UNL     1      -2.831  23.873  26.520  1.00  0.00     0.157 A 
ATOM     43  H10 UNL     1      -2.254  22.470  27.861  1.00  0.00     0.189 HD
HETATM   44  S1  UNL     1      -1.864  24.613  25.321  1.00  0.00    -0.044 SA
BRANCH  37  45
HETATM   45  N7  UNL     1      -0.013  21.318  28.297  1.00  0.00    -0.206 N 
HETATM   46  C17 UNL     1       0.203  21.748  29.653  1.00  0.00     0.186 C 
HETATM   47  C18 UNL     1      -0.112  20.757  30.700  1.00  0.00     0.088 C 
HETATM   48  N8  UNL     1      -1.138  19.843  30.427  1.00  0.00    -0.349 N 
HETATM   49  C21 UNL     1      -1.471  19.599  29.085  1.00  0.00     0.088 C 
HETATM   50  C22 UNL     1      -0.471  19.975  28.053  1.00  0.00     0.186 C 
BRANCH  48  51
HETATM   51  C19 UNL     1      -1.497  18.903  31.414  1.00  0.00     0.094 C 
BRANCH  51  52
HETATM   52  C20 UNL     1      -0.581  18.831  32.614  1.00  0.00     0.209 C 
BRANCH  52  53
HETATM   53  O6  UNL     1      -1.347  18.910  33.767  1.00  0.00    -0.396 OA
ATOM     54  H6  UNL     1      -0.771  19.055  34.508  1.00  0.00     0.209 HD
ENDBRANCH  52  53
ENDBRANCH  51  52
ENDBRANCH  48  51
ENDBRANCH  37  45
BRANCH  42  55
HETATM   55  C24 UNL     1      -4.261  24.077  26.841  1.00  0.00     0.289 C 
HETATM   56  N11 UNL     1      -4.712  25.305  27.379  1.00  0.00    -0.055 NA
HETATM   57  O7  UNL     1      -5.015  23.097  26.601  1.00  0.00    -0.269 OA
ENDBRANCH  42  55
ENDBRANCH  31  33
ENDBRANCH  30  31
ENDBRANCH   1  30
TORSDOF 14
ENDMDL
MODEL 3
REMARK VINA RESULT: -8.922032578      3.615      9.464
REMARK  14 active torsions:
REMARK  status: ('A' for Active; 'I' for Inactive)
REMARK       I    between atoms: C2_2  and  N1_4 
REMARK    1  A    between atoms: N1_4  and  N2_6 
REMARK       I    between atoms: N2_6  and  C3_8 
REMARK    2  A    between atoms: C3_8  and  C4_10 
REMARK    3  A    between atoms: N4_17  and  C8_18 
REMARK    4  A    between atoms: C9_21  and  C10_22 
REMARK    5  A    between atoms: C10_22  and  C12_24 
REMARK    6  A    between atoms: C12_24  and  O3_25 
REMARK    7  A    between atoms: O3_25  and  C13_26 
REMARK    8  A    between atoms: C13_26  and  C14_28 
REMARK    9  A    between atoms: C16_33  and  N7_34 
REMARK   10  A    between atoms: N8_37  and  C19_38 
REMARK   11  A    between atoms: C19_38  and  C20_39 
REMARK   12  A    between atoms: C20_39  and  O6_40 
REMARK   13  A    between atoms: C23_47  and  C24_48 
REMARK   14  A    between atoms: C26_53  and  O8_54 
ROOT
HETATM    1  C12 UNL     1       2.512  28.195  25.493  1.00  0.00     0.189 C 
ENDROOT
BRANCH   1   2
HETATM    2  C10 UNL     1       1.981  28.975  26.705  1.00  0.00     0.061 C 
HETATM    3  C11 UNL     1       1.120  27.972  27.472  1.00  0.00     0.018 C 
BRANCH   2   4
HETATM    4  C9  UNL     1       1.076  30.011  26.149  1.00  0.00     0.083 A 
HETATM    5  N5  UNL     1       0.309  30.018  25.057  1.00  0.00    -0.191 N 
HETATM    6  C8  UNL     1      -0.312  31.175  24.958  1.00  0.00     0.683 A 
ATOM      7  H5  UNL     1       0.218  29.245  24.398  1.00  0.00     0.184 HD
HETATM    8  N12 UNL     1       0.059  31.929  26.005  1.00  0.00    -0.169 N 
HETATM    9  C26 UNL     1       0.923  31.257  26.779  1.00  0.00     0.179 A 
ATOM     10  H12 UNL     1      -0.269  32.878  26.185  1.00  0.00     0.186 HD
BRANCH   6  11
HETATM   11  N4  UNL     1      -1.209  31.553  23.888  1.00  0.00    -0.201 N 
HETATM   12  C4  UNL     1      -0.741  32.575  22.972  1.00  0.00     0.221 C 
HETATM   13  C5  UNL     1      -1.877  33.331  22.368  1.00  0.00     0.267 C 
HETATM   14  N3  UNL     1      -2.856  32.347  21.894  1.00  0.00    -0.071 N 
HETATM   15  C6  UNL     1      -3.479  31.791  23.101  1.00  0.00     0.252 C 
ATOM     16  H32 UNL     1      -3.527  32.728  21.227  1.00  0.00     0.277 HD
ATOM     17  H31 UNL     1      -2.458  31.639  21.277  1.00  0.00     0.277 HD
HETATM   18  C7  UNL     1      -2.472  30.902  23.761  1.00  0.00     0.170 C 
BRANCH  12  19
HETATM   19  C3  UNL     1       0.069  31.946  21.897  1.00  0.00     0.261 C 
HETATM   20  N2  UNL     1      -0.635  31.399  20.763  1.00  0.00    -0.266 N 
ATOM     21  H2  UNL     1      -1.653  31.441  20.709  1.00  0.00     0.190 HD
HETATM   22  O2  UNL     1       1.307  31.918  22.006  1.00  0.00    -0.269 OA
BRANCH  20  23
HETATM   23  N1  UNL     1       0.124  30.801  19.722  1.00  0.00    -0.268 N 
HETATM   24  C2  UNL     1      -0.445  30.529  18.470  1.00  0.00     0.232 C 
HETATM   25  C1  UNL     1       0.382  29.884  17.390  1.00  0.00     0.119 C 
HETATM   26  O1  UNL     1      -1.643  30.814  18.230  1.00  0.00    -0.272 OA
ATOM     27  H1  UNL     1       1.102  30.565  19.888  1.00  0.00     0.190 HD
ENDBRANCH  20  23
ENDBRANCH  12  19
ENDBRANCH   6  11
BRANCH   9  28
HETATM   28  O8  UNL     1       1.534  31.691  27.946  1.00  0.00    -0.344 OA
ATOM     29  H8  UNL     1       2.434  31.974  28.055  1.00  0.00     0.219 HD
ENDBRANCH   9  28
ENDBRANCH   2   4
ENDBRANCH   1   2
BRANCH   1  30
HETATM   30  O3  UNL     1       1.479  27.315  25.118  1.00  0.00    -0.317 OA
BRANCH  30  31
HETATM   31  C13 UNL     1       1.694  25.973  24.753  1.00  0.00     0.301 C 
HETATM   32  O4  UNL     1       2.149  25.796  23.604  1.00  0.00    -0.259 OA
BRANCH  31  33
HETATM   33  C14 UNL     1       1.385  24.926  25.698  1.00  0.00     0.144 A 
HETATM   34  C15 UNL     1       2.375  24.147  26.294  1.00  0.00     0.279 A 
HETATM   35  O5  UNL     1       3.573  24.333  26.022  1.00  0.00    -0.266 OA
HETATM   36  N6  UNL     1       1.904  23.228  27.145  1.00  0.00    -0.153 N 
HETATM   37  C16 UNL     1       0.640  23.018  27.445  1.00  0.00     0.706 A 
ATOM     38  H6  UNL     1       2.591  22.633  27.607  1.00  0.00     0.187 HD
HETATM   39  N9  UNL     1      -0.363  23.767  26.877  1.00  0.00    -0.077 N 
HETATM   40  N10 UNL     1      -1.611  23.642  27.101  1.00  0.00    -0.267 N 
HETATM   41  C25 UNL     1       0.037  24.705  26.014  1.00  0.00     0.139 A 
HETATM   42  C23 UNL     1      -2.490  24.417  26.497  1.00  0.00     0.157 A 
ATOM     43  H10 UNL     1      -1.935  22.931  27.757  1.00  0.00     0.189 HD
HETATM   44  S1  UNL     1      -1.465  25.396  25.543  1.00  0.00    -0.044 SA
BRANCH  37  45
HETATM   45  N7  UNL     1       0.349  21.982  28.406  1.00  0.00    -0.206 N 
HETATM   46  C17 UNL     1       0.403  22.245  29.820  1.00  0.00     0.186 C 
HETATM   47  C18 UNL     1       0.062  21.109  30.699  1.00  0.00     0.088 C 
HETATM   48  N8  UNL     1      -0.865  20.179  30.210  1.00  0.00    -0.349 N 
HETATM   49  C21 UNL     1      -1.050  20.092  28.820  1.00  0.00     0.088 C 
HETATM   50  C22 UNL     1       0.015  20.658  27.952  1.00  0.00     0.186 C 
BRANCH  48  51
HETATM   51  C19 UNL     1      -1.247  19.100  31.031  1.00  0.00     0.094 C 
BRANCH  51  52
HETATM   52  C20 UNL     1      -0.460  18.939  32.311  1.00  0.00     0.209 C 
BRANCH  52  53
HETATM   53  O6  UNL     1      -1.343  18.934  33.380  1.00  0.00    -0.396 OA
ATOM     54  H6  UNL     1      -0.904  19.297  34.141  1.00  0.00     0.209 HD
ENDBRANCH  52  53
ENDBRANCH  51  52
ENDBRANCH  48  51
ENDBRANCH  37  45
BRANCH  42  55
HETATM   55  C24 UNL     1      -3.964  24.426  26.616  1.00  0.00     0.289 C 
HETATM   56  N11 UNL     1      -4.726  23.296  26.235  1.00  0.00    -0.055 NA
HETATM   57  O7  UNL     1      -4.464  25.489  27.070  1.00  0.00    -0.269 OA
ENDBRANCH  42  55
ENDBRANCH  31  33
ENDBRANCH  30  31
ENDBRANCH   1  30
TORSDOF 14
ENDMDL
MODEL 4
REMARK VINA RESULT: -8.827251573      3.293      8.349
REMARK  14 active torsions:
REMARK  status: ('A' for Active; 'I' for Inactive)
REMARK       I    between atoms: C2_2  and  N1_4 
REMARK    1  A    between atoms: N1_4  and  N2_6 
REMARK       I    between atoms: N2_6  and  C3_8 
REMARK    2  A    between atoms: C3_8  and  C4_10 
REMARK    3  A    between atoms: N4_17  and  C8_18 
REMARK    4  A    between atoms: C9_21  and  C10_22 
REMARK    5  A    between atoms: C10_22  and  C12_24 
REMARK    6  A    between atoms: C12_24  and  O3_25 
REMARK    7  A    between atoms: O3_25  and  C13_26 
REMARK    8  A    between atoms: C13_26  and  C14_28 
REMARK    9  A    between atoms: C16_33  and  N7_34 
REMARK   10  A    between atoms: N8_37  and  C19_38 
REMARK   11  A    between atoms: C19_38  and  C20_39 
REMARK   12  A    between atoms: C20_39  and  O6_40 
REMARK   13  A    between atoms: C23_47  and  C24_48 
REMARK   14  A    between atoms: C26_53  and  O8_54 
ROOT
HETATM    1  C12 UNL     1       1.549  23.784  25.636  1.00  0.00     0.189 C 
ENDROOT
BRANCH   1   2
HETATM    2  C10 UNL     1       0.456  24.162  24.624  1.00  0.00     0.061 C 
HETATM    3  C11 UNL     1       1.211  24.492  23.336  1.00  0.00     0.018 C 
BRANCH   2   4
HETATM    4  C9  UNL     1      -0.139  25.424  25.131  1.00  0.00     0.083 A 
HETATM    5  N5  UNL     1       0.378  26.645  25.282  1.00  0.00    -0.191 N 
HETATM    6  C8  UNL     1      -0.529  27.451  25.790  1.00  0.00     0.683 A 
ATOM      7  H5  UNL     1       1.332  26.912  25.041  1.00  0.00     0.184 HD
HETATM    8  N12 UNL     1      -1.654  26.740  25.971  1.00  0.00    -0.169 N 
HETATM    9  C26 UNL     1      -1.469  25.472  25.579  1.00  0.00     0.179 A 
ATOM     10  H12 UNL     1      -2.524  27.112  26.351  1.00  0.00     0.186 HD
BRANCH   6  11
HETATM   11  N4  UNL     1      -0.321  28.846  26.114  1.00  0.00    -0.201 N 
HETATM   12  C4  UNL     1      -0.253  29.773  25.002  1.00  0.00     0.221 C 
HETATM   13  C5  UNL     1       0.571  30.971  25.337  1.00  0.00     0.267 C 
HETATM   14  N3  UNL     1       0.121  31.461  26.645  1.00  0.00    -0.071 N 
HETATM   15  C6  UNL     1       0.606  30.484  27.626  1.00  0.00     0.252 C 
ATOM     16  H32 UNL     1       0.412  32.419  26.844  1.00  0.00     0.277 HD
ATOM     17  H31 UNL     1      -0.885  31.626  26.696  1.00  0.00     0.277 HD
HETATM   18  C7  UNL     1      -0.222  29.247  27.480  1.00  0.00     0.170 C 
BRANCH  12  19
HETATM   19  C3  UNL     1      -1.625  30.199  24.626  1.00  0.00     0.261 C 
HETATM   20  N2  UNL     1      -1.790  30.892  23.371  1.00  0.00    -0.266 N 
ATOM     21  H2  UNL     1      -0.988  31.083  22.770  1.00  0.00     0.190 HD
HETATM   22  O2  UNL     1      -2.572  29.944  25.391  1.00  0.00    -0.269 OA
BRANCH  20  23
HETATM   23  N1  UNL     1      -3.097  31.299  22.992  1.00  0.00    -0.268 N 
HETATM   24  C2  UNL     1      -3.513  31.258  21.654  1.00  0.00     0.232 C 
HETATM   25  C1  UNL     1      -4.900  31.708  21.282  1.00  0.00     0.119 C 
HETATM   26  O1  UNL     1      -2.743  30.851  20.751  1.00  0.00    -0.272 OA
ATOM     27  H1  UNL     1      -3.746  31.628  23.707  1.00  0.00     0.190 HD
ENDBRANCH  20  23
ENDBRANCH  12  19
ENDBRANCH   6  11
BRANCH   9  28
HETATM   28  O8  UNL     1      -2.386  24.431  25.608  1.00  0.00    -0.344 OA
ATOM     29  H8  UNL     1      -2.908  24.102  24.886  1.00  0.00     0.219 HD
ENDBRANCH   9  28
ENDBRANCH   2   4
ENDBRANCH   1   2
BRANCH   1  30
HETATM   30  O3  UNL     1       2.644  24.622  25.353  1.00  0.00    -0.317 OA
BRANCH  30  31
HETATM   31  C13 UNL     1       3.580  25.032  26.320  1.00  0.00     0.301 C 
HETATM   32  O4  UNL     1       4.599  25.600  25.875  1.00  0.00    -0.259 OA
BRANCH  31  33
HETATM   33  C14 UNL     1       3.311  24.777  27.716  1.00  0.00     0.144 A 
HETATM   34  C15 UNL     1       2.448  25.574  28.464  1.00  0.00     0.279 A 
HETATM   35  O5  UNL     1       1.877  26.546  27.943  1.00  0.00    -0.266 OA
HETATM   36  N6  UNL     1       2.317  25.186  29.738  1.00  0.00    -0.153 N 
HETATM   37  C16 UNL     1       2.913  24.160  30.306  1.00  0.00     0.706 A 
ATOM     38  H6  UNL     1       1.694  25.739  30.327  1.00  0.00     0.187 HD
HETATM   39  N9  UNL     1       3.771  23.351  29.598  1.00  0.00    -0.077 N 
HETATM   40  N10 UNL     1       4.395  22.338  30.056  1.00  0.00    -0.267 N 
HETATM   41  C25 UNL     1       3.949  23.682  28.317  1.00  0.00     0.139 A 
HETATM   42  C23 UNL     1       5.198  21.632  29.286  1.00  0.00     0.157 A 
ATOM     43  H10 UNL     1       4.271  22.071  31.032  1.00  0.00     0.189 HD
HETATM   44  S1  UNL     1       5.053  22.469  27.803  1.00  0.00    -0.044 SA
BRANCH  37  45
HETATM   45  N7  UNL     1       2.618  23.906  31.695  1.00  0.00    -0.206 N 
HETATM   46  C17 UNL     1       3.417  24.487  32.742  1.00  0.00     0.186 C 
HETATM   47  C18 UNL     1       2.998  24.171  34.121  1.00  0.00     0.088 C 
HETATM   48  N8  UNL     1       1.631  23.958  34.341  1.00  0.00    -0.349 N 
HETATM   49  C21 UNL     1       0.831  23.592  33.247  1.00  0.00     0.088 C 
HETATM   50  C22 UNL     1       1.519  23.047  32.048  1.00  0.00     0.186 C 
BRANCH  48  51
HETATM   51  C19 UNL     1       1.183  23.691  35.650  1.00  0.00     0.094 C 
BRANCH  51  52
HETATM   52  C20 UNL     1       0.890  24.903  36.503  1.00  0.00     0.209 C 
BRANCH  52  53
HETATM   53  O6  UNL     1      -0.471  25.163  36.459  1.00  0.00    -0.396 OA
ATOM     54  H6  UNL     1      -0.605  26.103  36.483  1.00  0.00     0.209 HD
ENDBRANCH  52  53
ENDBRANCH  51  52
ENDBRANCH  48  51
ENDBRANCH  37  45
BRANCH  42  55
HETATM   55  C24 UNL     1       6.005  20.440  29.624  1.00  0.00     0.289 C 
HETATM   56  N11 UNL     1       6.932  19.908  28.696  1.00  0.00    -0.055 NA
HETATM   57  O7  UNL     1       5.804  19.956  30.770  1.00  0.00    -0.269 OA
ENDBRANCH  42  55
ENDBRANCH  31  33
ENDBRANCH  30  31
ENDBRANCH   1  30
TORSDOF 14
ENDMDL
MODEL 5
REMARK VINA RESULT: -8.790943065      3.393      9.317
REMARK  14 active torsions:
REMARK  status: ('A' for Active; 'I' for Inactive)
REMARK       I    between atoms: C2_2  and  N1_4 
REMARK    1  A    between atoms: N1_4  and  N2_6 
REMARK       I    between atoms: N2_6  and  C3_8 
REMARK    2  A    between atoms: C3_8  and  C4_10 
REMARK    3  A    between atoms: N4_17  and  C8_18 
REMARK    4  A    between atoms: C9_21  and  C10_22 
REMARK    5  A    between atoms: C10_22  and  C12_24 
REMARK    6  A    between atoms: C12_24  and  O3_25 
REMARK    7  A    between atoms: O3_25  and  C13_26 
REMARK    8  A    between atoms: C13_26  and  C14_28 
REMARK    9  A    between atoms: C16_33  and  N7_34 
REMARK   10  A    between atoms: N8_37  and  C19_38 
REMARK   11  A    between atoms: C19_38  and  C20_39 
REMARK   12  A    between atoms: C20_39  and  O6_40 
REMARK   13  A    between atoms: C23_47  and  C24_48 
REMARK   14  A    between atoms: C26_53  and  O8_54 
ROOT
HETATM    1  C12 UNL     1       2.577  26.003  25.404  1.00  0.00     0.189 C 
ENDROOT
BRANCH   1   2
HETATM    2  C10 UNL     1       3.510  27.196  25.146  1.00  0.00     0.061 C 
HETATM    3  C11 UNL     1       3.909  27.691  26.537  1.00  0.00     0.018 C 
BRANCH   2   4
HETATM    4  C9  UNL     1       2.660  28.242  24.525  1.00  0.00     0.083 A 
HETATM    5  N5  UNL     1       1.615  28.925  24.996  1.00  0.00    -0.191 N 
HETATM    6  C8  UNL     1       1.165  29.743  24.069  1.00  0.00     0.683 A 
ATOM      7  H5  UNL     1       1.225  28.828  25.934  1.00  0.00     0.184 HD
HETATM    8  N12 UNL     1       1.932  29.587  22.978  1.00  0.00    -0.169 N 
HETATM    9  C26 UNL     1       2.878  28.665  23.203  1.00  0.00     0.179 A 
ATOM     10  H12 UNL     1       1.811  30.098  22.104  1.00  0.00     0.186 HD
BRANCH   6  11
HETATM   11  N4  UNL     1       0.027  30.625  24.213  1.00  0.00    -0.201 N 
HETATM   12  C4  UNL     1       0.094  31.899  23.524  1.00  0.00     0.221 C 
HETATM   13  C5  UNL     1      -0.730  32.937  24.211  1.00  0.00     0.267 C 
HETATM   14  N3  UNL     1      -2.044  32.344  24.484  1.00  0.00    -0.071 N 
HETATM   15  C6  UNL     1      -1.829  31.375  25.564  1.00  0.00     0.252 C 
ATOM     16  H32 UNL     1      -2.767  33.034  24.692  1.00  0.00     0.277 HD
ATOM     17  H31 UNL     1      -2.491  31.944  23.659  1.00  0.00     0.277 HD
HETATM   18  C7  UNL     1      -1.099  30.205  24.983  1.00  0.00     0.170 C 
BRANCH  12  19
HETATM   19  C3  UNL     1      -0.377  31.732  22.125  1.00  0.00     0.261 C 
HETATM   20  N2  UNL     1      -1.796  31.822  21.882  1.00  0.00    -0.266 N 
ATOM     21  H2  UNL     1      -2.449  31.988  22.648  1.00  0.00     0.190 HD
HETATM   22  O2  UNL     1       0.456  31.530  21.224  1.00  0.00    -0.269 OA
BRANCH  20  23
HETATM   23  N1  UNL     1      -2.263  31.673  20.549  1.00  0.00    -0.268 N 
HETATM   24  C2  UNL     1      -3.543  32.101  20.174  1.00  0.00     0.232 C 
HETATM   25  C1  UNL     1      -4.015  31.919  18.756  1.00  0.00     0.119 C 
HETATM   26  O1  UNL     1      -4.314  32.637  21.006  1.00  0.00    -0.272 OA
ATOM     27  H1  UNL     1      -1.654  31.246  19.851  1.00  0.00     0.190 HD
ENDBRANCH  20  23
ENDBRANCH  12  19
ENDBRANCH   6  11
BRANCH   9  28
HETATM   28  O8  UNL     1       3.858  28.221  22.328  1.00  0.00    -0.344 OA
ATOM     29  H8  UNL     1       4.659  28.669  22.083  1.00  0.00     0.219 HD
ENDBRANCH   9  28
ENDBRANCH   2   4
ENDBRANCH   1   2
BRANCH   1  30
HETATM   30  O3  UNL     1       2.008  25.681  24.157  1.00  0.00    -0.317 OA
BRANCH  30  31
HETATM   31  C13 UNL     1       1.403  24.443  23.873  1.00  0.00     0.301 C 
HETATM   32  O4  UNL     1       1.221  24.199  22.663  1.00  0.00    -0.259 OA
BRANCH  31  33
HETATM   33  C14 UNL     1       1.045  23.566  24.963  1.00  0.00     0.144 A 
HETATM   34  C15 UNL     1       1.946  22.656  25.512  1.00  0.00     0.279 A 
HETATM   35  O5  UNL     1       3.103  22.570  25.069  1.00  0.00    -0.266 OA
HETATM   36  N6  UNL     1       1.441  21.930  26.516  1.00  0.00    -0.153 N 
HETATM   37  C16 UNL     1       0.219  22.009  26.998  1.00  0.00     0.706 A 
ATOM     38  H6  UNL     1       2.064  21.249  26.951  1.00  0.00     0.187 HD
HETATM   39  N9  UNL     1      -0.696  22.895  26.482  1.00  0.00    -0.077 N 
HETATM   40  N10 UNL     1      -1.898  23.047  26.877  1.00  0.00    -0.267 N 
HETATM   41  C25 UNL     1      -0.258  23.654  25.473  1.00  0.00     0.139 A 
HETATM   42  C23 UNL     1      -2.694  23.930  26.307  1.00  0.00     0.157 A 
ATOM     43  H10 UNL     1      -2.250  22.476  27.646  1.00  0.00     0.189 HD
HETATM   44  S1  UNL     1      -1.655  24.593  25.123  1.00  0.00    -0.044 SA
BRANCH  37  45
HETATM   45  N7  UNL     1      -0.117  21.141  28.100  1.00  0.00    -0.206 N 
HETATM   46  C17 UNL     1       0.104  21.550  29.462  1.00  0.00     0.186 C 
HETATM   47  C18 UNL     1      -0.303  20.583  30.499  1.00  0.00     0.088 C 
HETATM   48  N8  UNL     1      -1.388  19.747  30.203  1.00  0.00    -0.349 N 
HETATM   49  C21 UNL     1      -1.712  19.532  28.853  1.00  0.00     0.088 C 
HETATM   50  C22 UNL     1      -0.668  19.837  27.842  1.00  0.00     0.186 C 
BRANCH  48  51
HETATM   51  C19 UNL     1      -1.834  18.834  31.179  1.00  0.00     0.094 C 
BRANCH  51  52
HETATM   52  C20 UNL     1      -0.845  18.512  32.275  1.00  0.00     0.209 C 
BRANCH  52  53
HETATM   53  O6  UNL     1      -1.403  18.858  33.496  1.00  0.00    -0.396 OA
ATOM     54  H6  UNL     1      -0.882  18.472  34.191  1.00  0.00     0.209 HD
ENDBRANCH  52  53
ENDBRANCH  51  52
ENDBRANCH  48  51
ENDBRANCH  37  45
BRANCH  42  55
HETATM   55  C24 UNL     1      -4.105  24.249  26.612  1.00  0.00     0.289 C 
HETATM   56  N11 UNL     1      -4.445  25.449  27.281  1.00  0.00    -0.055 NA
HETATM   57  O7  UNL     1      -4.948  23.391  26.238  1.00  0.00    -0.269 OA
ENDBRANCH  42  55
ENDBRANCH  31  33
ENDBRANCH  30  31
ENDBRANCH   1  30
TORSDOF 14
ENDMDL
