MODEL 1
REMARK VINA RESULT: -6.193557792      0.000      0.000
REMARK  4 active torsions:
REMARK  status: ('A' for Active; 'I' for Inactive)
REMARK    1  A    between atoms: C2_2  and  O1_4 
REMARK    2  A    between atoms: O1_4  and  C4_5 
REMARK    3  A    between atoms: C4_5  and  C5_7 
REMARK    4  A    between atoms: C7_12  and  N3_13 
ROOT
HETATM    1  C5  UNL     1      -5.052  66.998  11.113  1.00  0.00     0.149 A 
HETATM    2  C6  UNL     1      -4.132  67.845  10.485  1.00  0.00     0.153 A 
HETATM    3  N1  UNL     1      -3.624  67.520   9.200  1.00  0.00    -0.081 NA
HETATM    4  N2  UNL     1      -3.765  68.952  11.143  1.00  0.00    -0.178 N 
ATOM      5  H2  UNL     1      -3.097  69.589  10.710  1.00  0.00     0.185 HD
HETATM    6  C7  UNL     1      -4.258  69.246  12.366  1.00  0.00     0.681 A 
HETATM    7  N4  UNL     1      -5.152  68.413  12.964  1.00  0.00    -0.151 N 
HETATM    8  C8  UNL     1      -5.675  68.748  14.287  1.00  0.00     0.179 C 
HETATM    9  C9  UNL     1      -5.560  67.292  12.363  1.00  0.00     0.281 A 
HETATM   10  O3  UNL     1      -6.400  66.503  12.919  1.00  0.00    -0.266 OA
ENDROOT
BRANCH   1  11
HETATM   11  C4  UNL     1      -5.495  65.779  10.458  1.00  0.00     0.307 C 
HETATM   12  O2  UNL     1      -4.764  64.768  10.497  1.00  0.00    -0.259 OA
BRANCH  11  13
HETATM   13  O1  UNL     1      -6.699  65.712   9.798  1.00  0.00    -0.280 OA
BRANCH  13  14
HETATM   14  C2  UNL     1      -6.689  65.394   8.444  1.00  0.00     0.044 C 
HETATM   15  C1  UNL     1      -6.375  66.324   7.585  1.00  0.00     0.046 C 
HETATM   16  C3  UNL     1      -7.022  64.035   7.948  1.00  0.00     0.076 C 
ENDBRANCH  13  14
ENDBRANCH  11  13
ENDBRANCH   1  11
BRANCH   6  17
HETATM   17  N3  UNL     1      -3.891  70.316  12.979  1.00  0.00    -0.234 N 
ATOM     18  H32 UNL     1      -3.146  70.887  12.580  1.00  0.00     0.174 HD
ATOM     19  H31 UNL     1      -4.337  70.591  13.855  1.00  0.00     0.174 HD
ENDBRANCH   6  17
TORSDOF 4
ENDMDL
MODEL 2
REMARK VINA RESULT: -5.624082979      2.451      3.608
REMARK  4 active torsions:
REMARK  status: ('A' for Active; 'I' for Inactive)
REMARK    1  A    between atoms: C2_2  and  O1_4 
REMARK    2  A    between atoms: O1_4  and  C4_5 
REMARK    3  A    between atoms: C4_5  and  C5_7 
REMARK    4  A    between atoms: C7_12  and  N3_13 
ROOT
HETATM    1  C5  UNL     1      -5.120  68.497  12.948  1.00  0.00     0.149 A 
HETATM    2  C6  UNL     1      -5.803  68.033  14.076  1.00  0.00     0.153 A 
HETATM    3  N1  UNL     1      -6.642  66.892  13.983  1.00  0.00    -0.081 NA
HETATM    4  N2  UNL     1      -5.630  68.704  15.221  1.00  0.00    -0.178 N 
ATOM      5  H2  UNL     1      -6.115  68.389  16.061  1.00  0.00     0.185 HD
HETATM    6  C7  UNL     1      -4.828  69.789  15.293  1.00  0.00     0.681 A 
HETATM    7  N4  UNL     1      -4.170  70.229  14.188  1.00  0.00    -0.151 N 
HETATM    8  C8  UNL     1      -3.305  71.405  14.284  1.00  0.00     0.179 C 
HETATM    9  C9  UNL     1      -4.298  69.606  13.013  1.00  0.00     0.281 A 
HETATM   10  O3  UNL     1      -3.682  70.014  11.968  1.00  0.00    -0.266 OA
ENDROOT
BRANCH   1  11
HETATM   11  C4  UNL     1      -5.261  67.819  11.671  1.00  0.00     0.307 C 
HETATM   12  O2  UNL     1      -6.088  68.249  10.842  1.00  0.00    -0.259 OA
BRANCH  11  13
HETATM   13  O1  UNL     1      -4.505  66.714  11.353  1.00  0.00    -0.280 OA
BRANCH  13  14
HETATM   14  C2  UNL     1      -4.006  66.610  10.060  1.00  0.00     0.044 C 
HETATM   15  C1  UNL     1      -2.927  67.275   9.749  1.00  0.00     0.046 C 
HETATM   16  C3  UNL     1      -4.661  65.769   9.025  1.00  0.00     0.076 C 
ENDBRANCH  13  14
ENDBRANCH  11  13
ENDBRANCH   1  11
BRANCH   6  17
HETATM   17  N3  UNL     1      -4.676  70.418  16.405  1.00  0.00    -0.234 N 
ATOM     18  H32 UNL     1      -4.768  69.906  17.283  1.00  0.00     0.174 HD
ATOM     19  H31 UNL     1      -4.468  71.417  16.412  1.00  0.00     0.174 HD
ENDBRANCH   6  17
TORSDOF 4
ENDMDL
MODEL 3
REMARK VINA RESULT: -5.618869971      1.756      2.560
REMARK  4 active torsions:
REMARK  status: ('A' for Active; 'I' for Inactive)
REMARK    1  A    between atoms: C2_2  and  O1_4 
REMARK    2  A    between atoms: O1_4  and  C4_5 
REMARK    3  A    between atoms: C4_5  and  C5_7 
REMARK    4  A    between atoms: C7_12  and  N3_13 
ROOT
HETATM    1  C5  UNL     1      -5.220  68.124  12.587  1.00  0.00     0.149 A 
HETATM    2  C6  UNL     1      -4.692  69.344  13.021  1.00  0.00     0.153 A 
HETATM    3  N1  UNL     1      -3.860  70.108  12.161  1.00  0.00    -0.081 NA
HETATM    4  N2  UNL     1      -5.005  69.746  14.259  1.00  0.00    -0.178 N 
ATOM      5  H2  UNL     1      -4.635  70.632  14.603  1.00  0.00     0.185 HD
HETATM    6  C7  UNL     1      -5.797  69.007  15.066  1.00  0.00     0.681 A 
HETATM    7  N4  UNL     1      -6.304  67.821  14.630  1.00  0.00    -0.151 N 
HETATM    8  C8  UNL     1      -7.161  67.035  15.516  1.00  0.00     0.179 C 
HETATM    9  C9  UNL     1      -6.031  67.363  13.406  1.00  0.00     0.281 A 
HETATM   10  O3  UNL     1      -6.503  66.248  12.989  1.00  0.00    -0.266 OA
ENDROOT
BRANCH   1  11
HETATM   11  C4  UNL     1      -4.923  67.625  11.255  1.00  0.00     0.307 C 
HETATM   12  O2  UNL     1      -3.892  66.944  11.077  1.00  0.00    -0.259 OA
BRANCH  11  13
HETATM   13  O1  UNL     1      -5.749  67.885  10.187  1.00  0.00    -0.280 OA
BRANCH  13  14
HETATM   14  C2  UNL     1      -5.855  66.921   9.190  1.00  0.00     0.044 C 
HETATM   15  C1  UNL     1      -5.357  67.180   8.013  1.00  0.00     0.046 C 
HETATM   16  C3  UNL     1      -6.516  65.611   9.423  1.00  0.00     0.076 C 
ENDBRANCH  13  14
ENDBRANCH  11  13
ENDBRANCH   1  11
BRANCH   6  17
HETATM   17  N3  UNL     1      -6.085  69.413  16.252  1.00  0.00    -0.234 N 
ATOM     18  H32 UNL     1      -5.904  70.385  16.502  1.00  0.00     0.174 HD
ATOM     19  H31 UNL     1      -6.488  68.773  16.936  1.00  0.00     0.174 HD
ENDBRANCH   6  17
TORSDOF 4
ENDMDL
MODEL 4
REMARK VINA RESULT: -5.532226810      2.076      3.207
REMARK  4 active torsions:
REMARK  status: ('A' for Active; 'I' for Inactive)
REMARK    1  A    between atoms: C2_2  and  O1_4 
REMARK    2  A    between atoms: O1_4  and  C4_5 
REMARK    3  A    between atoms: C4_5  and  C5_7 
REMARK    4  A    between atoms: C7_12  and  N3_13 
ROOT
HETATM    1  C5  UNL     1      -5.277  68.363  12.987  1.00  0.00     0.149 A 
HETATM    2  C6  UNL     1      -4.543  69.536  13.190  1.00  0.00     0.153 A 
HETATM    3  N1  UNL     1      -3.834  70.130  12.112  1.00  0.00    -0.081 NA
HETATM    4  N2  UNL     1      -4.544  70.059  14.422  1.00  0.00    -0.178 N 
ATOM      5  H2  UNL     1      -4.018  70.915  14.600  1.00  0.00     0.185 HD
HETATM    6  C7  UNL     1      -5.223  69.481  15.437  1.00  0.00     0.681 A 
HETATM    7  N4  UNL     1      -5.932  68.340  15.225  1.00  0.00    -0.151 N 
HETATM    8  C8  UNL     1      -6.662  67.729  16.335  1.00  0.00     0.179 C 
HETATM    9  C9  UNL     1      -5.974  67.766  14.020  1.00  0.00     0.281 A 
HETATM   10  O3  UNL     1      -6.638  66.692  13.812  1.00  0.00    -0.266 OA
ENDROOT
BRANCH   1  11
HETATM   11  C4  UNL     1      -5.321  67.740  11.676  1.00  0.00     0.307 C 
HETATM   12  O2  UNL     1      -6.071  68.218  10.801  1.00  0.00    -0.259 OA
BRANCH  11  13
HETATM   13  O1  UNL     1      -4.556  66.637  11.374  1.00  0.00    -0.280 OA
BRANCH  13  14
HETATM   14  C2  UNL     1      -3.914  66.600  10.141  1.00  0.00     0.044 C 
HETATM   15  C1  UNL     1      -4.414  65.850   9.198  1.00  0.00     0.046 C 
HETATM   16  C3  UNL     1      -2.684  67.384   9.866  1.00  0.00     0.076 C 
ENDBRANCH  13  14
ENDBRANCH  11  13
ENDBRANCH   1  11
BRANCH   6  17
HETATM   17  N3  UNL     1      -5.210  70.002  16.614  1.00  0.00    -0.234 N 
ATOM     18  H32 UNL     1      -5.758  70.844  16.790  1.00  0.00     0.174 HD
ATOM     19  H31 UNL     1      -4.660  69.580  17.362  1.00  0.00     0.174 HD
ENDBRANCH   6  17
TORSDOF 4
ENDMDL
MODEL 5
REMARK VINA RESULT: -5.530470849      2.202      3.047
REMARK  4 active torsions:
REMARK  status: ('A' for Active; 'I' for Inactive)
REMARK    1  A    between atoms: C2_2  and  O1_4 
REMARK    2  A    between atoms: O1_4  and  C4_5 
REMARK    3  A    between atoms: C4_5  and  C5_7 
REMARK    4  A    between atoms: C7_12  and  N3_13 
ROOT
HETATM    1  C5  UNL     1      -5.153  68.209  12.622  1.00  0.00     0.149 A 
HETATM    2  C6  UNL     1      -5.952  67.586  13.585  1.00  0.00     0.153 A 
HETATM    3  N1  UNL     1      -6.597  66.355  13.291  1.00  0.00    -0.081 NA
HETATM    4  N2  UNL     1      -6.074  68.193  14.772  1.00  0.00    -0.178 N 
ATOM      5  H2  UNL     1      -6.650  67.762  15.495  1.00  0.00     0.185 HD
HETATM    6  C7  UNL     1      -5.455  69.364  15.037  1.00  0.00     0.681 A 
HETATM    7  N4  UNL     1      -4.680  69.959  14.089  1.00  0.00    -0.151 N 
HETATM    8  C8  UNL     1      -4.016  71.226  14.393  1.00  0.00     0.179 C 
HETATM    9  C9  UNL     1      -4.516  69.406  12.885  1.00  0.00     0.281 A 
HETATM   10  O3  UNL     1      -3.790  69.960  11.988  1.00  0.00    -0.266 OA
ENDROOT
BRANCH   1  11
HETATM   11  C4  UNL     1      -4.975  67.607  11.312  1.00  0.00     0.307 C 
HETATM   12  O2  UNL     1      -4.000  66.853  11.117  1.00  0.00    -0.259 OA
BRANCH  11  13
HETATM   13  O1  UNL     1      -5.854  67.847  10.282  1.00  0.00    -0.280 OA
BRANCH  13  14
HETATM   14  C2  UNL     1      -5.895  66.940   9.229  1.00  0.00     0.044 C 
HETATM   15  C1  UNL     1      -5.368  67.283   8.086  1.00  0.00     0.046 C 
HETATM   16  C3  UNL     1      -6.517  65.598   9.364  1.00  0.00     0.076 C 
ENDBRANCH  13  14
ENDBRANCH  11  13
ENDBRANCH   1  11
BRANCH   6  17
HETATM   17  N3  UNL     1      -5.586  69.930  16.185  1.00  0.00    -0.234 N 
ATOM     18  H32 UNL     1      -6.441  70.448  16.388  1.00  0.00     0.174 HD
ATOM     19  H31 UNL     1      -4.846  69.863  16.884  1.00  0.00     0.174 HD
ENDBRANCH   6  17
TORSDOF 4
ENDMDL
