MODEL 1
REMARK VINA RESULT: -8.519130905      0.000      0.000
REMARK  13 active torsions:
REMARK  status: ('A' for Active; 'I' for Inactive)
REMARK    1  A    between atoms: C2_2  and  C3_3 
REMARK    2  A    between atoms: C3_3  and  C4_4 
REMARK    3  A    between atoms: C4_4  and  C5_5 
REMARK    4  A    between atoms: C5_5  and  C6_6 
REMARK    5  A    between atoms: C6_6  and  O2_8 
REMARK    6  A    between atoms: O2_8  and  C7_9 
REMARK    7  A    between atoms: C9_11  and  O3_12 
REMARK    8  A    between atoms: C25_31  and  C26_32 
REMARK    9  A    between atoms: C26_32  and  C27_33 
REMARK   10  A    between atoms: C27_33  and  N1_34 
REMARK   11  A    between atoms: N1_34  and  C28_36 
REMARK   12  A    between atoms: C28_36  and  C29_37 
REMARK   13  A    between atoms: C29_37  and  N2_38 
ROOT
HETATM    1  C7  UNL     1       9.632  14.716   7.278  1.00  0.00     0.139 C 
HETATM    2  C8  UNL     1       8.488  15.681   7.176  1.00  0.00     0.065 C 
HETATM    3  C9  UNL     1       8.307  16.333   8.514  1.00  0.00     0.125 C 
HETATM    4  C10 UNL     1       8.961  15.545   9.635  1.00  0.00     0.027 C 
HETATM    5  C11 UNL     1       8.492  15.967  10.961  1.00  0.00    -0.002 C 
HETATM    6  C12 UNL     1       7.918  17.383  11.027  1.00  0.00     0.006 C 
HETATM    7  C13 UNL     1       7.233  17.509  12.403  1.00  0.00     0.007 C 
HETATM    8  C14 UNL     1       8.401  17.631  13.376  1.00  0.00     0.009 C 
HETATM    9  C15 UNL     1       7.825  17.734  14.765  1.00  0.00     0.092 C 
HETATM   10  C16 UNL     1       7.455  16.319  15.094  1.00  0.00     0.196 C 
HETATM   11  O4  UNL     1       6.753  16.019  16.091  1.00  0.00    -0.289 OA
HETATM   12  C17 UNL     1       8.044  15.451  14.084  1.00  0.00     0.203 C 
HETATM   13  O5  UNL     1       7.721  14.263  13.883  1.00  0.00    -0.288 OA
HETATM   14  C18 UNL     1       9.067  16.303  13.397  1.00  0.00     0.033 C 
HETATM   15  C19 UNL     1      10.260  16.378  14.328  1.00  0.00     0.025 C 
HETATM   16  C20 UNL     1       9.489  15.767  12.074  1.00  0.00     0.006 C 
HETATM   17  C21 UNL     1      10.827  16.344  11.748  1.00  0.00     0.007 C 
HETATM   18  C22 UNL     1      11.082  16.526  10.266  1.00  0.00     0.010 C 
HETATM   19  C23 UNL     1      10.473  15.432   9.445  1.00  0.00    -0.031 C 
HETATM   20  C24 UNL     1      10.896  14.085  10.025  1.00  0.00     0.016 C 
HETATM   21  C25 UNL     1      10.784  15.473   7.993  1.00  0.00     0.028 C 
ENDROOT
BRANCH  21  22
HETATM   22  C26 UNL     1      11.981  14.787   7.492  1.00  0.00     0.052 C 
BRANCH  22  23
HETATM   23  C27 UNL     1      13.293  15.535   7.492  1.00  0.00     0.060 C 
BRANCH  23  24
HETATM   24  N1  UNL     1      13.998  15.189   6.322  1.00  0.00    -0.381 N 
ATOM     25  H1  UNL     1      14.757  15.787   5.997  1.00  0.00     0.164 HD
BRANCH  24  26
HETATM   26  C28 UNL     1      13.669  14.033   5.596  1.00  0.00     0.087 C 
BRANCH  26  27
HETATM   27  C29 UNL     1      13.276  14.323   4.181  1.00  0.00     0.274 C 
BRANCH  27  28
HETATM   28  N2  UNL     1      13.669  15.585   3.662  1.00  0.00    -0.075 N 
ATOM     29  H23 UNL     1      13.189  16.329   4.167  1.00  0.00     0.274 HD
ATOM     30  H22 UNL     1      14.636  15.777   3.921  1.00  0.00     0.274 HD
ATOM     31  H21 UNL     1      13.550  15.719   2.657  1.00  0.00     0.274 HD
ENDBRANCH  27  28
ENDBRANCH  26  27
ENDBRANCH  24  26
ENDBRANCH  23  24
ENDBRANCH  22  23
ENDBRANCH  21  22
BRANCH   1  32
HETATM   32  O2  UNL     1      10.045  14.459   5.947  1.00  0.00    -0.316 OA
BRANCH  32  33
HETATM   33  C6  UNL     1       9.421  14.980   4.825  1.00  0.00     0.259 C 
HETATM   34  O1  UNL     1       8.704  14.210   4.147  1.00  0.00    -0.265 OA
BRANCH  33  35
HETATM   35  C5  UNL     1       9.583  16.396   4.422  1.00  0.00     0.111 C 
BRANCH  35  36
HETATM   36  C4  UNL     1       9.193  16.709   3.027  1.00  0.00     0.010 C 
BRANCH  36  37
HETATM   37  C3  UNL     1      10.277  16.709   2.009  1.00  0.00     0.000 C 
BRANCH  37  38
HETATM   38  C2  UNL     1       9.919  15.960   0.741  1.00  0.00    -0.005 C 
HETATM   39  C1  UNL     1      11.065  15.205   0.152  1.00  0.00     0.005 C 
ENDBRANCH  37  38
ENDBRANCH  36  37
ENDBRANCH  35  36
ENDBRANCH  33  35
ENDBRANCH  32  33
ENDBRANCH   1  32
BRANCH   3  40
HETATM   40  O3  UNL     1       8.716  17.633   8.424  1.00  0.00    -0.395 OA
ATOM     41  H3  UNL     1       9.506  17.739   8.940  1.00  0.00     0.210 HD
ENDBRANCH   3  40
TORSDOF 13
ENDMDL
MODEL 2
REMARK VINA RESULT: -8.346016052      3.261      9.160
REMARK  13 active torsions:
REMARK  status: ('A' for Active; 'I' for Inactive)
REMARK    1  A    between atoms: C2_2  and  C3_3 
REMARK    2  A    between atoms: C3_3  and  C4_4 
REMARK    3  A    between atoms: C4_4  and  C5_5 
REMARK    4  A    between atoms: C5_5  and  C6_6 
REMARK    5  A    between atoms: C6_6  and  O2_8 
REMARK    6  A    between atoms: O2_8  and  C7_9 
REMARK    7  A    between atoms: C9_11  and  O3_12 
REMARK    8  A    between atoms: C25_31  and  C26_32 
REMARK    9  A    between atoms: C26_32  and  C27_33 
REMARK   10  A    between atoms: C27_33  and  N1_34 
REMARK   11  A    between atoms: N1_34  and  C28_36 
REMARK   12  A    between atoms: C28_36  and  C29_37 
REMARK   13  A    between atoms: C29_37  and  N2_38 
ROOT
HETATM    1  C7  UNL     1       8.349  15.592  11.070  1.00  0.00     0.139 C 
HETATM    2  C8  UNL     1       9.655  15.906  11.739  1.00  0.00     0.065 C 
HETATM    3  C9  UNL     1      10.736  15.851  10.702  1.00  0.00     0.125 C 
HETATM    4  C10 UNL     1      10.312  15.080   9.465  1.00  0.00     0.027 C 
HETATM    5  C11 UNL     1      11.454  14.714   8.616  1.00  0.00    -0.002 C 
HETATM    6  C12 UNL     1      12.699  15.584   8.792  1.00  0.00     0.006 C 
HETATM    7  C13 UNL     1      13.840  14.863   8.047  1.00  0.00     0.007 C 
HETATM    8  C14 UNL     1      13.525  15.116   6.576  1.00  0.00     0.009 C 
HETATM    9  C15 UNL     1      14.582  14.419   5.760  1.00  0.00     0.092 C 
HETATM   10  C16 UNL     1      14.161  12.982   5.797  1.00  0.00     0.196 C 
HETATM   11  O4  UNL     1      14.903  12.049   5.400  1.00  0.00    -0.289 OA
HETATM   12  C17 UNL     1      12.814  12.919   6.348  1.00  0.00     0.203 C 
HETATM   13  O5  UNL     1      12.263  11.886   6.777  1.00  0.00    -0.288 OA
HETATM   14  C18 UNL     1      12.304  14.325   6.271  1.00  0.00     0.033 C 
HETATM   15  C19 UNL     1      11.925  14.567   4.824  1.00  0.00     0.025 C 
HETATM   16  C20 UNL     1      11.130  14.576   7.150  1.00  0.00     0.006 C 
HETATM   17  C21 UNL     1      10.399  15.763   6.616  1.00  0.00     0.007 C 
HETATM   18  C22 UNL     1       9.687  16.582   7.673  1.00  0.00     0.010 C 
HETATM   19  C23 UNL     1       9.120  15.732   8.767  1.00  0.00    -0.031 C 
HETATM   20  C24 UNL     1       8.297  14.607   8.143  1.00  0.00     0.016 C 
HETATM   21  C25 UNL     1       8.301  16.450   9.777  1.00  0.00     0.028 C 
ENDROOT
BRANCH  21  22
HETATM   22  C26 UNL     1       6.860  16.615   9.553  1.00  0.00     0.052 C 
BRANCH  22  23
HETATM   23  C27 UNL     1       6.315  18.009   9.354  1.00  0.00     0.060 C 
BRANCH  23  24
HETATM   24  N1  UNL     1       6.520  18.737  10.544  1.00  0.00    -0.381 N 
ATOM     25  H1  UNL     1       7.450  18.770  10.959  1.00  0.00     0.164 HD
BRANCH  24  26
HETATM   26  C28 UNL     1       5.460  19.416  11.165  1.00  0.00     0.087 C 
BRANCH  26  27
HETATM   27  C29 UNL     1       4.308  18.521  11.499  1.00  0.00     0.274 C 
BRANCH  27  28
HETATM   28  N2  UNL     1       4.554  17.505  12.460  1.00  0.00    -0.075 N 
ATOM     29  H23 UNL     1       4.671  17.924  13.382  1.00  0.00     0.274 HD
ATOM     30  H22 UNL     1       3.706  16.959  12.609  1.00  0.00     0.274 HD
ATOM     31  H21 UNL     1       5.336  16.878  12.267  1.00  0.00     0.274 HD
ENDBRANCH  27  28
ENDBRANCH  26  27
ENDBRANCH  24  26
ENDBRANCH  23  24
ENDBRANCH  22  23
ENDBRANCH  21  22
BRANCH   1  32
HETATM   32  O2  UNL     1       7.340  16.069  11.944  1.00  0.00    -0.316 OA
BRANCH  32  33
HETATM   33  C6  UNL     1       7.582  16.565  13.214  1.00  0.00     0.259 C 
HETATM   34  O1  UNL     1       7.624  17.808  13.355  1.00  0.00    -0.265 OA
BRANCH  33  35
HETATM   35  C5  UNL     1       7.788  15.675  14.379  1.00  0.00     0.111 C 
BRANCH  35  36
HETATM   36  C4  UNL     1       7.080  16.076  15.619  1.00  0.00     0.010 C 
BRANCH  36  37
HETATM   37  C3  UNL     1       7.915  16.610  16.727  1.00  0.00     0.000 C 
BRANCH  37  38
HETATM   38  C2  UNL     1       9.400  16.615  16.420  1.00  0.00    -0.005 C 
HETATM   39  C1  UNL     1      10.188  15.676  17.273  1.00  0.00     0.005 C 
ENDBRANCH  37  38
ENDBRANCH  36  37
ENDBRANCH  35  36
ENDBRANCH  33  35
ENDBRANCH  32  33
ENDBRANCH   1  32
BRANCH   3  40
HETATM   40  O3  UNL     1      11.167  17.123  10.454  1.00  0.00    -0.395 OA
ATOM     41  H3  UNL     1      10.413  17.665  10.256  1.00  0.00     0.210 HD
ENDBRANCH   3  40
TORSDOF 13
ENDMDL
MODEL 3
REMARK VINA RESULT: -8.343622927      2.200      2.948
REMARK  13 active torsions:
REMARK  status: ('A' for Active; 'I' for Inactive)
REMARK    1  A    between atoms: C2_2  and  C3_3 
REMARK    2  A    between atoms: C3_3  and  C4_4 
REMARK    3  A    between atoms: C4_4  and  C5_5 
REMARK    4  A    between atoms: C5_5  and  C6_6 
REMARK    5  A    between atoms: C6_6  and  O2_8 
REMARK    6  A    between atoms: O2_8  and  C7_9 
REMARK    7  A    between atoms: C9_11  and  O3_12 
REMARK    8  A    between atoms: C25_31  and  C26_32 
REMARK    9  A    between atoms: C26_32  and  C27_33 
REMARK   10  A    between atoms: C27_33  and  N1_34 
REMARK   11  A    between atoms: N1_34  and  C28_36 
REMARK   12  A    between atoms: C28_36  and  C29_37 
REMARK   13  A    between atoms: C29_37  and  N2_38 
ROOT
HETATM    1  C7  UNL     1       9.427  15.192   6.608  1.00  0.00     0.139 C 
HETATM    2  C8  UNL     1       8.853  16.339   5.829  1.00  0.00     0.065 C 
HETATM    3  C9  UNL     1       8.215  17.289   6.798  1.00  0.00     0.125 C 
HETATM    4  C10 UNL     1       7.925  16.639   8.139  1.00  0.00     0.027 C 
HETATM    5  C11 UNL     1       6.993  17.430   8.953  1.00  0.00    -0.002 C 
HETATM    6  C12 UNL     1       6.926  18.917   8.602  1.00  0.00     0.006 C 
HETATM    7  C13 UNL     1       5.706  19.484   9.356  1.00  0.00     0.007 C 
HETATM    8  C14 UNL     1       6.178  19.557  10.804  1.00  0.00     0.009 C 
HETATM    9  C15 UNL     1       5.032  20.080  11.629  1.00  0.00     0.092 C 
HETATM   10  C16 UNL     1       4.140  18.886  11.784  1.00  0.00     0.196 C 
HETATM   11  O4  UNL     1       2.972  18.970  12.240  1.00  0.00    -0.289 OA
HETATM   12  C17 UNL     1       4.871  17.712  11.326  1.00  0.00     0.203 C 
HETATM   13  O5  UNL     1       4.357  16.610  11.053  1.00  0.00    -0.288 OA
HETATM   14  C18 UNL     1       6.302  18.151  11.272  1.00  0.00     0.033 C 
HETATM   15  C19 UNL     1       6.803  18.164  12.702  1.00  0.00     0.025 C 
HETATM   16  C20 UNL     1       7.160  17.263  10.442  1.00  0.00     0.006 C 
HETATM   17  C21 UNL     1       8.576  17.450  10.879  1.00  0.00     0.007 C 
HETATM   18  C22 UNL     1       9.598  17.246   9.780  1.00  0.00     0.010 C 
HETATM   19  C23 UNL     1       9.203  16.160   8.829  1.00  0.00    -0.031 C 
HETATM   20  C24 UNL     1       8.837  14.911   9.627  1.00  0.00     0.016 C 
HETATM   21  C25 UNL     1      10.212  15.816   7.794  1.00  0.00     0.028 C 
ENDROOT
BRANCH  21  22
HETATM   22  C26 UNL     1      11.224  14.794   8.085  1.00  0.00     0.052 C 
BRANCH  22  23
HETATM   23  C27 UNL     1      12.658  15.230   8.266  1.00  0.00     0.060 C 
BRANCH  23  24
HETATM   24  N1  UNL     1      13.314  15.116   7.024  1.00  0.00    -0.381 N 
ATOM     25  H1  UNL     1      13.141  15.811   6.298  1.00  0.00     0.164 HD
BRANCH  24  26
HETATM   26  C28 UNL     1      14.204  14.059   6.773  1.00  0.00     0.087 C 
BRANCH  26  27
HETATM   27  C29 UNL     1      13.732  13.144   5.686  1.00  0.00     0.274 C 
BRANCH  27  28
HETATM   28  N2  UNL     1      12.627  12.309   5.998  1.00  0.00    -0.075 N 
ATOM     29  H23 UNL     1      12.772  11.383   5.597  1.00  0.00     0.274 HD
ATOM     30  H22 UNL     1      12.637  12.083   6.993  1.00  0.00     0.274 HD
ATOM     31  H21 UNL     1      11.705  12.657   5.734  1.00  0.00     0.274 HD
ENDBRANCH  27  28
ENDBRANCH  26  27
ENDBRANCH  24  26
ENDBRANCH  23  24
ENDBRANCH  22  23
ENDBRANCH  21  22
BRANCH   1  32
HETATM   32  O2  UNL     1      10.367  14.570   5.748  1.00  0.00    -0.316 OA
BRANCH  32  33
HETATM   33  C6  UNL     1      10.822  15.123   4.563  1.00  0.00     0.259 C 
HETATM   34  O1  UNL     1      11.822  15.873   4.617  1.00  0.00    -0.265 OA
BRANCH  33  35
HETATM   35  C5  UNL     1      10.163  14.852   3.265  1.00  0.00     0.111 C 
BRANCH  35  36
HETATM   36  C4  UNL     1       9.775  16.051   2.485  1.00  0.00     0.010 C 
BRANCH  36  37
HETATM   37  C3  UNL     1      10.159  16.072   1.049  1.00  0.00     0.000 C 
BRANCH  37  38
HETATM   38  C2  UNL     1      11.544  15.514   0.782  1.00  0.00    -0.005 C 
HETATM   39  C1  UNL     1      11.559  14.413  -0.226  1.00  0.00     0.005 C 
ENDBRANCH  37  38
ENDBRANCH  36  37
ENDBRANCH  35  36
ENDBRANCH  33  35
ENDBRANCH  32  33
ENDBRANCH   1  32
BRANCH   3  40
HETATM   40  O3  UNL     1       8.981  18.417   6.870  1.00  0.00    -0.395 OA
ATOM     41  H3  UNL     1       9.884  18.160   7.020  1.00  0.00     0.210 HD
ENDBRANCH   3  40
TORSDOF 13
ENDMDL
MODEL 4
REMARK VINA RESULT: -8.322723150      0.914      1.129
REMARK  13 active torsions:
REMARK  status: ('A' for Active; 'I' for Inactive)
REMARK    1  A    between atoms: C2_2  and  C3_3 
REMARK    2  A    between atoms: C3_3  and  C4_4 
REMARK    3  A    between atoms: C4_4  and  C5_5 
REMARK    4  A    between atoms: C5_5  and  C6_6 
REMARK    5  A    between atoms: C6_6  and  O2_8 
REMARK    6  A    between atoms: O2_8  and  C7_9 
REMARK    7  A    between atoms: C9_11  and  O3_12 
REMARK    8  A    between atoms: C25_31  and  C26_32 
REMARK    9  A    between atoms: C26_32  and  C27_33 
REMARK   10  A    between atoms: C27_33  and  N1_34 
REMARK   11  A    between atoms: N1_34  and  C28_36 
REMARK   12  A    between atoms: C28_36  and  C29_37 
REMARK   13  A    between atoms: C29_37  and  N2_38 
ROOT
HETATM    1  C7  UNL     1       9.165  15.076   7.480  1.00  0.00     0.139 C 
HETATM    2  C8  UNL     1       8.018  16.043   7.481  1.00  0.00     0.065 C 
HETATM    3  C9  UNL     1       7.917  16.646   8.851  1.00  0.00     0.125 C 
HETATM    4  C10 UNL     1       8.636  15.819   9.902  1.00  0.00     0.027 C 
HETATM    5  C11 UNL     1       8.247  16.192  11.268  1.00  0.00    -0.002 C 
HETATM    6  C12 UNL     1       7.679  17.604  11.419  1.00  0.00     0.006 C 
HETATM    7  C13 UNL     1       7.077  17.679  12.836  1.00  0.00     0.007 C 
HETATM    8  C14 UNL     1       8.300  17.767  13.743  1.00  0.00     0.009 C 
HETATM    9  C15 UNL     1       7.807  17.818  15.166  1.00  0.00     0.092 C 
HETATM   10  C16 UNL     1       7.457  16.392  15.464  1.00  0.00     0.196 C 
HETATM   11  O4  UNL     1       6.815  16.055  16.490  1.00  0.00    -0.289 OA
HETATM   12  C17 UNL     1       7.984  15.562  14.390  1.00  0.00     0.203 C 
HETATM   13  O5  UNL     1       7.648  14.382  14.167  1.00  0.00    -0.288 OA
HETATM   14  C18 UNL     1       8.965  16.439  13.676  1.00  0.00     0.033 C 
HETATM   15  C19 UNL     1      10.211  16.483  14.536  1.00  0.00     0.025 C 
HETATM   16  C20 UNL     1       9.308  15.953  12.312  1.00  0.00     0.006 C 
HETATM   17  C21 UNL     1      10.624  16.543  11.928  1.00  0.00     0.007 C 
HETATM   18  C22 UNL     1      10.791  16.779  10.441  1.00  0.00     0.010 C 
HETATM   19  C23 UNL     1      10.134  15.715   9.619  1.00  0.00    -0.031 C 
HETATM   20  C24 UNL     1      10.589  14.347  10.123  1.00  0.00     0.016 C 
HETATM   21  C25 UNL     1      10.358  15.808   8.153  1.00  0.00     0.028 C 
ENDROOT
BRANCH  21  22
HETATM   22  C26 UNL     1      11.523  15.143   7.558  1.00  0.00     0.052 C 
BRANCH  22  23
HETATM   23  C27 UNL     1      12.895  15.714   7.826  1.00  0.00     0.060 C 
BRANCH  23  24
HETATM   24  N1  UNL     1      13.821  15.042   7.004  1.00  0.00    -0.381 N 
ATOM     25  H1  UNL     1      14.817  15.107   7.211  1.00  0.00     0.164 HD
BRANCH  24  26
HETATM   26  C28 UNL     1      13.392  14.284   5.902  1.00  0.00     0.087 C 
BRANCH  26  27
HETATM   27  C29 UNL     1      13.819  12.852   5.975  1.00  0.00     0.274 C 
BRANCH  27  28
HETATM   28  N2  UNL     1      12.785  11.892   6.142  1.00  0.00    -0.075 N 
ATOM     29  H23 UNL     1      13.188  10.955   6.171  1.00  0.00     0.274 HD
ATOM     30  H22 UNL     1      12.403  11.959   7.085  1.00  0.00     0.274 HD
ATOM     31  H21 UNL     1      12.026  11.919   5.461  1.00  0.00     0.274 HD
ENDBRANCH  27  28
ENDBRANCH  26  27
ENDBRANCH  24  26
ENDBRANCH  23  24
ENDBRANCH  22  23
ENDBRANCH  21  22
BRANCH   1  32
HETATM   32  O2  UNL     1       9.498  14.869   6.119  1.00  0.00    -0.316 OA
BRANCH  32  33
HETATM   33  C6  UNL     1       9.406  15.843   5.139  1.00  0.00     0.259 C 
HETATM   34  O1  UNL     1       9.627  17.028   5.473  1.00  0.00    -0.265 OA
BRANCH  33  35
HETATM   35  C5  UNL     1       9.057  15.517   3.737  1.00  0.00     0.111 C 
BRANCH  35  36
HETATM   36  C4  UNL     1       9.119  16.652   2.785  1.00  0.00     0.010 C 
BRANCH  36  37
HETATM   37  C3  UNL     1      10.248  16.658   1.819  1.00  0.00     0.000 C 
BRANCH  37  38
HETATM   38  C2  UNL     1       9.954  15.906   0.536  1.00  0.00    -0.005 C 
HETATM   39  C1  UNL     1      11.110  15.103   0.038  1.00  0.00     0.005 C 
ENDBRANCH  37  38
ENDBRANCH  36  37
ENDBRANCH  35  36
ENDBRANCH  33  35
ENDBRANCH  32  33
ENDBRANCH   1  32
BRANCH   3  40
HETATM   40  O3  UNL     1       8.321  17.949   8.784  1.00  0.00    -0.395 OA
ATOM     41  H3  UNL     1       8.638  18.123   7.905  1.00  0.00     0.210 HD
ENDBRANCH   3  40
TORSDOF 13
ENDMDL
MODEL 5
REMARK VINA RESULT: -8.140566713      3.495      8.782
REMARK  13 active torsions:
REMARK  status: ('A' for Active; 'I' for Inactive)
REMARK    1  A    between atoms: C2_2  and  C3_3 
REMARK    2  A    between atoms: C3_3  and  C4_4 
REMARK    3  A    between atoms: C4_4  and  C5_5 
REMARK    4  A    between atoms: C5_5  and  C6_6 
REMARK    5  A    between atoms: C6_6  and  O2_8 
REMARK    6  A    between atoms: O2_8  and  C7_9 
REMARK    7  A    between atoms: C9_11  and  O3_12 
REMARK    8  A    between atoms: C25_31  and  C26_32 
REMARK    9  A    between atoms: C26_32  and  C27_33 
REMARK   10  A    between atoms: C27_33  and  N1_34 
REMARK   11  A    between atoms: N1_34  and  C28_36 
REMARK   12  A    between atoms: C28_36  and  C29_37 
REMARK   13  A    between atoms: C29_37  and  N2_38 
ROOT
HETATM    1  C7  UNL     1       7.971  16.789  11.283  1.00  0.00     0.139 C 
HETATM    2  C8  UNL     1       9.267  17.451  11.647  1.00  0.00     0.065 C 
HETATM    3  C9  UNL     1      10.274  17.121  10.586  1.00  0.00     0.125 C 
HETATM    4  C10 UNL     1       9.871  15.912   9.761  1.00  0.00     0.027 C 
HETATM    5  C11 UNL     1      10.990  15.371   8.979  1.00  0.00    -0.002 C 
HETATM    6  C12 UNL     1      12.121  16.360   8.694  1.00  0.00     0.006 C 
HETATM    7  C13 UNL     1      13.292  15.528   8.134  1.00  0.00     0.007 C 
HETATM    8  C14 UNL     1      12.848  15.190   6.715  1.00  0.00     0.009 C 
HETATM    9  C15 UNL     1      13.929  14.346   6.091  1.00  0.00     0.092 C 
HETATM   10  C16 UNL     1      13.701  12.990   6.686  1.00  0.00     0.196 C 
HETATM   11  O4  UNL     1      14.529  12.053   6.569  1.00  0.00    -0.289 OA
HETATM   12  C17 UNL     1      12.414  13.006   7.368  1.00  0.00     0.203 C 
HETATM   13  O5  UNL     1      12.032  12.156   8.196  1.00  0.00    -0.288 OA
HETATM   14  C18 UNL     1      11.722  14.229   6.850  1.00  0.00     0.033 C 
HETATM   15  C19 UNL     1      11.218  13.884   5.463  1.00  0.00     0.025 C 
HETATM   16  C20 UNL     1      10.588  14.673   7.705  1.00  0.00     0.006 C 
HETATM   17  C21 UNL     1       9.675  15.504   6.866  1.00  0.00     0.007 C 
HETATM   18  C22 UNL     1       8.936  16.582   7.631  1.00  0.00     0.010 C 
HETATM   19  C23 UNL     1       8.559  16.144   9.012  1.00  0.00    -0.031 C 
HETATM   20  C24 UNL     1       7.849  14.795   8.926  1.00  0.00     0.016 C 
HETATM   21  C25 UNL     1       7.724  17.102   9.782  1.00  0.00     0.028 C 
ENDROOT
BRANCH  21  22
HETATM   22  C26 UNL     1       6.262  17.033   9.674  1.00  0.00     0.052 C 
BRANCH  22  23
HETATM   23  C27 UNL     1       5.590  17.748   8.527  1.00  0.00     0.060 C 
BRANCH  23  24
HETATM   24  N1  UNL     1       4.916  18.874   9.042  1.00  0.00    -0.381 N 
ATOM     25  H1  UNL     1       3.897  18.885   9.060  1.00  0.00     0.164 HD
BRANCH  24  26
HETATM   26  C28 UNL     1       5.629  19.980   9.531  1.00  0.00     0.087 C 
BRANCH  26  27
HETATM   27  C29 UNL     1       5.274  20.328  10.943  1.00  0.00     0.274 C 
BRANCH  27  28
HETATM   28  N2  UNL     1       4.566  19.341  11.678  1.00  0.00    -0.075 N 
ATOM     29  H23 UNL     1       4.523  18.476  11.140  1.00  0.00     0.274 HD
ATOM     30  H22 UNL     1       5.126  19.037  12.474  1.00  0.00     0.274 HD
ATOM     31  H21 UNL     1       3.629  19.594  11.994  1.00  0.00     0.274 HD
ENDBRANCH  27  28
ENDBRANCH  26  27
ENDBRANCH  24  26
ENDBRANCH  23  24
ENDBRANCH  22  23
ENDBRANCH  21  22
BRANCH   1  32
HETATM   32  O2  UNL     1       6.970  17.455  12.033  1.00  0.00    -0.316 OA
BRANCH  32  33
HETATM   33  C6  UNL     1       7.084  17.765  13.378  1.00  0.00     0.259 C 
HETATM   34  O1  UNL     1       7.041  18.974  13.702  1.00  0.00    -0.265 OA
BRANCH  33  35
HETATM   35  C5  UNL     1       7.253  16.721  14.415  1.00  0.00     0.111 C 
BRANCH  35  36
HETATM   36  C4  UNL     1       7.686  17.210  15.746  1.00  0.00     0.010 C 
BRANCH  36  37
HETATM   37  C3  UNL     1       9.148  17.225  16.014  1.00  0.00     0.000 C 
BRANCH  37  38
HETATM   38  C2  UNL     1       9.870  15.989  15.515  1.00  0.00    -0.005 C 
HETATM   39  C1  UNL     1      10.880  16.276  14.453  1.00  0.00     0.005 C 
ENDBRANCH  37  38
ENDBRANCH  36  37
ENDBRANCH  35  36
ENDBRANCH  33  35
ENDBRANCH  32  33
ENDBRANCH   1  32
BRANCH   3  40
HETATM   40  O3  UNL     1      10.519  18.248   9.854  1.00  0.00    -0.395 OA
ATOM     41  H3  UNL     1      11.047  18.011   9.100  1.00  0.00     0.210 HD
ENDBRANCH   3  40
TORSDOF 13
ENDMDL
