MODEL 1
REMARK VINA RESULT: -7.830610114      0.000      0.000
REMARK  13 active torsions:
REMARK  status: ('A' for Active; 'I' for Inactive)
REMARK    1  A    between atoms: C2_2  and  N1_3 
REMARK    2  A    between atoms: N1_3  and  C3_4 
REMARK       I    between atoms: N1_3  and  C6_8 
REMARK    3  A    between atoms: C3_4  and  C4_5 
REMARK    4  A    between atoms: C4_5  and  O1_6 
REMARK    5  A    between atoms: C6_8  and  C7_10 
REMARK    6  A    between atoms: C8_11  and  C9_12 
REMARK    7  A    between atoms: C9_12  and  C10_13 
REMARK    8  A    between atoms: C9_12  and  N2_16 
REMARK    9  A    between atoms: C23_36  and  C24_37 
REMARK   10  A    between atoms: C25_38  and  C26_39 
REMARK   11  A    between atoms: C26_39  and  C27_40 
REMARK   12  A    between atoms: C27_40  and  N4_41 
REMARK   13  A    between atoms: N4_41  and  C28_43 
ROOT
HETATM    1  N2  UNL     1       5.356   1.368  12.380  1.00  0.00    -0.302 N 
HETATM    2  C11 UNL     1       6.438   1.288  13.280  1.00  0.00     0.239 C 
HETATM    3  O5  UNL     1       7.333   2.135  13.538  1.00  0.00    -0.272 OA
HETATM    4  C12 UNL     1       6.421  -0.048  13.979  1.00  0.00     0.186 C 
HETATM    5  C13 UNL     1       7.450  -0.955  13.407  1.00  0.00     0.232 C 
HETATM    6  O6  UNL     1       7.357  -1.068  12.134  1.00  0.00    -0.273 OA
HETATM    7  N3  UNL     1       8.455  -1.659  14.057  1.00  0.00    -0.354 N 
ATOM      8  H3  UNL     1       9.400  -1.471  13.722  1.00  0.00     0.162 HD
HETATM    9  C14 UNL     1       8.369  -2.621  15.139  1.00  0.00     0.099 C 
HETATM   10  C15 UNL     1       9.730  -3.292  15.313  1.00  0.00     0.037 C 
HETATM   11  C16 UNL     1       9.853  -4.066  16.604  1.00  0.00     0.088 C 
HETATM   12  S1  UNL     1       9.284  -5.758  16.127  1.00  0.00    -0.097 SA
HETATM   13  S2  UNL     1       7.981  -5.283  14.462  1.00  0.00    -0.091 SA
HETATM   14  C17 UNL     1       7.286  -3.639  14.950  1.00  0.00     0.081 C 
HETATM   15  C18 UNL     1       6.491  -3.962  16.184  1.00  0.00     0.018 C 
HETATM   16  C19 UNL     1       5.908  -2.821  16.914  1.00  0.00     0.002 C 
HETATM   17  C20 UNL     1       4.406  -2.806  16.981  1.00  0.00     0.010 C 
HETATM   18  C21 UNL     1       3.751  -2.327  15.718  1.00  0.00     0.074 C 
HETATM   19  S3  UNL     1       4.141  -0.595  15.364  1.00  0.00    -0.161 SA
HETATM   20  C22 UNL     1       5.019  -0.505  13.789  1.00  0.00     0.096 C 
HETATM   21  C23 UNL     1       4.326   0.415  12.807  1.00  0.00     0.131 C 
ENDROOT
BRANCH   1  22
HETATM   22  C9  UNL     1       5.260   2.260  11.216  1.00  0.00     0.115 C 
BRANCH  22  23
HETATM   23  C8  UNL     1       6.386   2.112  10.298  1.00  0.00     0.042 C 
HETATM   24  C7  UNL     1       6.732   2.977   9.197  1.00  0.00     0.077 C 
BRANCH  24  25
HETATM   25  C6  UNL     1       5.891   3.194   8.037  1.00  0.00     0.243 C 
HETATM   26  N1  UNL     1       6.154   2.566   6.758  1.00  0.00    -0.347 N 
HETATM   27  O2  UNL     1       4.891   3.918   8.038  1.00  0.00    -0.268 OA
BRANCH  26  28
HETATM   28  C2  UNL     1       5.297   2.769   5.619  1.00  0.00     0.121 C 
HETATM   29  C1  UNL     1       5.778   3.866   4.697  1.00  0.00     0.026 C 
ENDBRANCH  26  28
BRANCH  26  30
HETATM   30  C3  UNL     1       7.320   1.725   6.630  1.00  0.00     0.152 C 
BRANCH  30  31
HETATM   31  C4  UNL     1       7.047   0.605   5.657  1.00  0.00     0.186 C 
BRANCH  31  32
HETATM   32  O1  UNL     1       8.163   0.338   4.877  1.00  0.00    -0.394 OA
HETATM   33  C5  UNL     1       8.607   1.406   4.127  1.00  0.00     0.201 C 
ENDBRANCH  31  32
ENDBRANCH  30  31
ENDBRANCH  26  30
ENDBRANCH  24  25
ENDBRANCH  22  23
BRANCH  22  34
HETATM   34  C10 UNL     1       4.786   3.586  11.605  1.00  0.00     0.227 C 
HETATM   35  O3  UNL     1       3.603   3.791  11.906  1.00  0.00    -0.643 OA
HETATM   36  O4  UNL     1       5.671   4.647  11.634  1.00  0.00    -0.643 OA
ENDBRANCH  22  34
ENDBRANCH   1  22
BRANCH  21  37
HETATM   37  C24 UNL     1       3.889  -0.362  11.624  1.00  0.00    -0.004 C 
HETATM   38  C25 UNL     1       2.646  -0.439  11.219  1.00  0.00    -0.027 C 
BRANCH  38  39
HETATM   39  C26 UNL     1       1.539   0.246  11.899  1.00  0.00     0.046 C 
BRANCH  39  40
HETATM   40  C27 UNL     1       0.678   0.968  10.878  1.00  0.00     0.125 C 
BRANCH  40  41
HETATM   41  N4  UNL     1       1.500   1.968  10.232  1.00  0.00    -0.369 N 
ATOM     42  H4  UNL     1       2.464   1.742   9.986  1.00  0.00     0.161 HD
BRANCH  41  43
HETATM   43  C28 UNL     1       0.993   3.250   9.935  1.00  0.00     0.180 C 
HETATM   44  N5  UNL     1       0.471   4.033  11.010  1.00  0.00    -0.070 NA
HETATM   45  S4  UNL     1       1.014   3.805   8.398  1.00  0.00    -0.044 SA
ENDBRANCH  41  43
ENDBRANCH  40  41
ENDBRANCH  39  40
ENDBRANCH  38  39
ENDBRANCH  21  37
TORSDOF 13
ENDMDL
MODEL 2
REMARK VINA RESULT: -7.746136462      1.195      1.890
REMARK  13 active torsions:
REMARK  status: ('A' for Active; 'I' for Inactive)
REMARK    1  A    between atoms: C2_2  and  N1_3 
REMARK    2  A    between atoms: N1_3  and  C3_4 
REMARK       I    between atoms: N1_3  and  C6_8 
REMARK    3  A    between atoms: C3_4  and  C4_5 
REMARK    4  A    between atoms: C4_5  and  O1_6 
REMARK    5  A    between atoms: C6_8  and  C7_10 
REMARK    6  A    between atoms: C8_11  and  C9_12 
REMARK    7  A    between atoms: C9_12  and  C10_13 
REMARK    8  A    between atoms: C9_12  and  N2_16 
REMARK    9  A    between atoms: C23_36  and  C24_37 
REMARK   10  A    between atoms: C25_38  and  C26_39 
REMARK   11  A    between atoms: C26_39  and  C27_40 
REMARK   12  A    between atoms: C27_40  and  N4_41 
REMARK   13  A    between atoms: N4_41  and  C28_43 
ROOT
HETATM    1  N2  UNL     1       5.810   1.619  12.266  1.00  0.00    -0.302 N 
HETATM    2  C11 UNL     1       6.866   1.460  13.185  1.00  0.00     0.239 C 
HETATM    3  O5  UNL     1       7.830   2.227  13.445  1.00  0.00    -0.272 OA
HETATM    4  C12 UNL     1       6.720   0.142  13.905  1.00  0.00     0.186 C 
HETATM    5  C13 UNL     1       7.673  -0.862  13.364  1.00  0.00     0.232 C 
HETATM    6  O6  UNL     1       7.589  -0.988  12.092  1.00  0.00    -0.273 OA
HETATM    7  N3  UNL     1       8.601  -1.642  14.042  1.00  0.00    -0.354 N 
ATOM      8  H3  UNL     1       9.564  -1.545  13.720  1.00  0.00     0.162 HD
HETATM    9  C14 UNL     1       8.413  -2.573  15.137  1.00  0.00     0.099 C 
HETATM   10  C15 UNL     1       9.706  -3.360  15.345  1.00  0.00     0.037 C 
HETATM   11  C16 UNL     1       9.741  -4.119  16.649  1.00  0.00     0.088 C 
HETATM   12  S1  UNL     1       9.030  -5.762  16.189  1.00  0.00    -0.097 SA
HETATM   13  S2  UNL     1       7.800  -5.202  14.496  1.00  0.00    -0.091 SA
HETATM   14  C17 UNL     1       7.247  -3.494  14.946  1.00  0.00     0.081 C 
HETATM   15  C18 UNL     1       6.408  -3.724  16.172  1.00  0.00     0.018 C 
HETATM   16  C19 UNL     1       5.918  -2.524  16.875  1.00  0.00     0.002 C 
HETATM   17  C20 UNL     1       4.423  -2.373  16.916  1.00  0.00     0.010 C 
HETATM   18  C21 UNL     1       3.832  -1.861  15.636  1.00  0.00     0.074 C 
HETATM   19  S3  UNL     1       4.380  -0.176  15.261  1.00  0.00    -0.161 SA
HETATM   20  C22 UNL     1       5.286  -0.192  13.699  1.00  0.00     0.096 C 
HETATM   21  C23 UNL     1       4.692   0.769  12.692  1.00  0.00     0.131 C 
ENDROOT
BRANCH   1  22
HETATM   22  C9  UNL     1       5.811   2.496  11.087  1.00  0.00     0.115 C 
BRANCH  22  23
HETATM   23  C8  UNL     1       7.052   2.410  10.323  1.00  0.00     0.042 C 
HETATM   24  C7  UNL     1       7.308   2.960   9.014  1.00  0.00     0.077 C 
BRANCH  24  25
HETATM   25  C6  UNL     1       6.608   2.559   7.811  1.00  0.00     0.243 C 
HETATM   26  N1  UNL     1       5.649   3.418   7.146  1.00  0.00    -0.347 N 
HETATM   27  O2  UNL     1       6.768   1.469   7.252  1.00  0.00    -0.268 OA
BRANCH  26  28
HETATM   28  C2  UNL     1       4.979   3.018   5.936  1.00  0.00     0.121 C 
HETATM   29  C1  UNL     1       3.563   3.540   5.837  1.00  0.00     0.026 C 
ENDBRANCH  26  28
BRANCH  26  30
HETATM   30  C3  UNL     1       5.355   4.705   7.730  1.00  0.00     0.152 C 
BRANCH  30  31
HETATM   31  C4  UNL     1       6.186   5.777   7.070  1.00  0.00     0.186 C 
BRANCH  31  32
HETATM   32  O1  UNL     1       7.035   6.384   7.983  1.00  0.00    -0.394 OA
HETATM   33  C5  UNL     1       8.366   6.371   7.625  1.00  0.00     0.201 C 
ENDBRANCH  31  32
ENDBRANCH  30  31
ENDBRANCH  26  30
ENDBRANCH  24  25
ENDBRANCH  22  23
BRANCH  22  34
HETATM   34  C10 UNL     1       5.214   3.794  11.394  1.00  0.00     0.227 C 
HETATM   35  O3  UNL     1       3.990   3.975  11.344  1.00  0.00    -0.643 OA
HETATM   36  O4  UNL     1       6.027   4.856  11.743  1.00  0.00    -0.643 OA
ENDBRANCH  22  34
ENDBRANCH   1  22
BRANCH  21  37
HETATM   37  C24 UNL     1       4.206   0.014  11.514  1.00  0.00    -0.004 C 
HETATM   38  C25 UNL     1       2.945  -0.263  11.294  1.00  0.00    -0.027 C 
BRANCH  38  39
HETATM   39  C26 UNL     1       1.865   0.151  12.200  1.00  0.00     0.046 C 
BRANCH  39  40
HETATM   40  C27 UNL     1       0.682   0.653  11.390  1.00  0.00     0.125 C 
BRANCH  40  41
HETATM   41  N4  UNL     1       1.193   1.514  10.345  1.00  0.00    -0.369 N 
ATOM     42  H4  UNL     1       1.806   1.124   9.630  1.00  0.00     0.161 HD
BRANCH  41  43
HETATM   43  C28 UNL     1       0.859   2.884  10.298  1.00  0.00     0.180 C 
HETATM   44  N5  UNL     1       0.521   3.537  11.523  1.00  0.00    -0.070 NA
HETATM   45  S4  UNL     1       0.865   3.681   8.871  1.00  0.00    -0.044 SA
ENDBRANCH  41  43
ENDBRANCH  40  41
ENDBRANCH  39  40
ENDBRANCH  38  39
ENDBRANCH  21  37
TORSDOF 13
ENDMDL
MODEL 3
REMARK VINA RESULT: -7.716991557      1.097      2.099
REMARK  13 active torsions:
REMARK  status: ('A' for Active; 'I' for Inactive)
REMARK    1  A    between atoms: C2_2  and  N1_3 
REMARK    2  A    between atoms: N1_3  and  C3_4 
REMARK       I    between atoms: N1_3  and  C6_8 
REMARK    3  A    between atoms: C3_4  and  C4_5 
REMARK    4  A    between atoms: C4_5  and  O1_6 
REMARK    5  A    between atoms: C6_8  and  C7_10 
REMARK    6  A    between atoms: C8_11  and  C9_12 
REMARK    7  A    between atoms: C9_12  and  C10_13 
REMARK    8  A    between atoms: C9_12  and  N2_16 
REMARK    9  A    between atoms: C23_36  and  C24_37 
REMARK   10  A    between atoms: C25_38  and  C26_39 
REMARK   11  A    between atoms: C26_39  and  C27_40 
REMARK   12  A    between atoms: C27_40  and  N4_41 
REMARK   13  A    between atoms: N4_41  and  C28_43 
ROOT
HETATM    1  N2  UNL     1       5.813   1.507  12.301  1.00  0.00    -0.302 N 
HETATM    2  C11 UNL     1       6.862   1.367  13.231  1.00  0.00     0.239 C 
HETATM    3  O5  UNL     1       7.810   2.151  13.500  1.00  0.00    -0.272 OA
HETATM    4  C12 UNL     1       6.731   0.047  13.950  1.00  0.00     0.186 C 
HETATM    5  C13 UNL     1       7.707  -0.941  13.421  1.00  0.00     0.232 C 
HETATM    6  O6  UNL     1       7.638  -1.070  12.148  1.00  0.00    -0.273 OA
HETATM    7  N3  UNL     1       8.641  -1.704  14.110  1.00  0.00    -0.354 N 
ATOM      8  H3  UNL     1       9.605  -1.590  13.798  1.00  0.00     0.162 HD
HETATM    9  C14 UNL     1       8.457  -2.637  15.205  1.00  0.00     0.099 C 
HETATM   10  C15 UNL     1       9.761  -3.401  15.426  1.00  0.00     0.037 C 
HETATM   11  C16 UNL     1       9.796  -4.158  16.732  1.00  0.00     0.088 C 
HETATM   12  S1  UNL     1       9.118  -5.813  16.267  1.00  0.00    -0.097 SA
HETATM   13  S2  UNL     1       7.896  -5.276  14.560  1.00  0.00    -0.091 SA
HETATM   14  C17 UNL     1       7.309  -3.578  15.002  1.00  0.00     0.081 C 
HETATM   15  C18 UNL     1       6.461  -3.821  16.219  1.00  0.00     0.018 C 
HETATM   16  C19 UNL     1       5.943  -2.629  16.915  1.00  0.00     0.002 C 
HETATM   17  C20 UNL     1       4.446  -2.504  16.941  1.00  0.00     0.010 C 
HETATM   18  C21 UNL     1       3.859  -2.003  15.653  1.00  0.00     0.074 C 
HETATM   19  S3  UNL     1       4.383  -0.309  15.282  1.00  0.00    -0.161 SA
HETATM   20  C22 UNL     1       5.305  -0.311  13.730  1.00  0.00     0.096 C 
HETATM   21  C23 UNL     1       4.706   0.638  12.715  1.00  0.00     0.131 C 
ENDROOT
BRANCH   1  22
HETATM   22  C9  UNL     1       5.812   2.382  11.120  1.00  0.00     0.115 C 
BRANCH  22  23
HETATM   23  C8  UNL     1       7.055   2.303  10.359  1.00  0.00     0.042 C 
HETATM   24  C7  UNL     1       7.334   2.912   9.081  1.00  0.00     0.077 C 
BRANCH  24  25
HETATM   25  C6  UNL     1       6.631   2.591   7.856  1.00  0.00     0.243 C 
HETATM   26  N1  UNL     1       5.770   3.542   7.182  1.00  0.00    -0.347 N 
HETATM   27  O2  UNL     1       6.707   1.499   7.284  1.00  0.00    -0.268 OA
BRANCH  26  28
HETATM   28  C2  UNL     1       5.096   3.220   5.950  1.00  0.00     0.121 C 
HETATM   29  C1  UNL     1       5.665   3.943   4.751  1.00  0.00     0.026 C 
ENDBRANCH  26  28
BRANCH  26  30
HETATM   30  C3  UNL     1       5.577   4.842   7.779  1.00  0.00     0.152 C 
BRANCH  30  31
HETATM   31  C4  UNL     1       4.105   5.110   7.973  1.00  0.00     0.186 C 
BRANCH  31  32
HETATM   32  O1  UNL     1       3.766   6.378   7.524  1.00  0.00    -0.394 OA
HETATM   33  C5  UNL     1       3.047   6.397   6.348  1.00  0.00     0.201 C 
ENDBRANCH  31  32
ENDBRANCH  30  31
ENDBRANCH  26  30
ENDBRANCH  24  25
ENDBRANCH  22  23
BRANCH  22  34
HETATM   34  C10 UNL     1       5.206   3.677  11.424  1.00  0.00     0.227 C 
HETATM   35  O3  UNL     1       3.981   3.849  11.378  1.00  0.00    -0.643 OA
HETATM   36  O4  UNL     1       6.013   4.746  11.767  1.00  0.00    -0.643 OA
ENDBRANCH  22  34
ENDBRANCH   1  22
BRANCH  21  37
HETATM   37  C24 UNL     1       4.245  -0.126  11.534  1.00  0.00    -0.004 C 
HETATM   38  C25 UNL     1       2.986  -0.365  11.263  1.00  0.00    -0.027 C 
BRANCH  38  39
HETATM   39  C26 UNL     1       1.883   0.107  12.111  1.00  0.00     0.046 C 
BRANCH  39  40
HETATM   40  C27 UNL     1       0.837   0.798  11.253  1.00  0.00     0.125 C 
BRANCH  40  41
HETATM   41  N4  UNL     1       1.506   1.818  10.474  1.00  0.00    -0.369 N 
ATOM     42  H4  UNL     1       2.416   1.615  10.060  1.00  0.00     0.161 HD
BRANCH  41  43
HETATM   43  C28 UNL     1       0.923   3.087  10.277  1.00  0.00     0.180 C 
HETATM   44  N5  UNL     1       0.491   3.815  11.427  1.00  0.00    -0.070 NA
HETATM   45  S4  UNL     1       0.757   3.687   8.766  1.00  0.00    -0.044 SA
ENDBRANCH  41  43
ENDBRANCH  40  41
ENDBRANCH  39  40
ENDBRANCH  38  39
ENDBRANCH  21  37
TORSDOF 13
ENDMDL
MODEL 4
REMARK VINA RESULT: -7.511424728      0.930      1.006
REMARK  13 active torsions:
REMARK  status: ('A' for Active; 'I' for Inactive)
REMARK    1  A    between atoms: C2_2  and  N1_3 
REMARK    2  A    between atoms: N1_3  and  C3_4 
REMARK       I    between atoms: N1_3  and  C6_8 
REMARK    3  A    between atoms: C3_4  and  C4_5 
REMARK    4  A    between atoms: C4_5  and  O1_6 
REMARK    5  A    between atoms: C6_8  and  C7_10 
REMARK    6  A    between atoms: C8_11  and  C9_12 
REMARK    7  A    between atoms: C9_12  and  C10_13 
REMARK    8  A    between atoms: C9_12  and  N2_16 
REMARK    9  A    between atoms: C23_36  and  C24_37 
REMARK   10  A    between atoms: C25_38  and  C26_39 
REMARK   11  A    between atoms: C26_39  and  C27_40 
REMARK   12  A    between atoms: C27_40  and  N4_41 
REMARK   13  A    between atoms: N4_41  and  C28_43 
ROOT
HETATM    1  N2  UNL     1       5.546   1.709  12.186  1.00  0.00    -0.302 N 
HETATM    2  C11 UNL     1       6.649   1.569  13.053  1.00  0.00     0.239 C 
HETATM    3  O5  UNL     1       7.617   2.349  13.256  1.00  0.00    -0.272 OA
HETATM    4  C12 UNL     1       6.551   0.259  13.793  1.00  0.00     0.186 C 
HETATM    5  C13 UNL     1       7.486  -0.743  13.217  1.00  0.00     0.232 C 
HETATM    6  O6  UNL     1       7.340  -0.884  11.952  1.00  0.00    -0.273 OA
HETATM    7  N3  UNL     1       8.454  -1.506  13.856  1.00  0.00    -0.354 N 
ATOM      8  H3  UNL     1       9.399  -1.404  13.486  1.00  0.00     0.162 HD
HETATM    9  C14 UNL     1       8.330  -2.427  14.970  1.00  0.00     0.099 C 
HETATM   10  C15 UNL     1       9.639  -3.199  15.121  1.00  0.00     0.037 C 
HETATM   11  C16 UNL     1       9.746  -3.943  16.431  1.00  0.00     0.088 C 
HETATM   12  S1  UNL     1       9.029  -5.597  16.025  1.00  0.00    -0.097 SA
HETATM   13  S2  UNL     1       7.711  -5.068  14.389  1.00  0.00    -0.091 SA
HETATM   14  C17 UNL     1       7.165  -3.360  14.847  1.00  0.00     0.081 C 
HETATM   15  C18 UNL     1       6.389  -3.584  16.116  1.00  0.00     0.018 C 
HETATM   16  C19 UNL     1       5.923  -2.380  16.829  1.00  0.00     0.002 C 
HETATM   17  C20 UNL     1       4.431  -2.243  16.943  1.00  0.00     0.010 C 
HETATM   18  C21 UNL     1       3.772  -1.750  15.688  1.00  0.00     0.074 C 
HETATM   19  S3  UNL     1       4.285  -0.065  15.268  1.00  0.00    -0.161 SA
HETATM   20  C22 UNL     1       5.112  -0.090  13.663  1.00  0.00     0.096 C 
HETATM   21  C23 UNL     1       4.460   0.854  12.676  1.00  0.00     0.131 C 
ENDROOT
BRANCH   1  22
HETATM   22  C9  UNL     1       5.480   2.572  10.999  1.00  0.00     0.115 C 
BRANCH  22  23
HETATM   23  C8  UNL     1       6.644   2.424  10.129  1.00  0.00     0.042 C 
HETATM   24  C7  UNL     1       7.394   3.478   9.491  1.00  0.00     0.077 C 
BRANCH  24  25
HETATM   25  C6  UNL     1       6.845   4.384   8.502  1.00  0.00     0.243 C 
HETATM   26  N1  UNL     1       6.881   4.099   7.082  1.00  0.00    -0.347 N 
HETATM   27  O2  UNL     1       6.302   5.458   8.779  1.00  0.00    -0.268 OA
BRANCH  26  28
HETATM   28  C2  UNL     1       6.309   4.995   6.111  1.00  0.00     0.121 C 
HETATM   29  C1  UNL     1       7.344   5.795   5.352  1.00  0.00     0.026 C 
ENDBRANCH  26  28
BRANCH  26  30
HETATM   30  C3  UNL     1       7.524   2.886   6.638  1.00  0.00     0.152 C 
BRANCH  30  31
HETATM   31  C4  UNL     1       6.496   1.918   6.107  1.00  0.00     0.186 C 
BRANCH  31  32
HETATM   32  O1  UNL     1       6.935   0.608   6.227  1.00  0.00    -0.394 OA
HETATM   33  C5  UNL     1       7.868   0.227   5.287  1.00  0.00     0.201 C 
ENDBRANCH  31  32
ENDBRANCH  30  31
ENDBRANCH  26  30
ENDBRANCH  24  25
ENDBRANCH  22  23
BRANCH  22  34
HETATM   34  C10 UNL     1       4.969   3.898  11.338  1.00  0.00     0.227 C 
HETATM   35  O3  UNL     1       3.805   4.232  11.079  1.00  0.00    -0.643 OA
HETATM   36  O4  UNL     1       5.798   4.814  11.958  1.00  0.00    -0.643 OA
ENDBRANCH  22  34
ENDBRANCH   1  22
BRANCH  21  37
HETATM   37  C24 UNL     1       3.923   0.081  11.532  1.00  0.00    -0.004 C 
HETATM   38  C25 UNL     1       2.662  -0.246  11.399  1.00  0.00    -0.027 C 
BRANCH  38  39
HETATM   39  C26 UNL     1       1.632   0.124  12.380  1.00  0.00     0.046 C 
BRANCH  39  40
HETATM   40  C27 UNL     1       0.382   0.594  11.656  1.00  0.00     0.125 C 
BRANCH  40  41
HETATM   41  N4  UNL     1       0.799   1.363  10.504  1.00  0.00    -0.369 N 
ATOM     42  H4  UNL     1       1.194   0.882   9.696  1.00  0.00     0.161 HD
BRANCH  41  43
HETATM   43  C28 UNL     1       0.669   2.767  10.476  1.00  0.00     0.180 C 
HETATM   44  N5  UNL     1       0.427   3.446  11.709  1.00  0.00    -0.070 NA
HETATM   45  S4  UNL     1       0.796   3.575   9.061  1.00  0.00    -0.044 SA
ENDBRANCH  41  43
ENDBRANCH  40  41
ENDBRANCH  39  40
ENDBRANCH  38  39
ENDBRANCH  21  37
TORSDOF 13
ENDMDL
MODEL 5
REMARK VINA RESULT: -7.286513936      3.777     10.493
REMARK  13 active torsions:
REMARK  status: ('A' for Active; 'I' for Inactive)
REMARK    1  A    between atoms: C2_2  and  N1_3 
REMARK    2  A    between atoms: N1_3  and  C3_4 
REMARK       I    between atoms: N1_3  and  C6_8 
REMARK    3  A    between atoms: C3_4  and  C4_5 
REMARK    4  A    between atoms: C4_5  and  O1_6 
REMARK    5  A    between atoms: C6_8  and  C7_10 
REMARK    6  A    between atoms: C8_11  and  C9_12 
REMARK    7  A    between atoms: C9_12  and  C10_13 
REMARK    8  A    between atoms: C9_12  and  N2_16 
REMARK    9  A    between atoms: C23_36  and  C24_37 
REMARK   10  A    between atoms: C25_38  and  C26_39 
REMARK   11  A    between atoms: C26_39  and  C27_40 
REMARK   12  A    between atoms: C27_40  and  N4_41 
REMARK   13  A    between atoms: N4_41  and  C28_43 
ROOT
HETATM    1  N2  UNL     1       4.946  -1.078  14.793  1.00  0.00    -0.302 N 
HETATM    2  C11 UNL     1       4.201   0.062  14.432  1.00  0.00     0.239 C 
HETATM    3  O5  UNL     1       3.048   0.418  14.793  1.00  0.00    -0.272 OA
HETATM    4  C12 UNL     1       4.999   0.907  13.470  1.00  0.00     0.186 C 
HETATM    5  C13 UNL     1       4.503   0.732  12.080  1.00  0.00     0.232 C 
HETATM    6  O6  UNL     1       4.454  -0.498  11.725  1.00  0.00    -0.273 OA
HETATM    7  N3  UNL     1       4.105   1.698  11.164  1.00  0.00    -0.354 N 
ATOM      8  H3  UNL     1       3.160   1.584  10.801  1.00  0.00     0.162 HD
HETATM    9  C14 UNL     1       4.827   2.844  10.646  1.00  0.00     0.099 C 
HETATM   10  C15 UNL     1       4.041   3.435   9.478  1.00  0.00     0.037 C 
HETATM   11  C16 UNL     1       4.519   4.808   9.069  1.00  0.00     0.088 C 
HETATM   12  S1  UNL     1       5.794   4.435   7.784  1.00  0.00    -0.097 SA
HETATM   13  S2  UNL     1       6.413   2.453   8.403  1.00  0.00    -0.091 SA
HETATM   14  C17 UNL     1       6.236   2.531  10.243  1.00  0.00     0.081 C 
HETATM   15  C18 UNL     1       7.256   3.563  10.636  1.00  0.00     0.018 C 
HETATM   16  C19 UNL     1       7.276   3.969  12.054  1.00  0.00     0.002 C 
HETATM   17  C20 UNL     1       8.551   3.662  12.788  1.00  0.00     0.010 C 
HETATM   18  C21 UNL     1       8.678   2.224  13.202  1.00  0.00     0.074 C 
HETATM   19  S3  UNL     1       7.413   1.750  14.407  1.00  0.00    -0.161 SA
HETATM   20  C22 UNL     1       6.392   0.441  13.696  1.00  0.00     0.096 C 
HETATM   21  C23 UNL     1       6.367  -0.795  14.569  1.00  0.00     0.131 C 
ENDROOT
BRANCH   1  22
HETATM   22  C9  UNL     1       4.402  -2.339  15.319  1.00  0.00     0.115 C 
BRANCH  22  23
HETATM   23  C8  UNL     1       5.258  -2.939  16.338  1.00  0.00     0.042 C 
HETATM   24  C7  UNL     1       5.287  -4.322  16.747  1.00  0.00     0.077 C 
BRANCH  24  25
HETATM   25  C6  UNL     1       4.171  -5.012  17.362  1.00  0.00     0.243 C 
HETATM   26  N1  UNL     1       4.259  -6.388  17.807  1.00  0.00    -0.347 N 
HETATM   27  O2  UNL     1       3.067  -4.496  17.561  1.00  0.00    -0.268 OA
BRANCH  26  28
HETATM   28  C2  UNL     1       3.151  -7.056  18.439  1.00  0.00     0.121 C 
HETATM   29  C1  UNL     1       2.684  -8.282  17.689  1.00  0.00     0.026 C 
ENDBRANCH  26  28
BRANCH  26  30
HETATM   30  C3  UNL     1       5.492  -7.106  17.592  1.00  0.00     0.152 C 
BRANCH  30  31
HETATM   31  C4  UNL     1       6.238  -7.258  18.895  1.00  0.00     0.186 C 
BRANCH  31  32
HETATM   32  O1  UNL     1       7.020  -8.403  18.891  1.00  0.00    -0.394 OA
HETATM   33  C5  UNL     1       6.477  -9.467  18.203  1.00  0.00     0.201 C 
ENDBRANCH  31  32
ENDBRANCH  30  31
ENDBRANCH  26  30
ENDBRANCH  24  25
ENDBRANCH  22  23
BRANCH  22  34
HETATM   34  C10 UNL     1       3.833  -3.155  14.250  1.00  0.00     0.227 C 
HETATM   35  O3  UNL     1       4.464  -3.401  13.214  1.00  0.00    -0.643 OA
HETATM   36  O4  UNL     1       2.555  -3.664  14.384  1.00  0.00    -0.643 OA
ENDBRANCH  22  34
ENDBRANCH   1  22
BRANCH  21  37
HETATM   37  C24 UNL     1       6.960  -1.934  13.832  1.00  0.00    -0.004 C 
HETATM   38  C25 UNL     1       8.000  -2.612  14.248  1.00  0.00    -0.027 C 
BRANCH  38  39
HETATM   39  C26 UNL     1       8.698  -2.313  15.506  1.00  0.00     0.046 C 
BRANCH  39  40
HETATM   40  C27 UNL     1       9.515  -3.520  15.937  1.00  0.00     0.125 C 
BRANCH  40  41
HETATM   41  N4  UNL     1       8.696  -4.316  16.825  1.00  0.00    -0.369 N 
ATOM     42  H4  UNL     1       7.774  -3.974  17.097  1.00  0.00     0.161 HD
BRANCH  41  43
HETATM   43  C28 UNL     1       9.148  -5.556  17.321  1.00  0.00     0.180 C 
HETATM   44  N5  UNL     1       9.516  -5.636  18.699  1.00  0.00    -0.070 NA
HETATM   45  S4  UNL     1       9.241  -6.852  16.330  1.00  0.00    -0.044 SA
ENDBRANCH  41  43
ENDBRANCH  40  41
ENDBRANCH  39  40
ENDBRANCH  38  39
ENDBRANCH  21  37
TORSDOF 13
ENDMDL
