MODEL 1
REMARK VINA RESULT: -6.492549713      0.000      0.000
REMARK  12 active torsions:
REMARK  status: ('A' for Active; 'I' for Inactive)
REMARK    1  A    between atoms: C3_3  and  C4_4 
REMARK    2  A    between atoms: C5_5  and  C6_6 
REMARK    3  A    between atoms: C6_6  and  O1_7 
REMARK    4  A    between atoms: O1_7  and  C7_8 
REMARK    5  A    between atoms: C12_13  and  C13_14 
REMARK       I    between atoms: C13_14  and  N1_16 
REMARK    6  A    between atoms: N1_16  and  C14_18 
REMARK    7  A    between atoms: C14_18  and  C15_19 
REMARK    8  A    between atoms: C14_18  and  C17_23 
REMARK    9  A    between atoms: C15_19  and  C16_20 
REMARK   10  A    between atoms: C21_30  and  O8_31 
REMARK   11  A    between atoms: O8_31  and  O9_32 
REMARK   12  A    between atoms: N4_43  and  C30_45 
ROOT
HETATM    1  C6  UNL     1       3.684   4.095   8.062  1.00  0.00     0.096 C 
HETATM    2  C9  UNL     1       4.040   5.527   7.670  1.00  0.00     0.049 C 
HETATM    3  C10 UNL     1       5.476   5.809   7.398  1.00  0.00     0.055 C 
HETATM    4  C11 UNL     1       6.324   4.608   7.206  1.00  0.00     0.004 C 
HETATM    5  C12 UNL     1       7.716   4.578   7.834  1.00  0.00     0.052 C 
HETATM    6  C18 UNL     1       7.926   3.637   8.928  1.00  0.00    -0.053 C 
HETATM    7  C19 UNL     1       8.462   3.871  10.266  1.00  0.00     0.081 C 
HETATM    8  C20 UNL     1       7.432   3.702  11.311  1.00  0.00     0.131 C 
HETATM    9  O7  UNL     1       7.700   4.307  12.538  1.00  0.00    -0.316 OA
HETATM   10  C21 UNL     1       6.436   4.862  12.857  1.00  0.00     0.540 C 
HETATM   11  N2  UNL     1       5.512   4.573  11.884  1.00  0.00     0.164 N 
HETATM   12  C22 UNL     1       6.537   4.874  10.825  1.00  0.00     0.304 A 
HETATM   13  C23 UNL     1       5.339   4.308  10.544  1.00  0.00     0.283 A 
HETATM   14  C24 UNL     1       5.478   3.086   9.710  1.00  0.00     0.064 C 
HETATM   15  C25 UNL     1       6.788   2.719   9.063  1.00  0.00     0.048 C 
HETATM   16  C26 UNL     1       6.493   2.261   7.625  1.00  0.00     0.106 C 
HETATM   17  N3  UNL     1       5.663   3.361   7.329  1.00  0.00    -0.276 NA
HETATM   18  C27 UNL     1       4.724   3.208   8.479  1.00  0.00     0.119 C 
HETATM   19  C28 UNL     1       5.430   2.019  10.742  1.00  0.00     0.029 C 
HETATM   20  N4  UNL     1       4.475   1.418  11.450  1.00  0.00    -0.383 N 
HETATM   21  C29 UNL     1       3.630   2.085  12.376  1.00  0.00     0.150 C 
HETATM   22  C33 UNL     1       6.685   2.489  11.537  1.00  0.00    -0.002 C 
HETATM   23  C34 UNL     1       7.151   1.703  12.527  1.00  0.00    -0.019 C 
HETATM   24  C35 UNL     1       8.325   1.993  13.353  1.00  0.00     0.036 C 
ENDROOT
BRANCH   5  25
HETATM   25  C13 UNL     1       8.428   5.850   7.765  1.00  0.00     0.254 C 
HETATM   26  O2  UNL     1       8.675   6.614   8.750  1.00  0.00    -0.268 OA
HETATM   27  N1  UNL     1       8.949   6.421   6.567  1.00  0.00    -0.342 N 
ATOM     28  H1  UNL     1       8.822   5.900   5.699  1.00  0.00     0.163 HD
BRANCH  27  29
HETATM   29  C14 UNL     1       9.646   7.686   6.497  1.00  0.00     0.195 C 
BRANCH  29  30
HETATM   30  C15 UNL     1       8.870   8.611   5.609  1.00  0.00     0.149 C 
BRANCH  30  31
HETATM   31  C16 UNL     1       7.421   8.452   5.647  1.00  0.00     0.175 C 
HETATM   32  O3  UNL     1       6.728   8.963   6.555  1.00  0.00    -0.648 OA
HETATM   33  O4  UNL     1       6.724   7.730   4.686  1.00  0.00    -0.648 OA
ENDBRANCH  30  31
ENDBRANCH  29  30
BRANCH  29  34
HETATM   34  C17 UNL     1      11.032   7.540   5.950  1.00  0.00     0.197 C 
HETATM   35  O5  UNL     1      11.411   8.149   4.949  1.00  0.00    -0.646 OA
HETATM   36  O6  UNL     1      11.888   6.675   6.624  1.00  0.00    -0.646 OA
ENDBRANCH  29  34
ENDBRANCH  27  29
ENDBRANCH   5  25
BRANCH   1  37
HETATM   37  C5  UNL     1       2.419   4.136   8.892  1.00  0.00     0.012 C 
HETATM   38  C4  UNL     1       1.821   3.060   9.297  1.00  0.00    -0.001 C 
BRANCH  38  39
HETATM   39  C3  UNL     1       0.608   3.190  10.092  1.00  0.00    -0.005 C 
HETATM   40  C2  UNL     1      -0.196   2.166  10.315  1.00  0.00    -0.031 C 
HETATM   41  C1  UNL     1      -1.434   2.264  11.118  1.00  0.00     0.036 C 
ENDBRANCH  38  39
ENDBRANCH   1  37
BRANCH   1  42
HETATM   42  O1  UNL     1       3.164   3.626   6.853  1.00  0.00    -0.375 OA
BRANCH  42  43
HETATM   43  C7  UNL     1       2.387   4.391   6.098  1.00  0.00     0.165 C 
HETATM   44  C8  UNL     1       2.242   3.663   4.736  1.00  0.00     0.033 C 
ENDBRANCH  42  43
ENDBRANCH   1  42
BRANCH  10  45
HETATM   45  O8  UNL     1       6.591   6.262  12.975  1.00  0.00    -0.177 OA
BRANCH  45  46
HETATM   46  O9  UNL     1       5.853   6.757  13.932  1.00  0.00    -0.246 OA
ATOM     47  H9  UNL     1       6.145   7.621  14.196  1.00  0.00     0.253 HD
ENDBRANCH  45  46
ENDBRANCH  10  45
BRANCH  20  48
HETATM   48  C30 UNL     1       3.859   0.175  11.246  1.00  0.00     0.075 C 
HETATM   49  C31 UNL     1       4.504  -0.885  12.123  1.00  0.00     0.032 C 
HETATM   50  C32 UNL     1       2.396  -0.005  11.394  1.00  0.00     0.032 C 
ENDBRANCH  20  48
TORSDOF 12
ENDMDL
MODEL 2
REMARK VINA RESULT: -6.402906030      1.159      1.934
REMARK  12 active torsions:
REMARK  status: ('A' for Active; 'I' for Inactive)
REMARK    1  A    between atoms: C3_3  and  C4_4 
REMARK    2  A    between atoms: C5_5  and  C6_6 
REMARK    3  A    between atoms: C6_6  and  O1_7 
REMARK    4  A    between atoms: O1_7  and  C7_8 
REMARK    5  A    between atoms: C12_13  and  C13_14 
REMARK       I    between atoms: C13_14  and  N1_16 
REMARK    6  A    between atoms: N1_16  and  C14_18 
REMARK    7  A    between atoms: C14_18  and  C15_19 
REMARK    8  A    between atoms: C14_18  and  C17_23 
REMARK    9  A    between atoms: C15_19  and  C16_20 
REMARK   10  A    between atoms: C21_30  and  O8_31 
REMARK   11  A    between atoms: O8_31  and  O9_32 
REMARK   12  A    between atoms: N4_43  and  C30_45 
ROOT
HETATM    1  C6  UNL     1       3.787   4.145   7.968  1.00  0.00     0.096 C 
HETATM    2  C9  UNL     1       4.209   5.562   7.588  1.00  0.00     0.049 C 
HETATM    3  C10 UNL     1       5.667   5.799   7.402  1.00  0.00     0.055 C 
HETATM    4  C11 UNL     1       6.488   4.573   7.270  1.00  0.00     0.004 C 
HETATM    5  C12 UNL     1       7.839   4.508   7.982  1.00  0.00     0.052 C 
HETATM    6  C18 UNL     1       7.954   3.571   9.094  1.00  0.00    -0.053 C 
HETATM    7  C19 UNL     1       8.415   3.802  10.460  1.00  0.00     0.081 C 
HETATM    8  C20 UNL     1       7.319   3.673  11.441  1.00  0.00     0.131 C 
HETATM    9  O7  UNL     1       7.530   4.281  12.679  1.00  0.00    -0.316 OA
HETATM   10  C21 UNL     1       6.267   4.875  12.915  1.00  0.00     0.540 C 
HETATM   11  N2  UNL     1       5.395   4.605  11.891  1.00  0.00     0.164 N 
HETATM   12  C22 UNL     1       6.490   4.866  10.893  1.00  0.00     0.304 A 
HETATM   13  C23 UNL     1       5.296   4.332  10.544  1.00  0.00     0.283 A 
HETATM   14  C24 UNL     1       5.448   3.099   9.730  1.00  0.00     0.064 C 
HETATM   15  C25 UNL     1       6.783   2.688   9.167  1.00  0.00     0.048 C 
HETATM   16  C26 UNL     1       6.562   2.226   7.717  1.00  0.00     0.106 C 
HETATM   17  N3  UNL     1       5.785   3.346   7.363  1.00  0.00    -0.276 NA
HETATM   18  C27 UNL     1       4.774   3.232   8.455  1.00  0.00     0.119 C 
HETATM   19  C28 UNL     1       5.306   2.044  10.765  1.00  0.00     0.029 C 
HETATM   20  N4  UNL     1       4.292   1.478  11.419  1.00  0.00    -0.383 N 
HETATM   21  C29 UNL     1       3.413   2.178  12.287  1.00  0.00     0.150 C 
HETATM   22  C33 UNL     1       6.524   2.485  11.631  1.00  0.00    -0.002 C 
HETATM   23  C34 UNL     1       6.906   1.694  12.653  1.00  0.00    -0.019 C 
HETATM   24  C35 UNL     1       8.036   1.957  13.547  1.00  0.00     0.036 C 
ENDROOT
BRANCH   5  25
HETATM   25  C13 UNL     1       8.591   5.758   7.947  1.00  0.00     0.254 C 
HETATM   26  O2  UNL     1       8.114   6.900   7.659  1.00  0.00    -0.268 OA
HETATM   27  N1  UNL     1       9.984   5.871   8.230  1.00  0.00    -0.342 N 
ATOM     28  H1  UNL     1      10.488   5.021   8.482  1.00  0.00     0.163 HD
BRANCH  27  29
HETATM   29  C14 UNL     1      10.731   7.109   8.185  1.00  0.00     0.195 C 
BRANCH  29  30
HETATM   30  C15 UNL     1      12.004   6.871   7.430  1.00  0.00     0.149 C 
BRANCH  30  31
HETATM   31  C16 UNL     1      11.858   6.193   6.147  1.00  0.00     0.175 C 
HETATM   32  O3  UNL     1      10.927   6.473   5.359  1.00  0.00    -0.648 OA
HETATM   33  O4  UNL     1      12.735   5.202   5.722  1.00  0.00    -0.648 OA
ENDBRANCH  30  31
ENDBRANCH  29  30
BRANCH  29  34
HETATM   34  C17 UNL     1      11.067   7.618   9.553  1.00  0.00     0.197 C 
HETATM   35  O5  UNL     1      12.226   7.846   9.902  1.00  0.00    -0.646 OA
HETATM   36  O6  UNL     1      10.006   7.824  10.427  1.00  0.00    -0.646 OA
ENDBRANCH  29  34
ENDBRANCH  27  29
ENDBRANCH   5  25
BRANCH   1  37
HETATM   37  C5  UNL     1       2.476   4.231   8.720  1.00  0.00     0.012 C 
HETATM   38  C4  UNL     1       1.807   3.177   9.068  1.00  0.00    -0.001 C 
BRANCH  38  39
HETATM   39  C3  UNL     1       0.554   3.349   9.789  1.00  0.00    -0.005 C 
HETATM   40  C2  UNL     1      -0.161   2.321  10.205  1.00  0.00    -0.031 C 
HETATM   41  C1  UNL     1      -1.437   2.461  10.941  1.00  0.00     0.036 C 
ENDBRANCH  38  39
ENDBRANCH   1  37
BRANCH   1  42
HETATM   42  O1  UNL     1       3.328   3.680   6.734  1.00  0.00    -0.375 OA
BRANCH  42  43
HETATM   43  C7  UNL     1       2.746   4.498   5.867  1.00  0.00     0.165 C 
HETATM   44  C8  UNL     1       2.046   3.598   4.814  1.00  0.00     0.033 C 
ENDBRANCH  42  43
ENDBRANCH   1  42
BRANCH  10  45
HETATM   45  O8  UNL     1       6.456   6.271  13.032  1.00  0.00    -0.177 OA
BRANCH  45  46
HETATM   46  O9  UNL     1       5.748   6.781  14.005  1.00  0.00    -0.246 OA
ATOM     47  H9  UNL     1       5.066   7.358  13.684  1.00  0.00     0.253 HD
ENDBRANCH  45  46
ENDBRANCH  10  45
BRANCH  20  48
HETATM   48  C30 UNL     1       3.653   0.251  11.187  1.00  0.00     0.075 C 
HETATM   49  C31 UNL     1       4.277  -0.840  12.041  1.00  0.00     0.032 C 
HETATM   50  C32 UNL     1       2.187   0.095  11.330  1.00  0.00     0.032 C 
ENDBRANCH  20  48
TORSDOF 12
ENDMDL
MODEL 3
REMARK VINA RESULT: -6.370969059      2.779      7.489
REMARK  12 active torsions:
REMARK  status: ('A' for Active; 'I' for Inactive)
REMARK    1  A    between atoms: C3_3  and  C4_4 
REMARK    2  A    between atoms: C5_5  and  C6_6 
REMARK    3  A    between atoms: C6_6  and  O1_7 
REMARK    4  A    between atoms: O1_7  and  C7_8 
REMARK    5  A    between atoms: C12_13  and  C13_14 
REMARK       I    between atoms: C13_14  and  N1_16 
REMARK    6  A    between atoms: N1_16  and  C14_18 
REMARK    7  A    between atoms: C14_18  and  C15_19 
REMARK    8  A    between atoms: C14_18  and  C17_23 
REMARK    9  A    between atoms: C15_19  and  C16_20 
REMARK   10  A    between atoms: C21_30  and  O8_31 
REMARK   11  A    between atoms: O8_31  and  O9_32 
REMARK   12  A    between atoms: N4_43  and  C30_45 
ROOT
HETATM    1  C6  UNL     1       2.904   3.652   9.576  1.00  0.00     0.096 C 
HETATM    2  C9  UNL     1       2.915   2.285  10.256  1.00  0.00     0.049 C 
HETATM    3  C10 UNL     1       4.053   2.003  11.174  1.00  0.00     0.055 C 
HETATM    4  C11 UNL     1       4.840   3.192  11.579  1.00  0.00     0.004 C 
HETATM    5  C12 UNL     1       6.362   3.085  11.642  1.00  0.00     0.052 C 
HETATM    6  C18 UNL     1       7.119   3.844  10.653  1.00  0.00    -0.053 C 
HETATM    7  C19 UNL     1       8.163   3.396   9.736  1.00  0.00     0.081 C 
HETATM    8  C20 UNL     1       7.716   3.438   8.329  1.00  0.00     0.131 C 
HETATM    9  O7  UNL     1       8.438   2.647   7.434  1.00  0.00    -0.316 OA
HETATM   10  C21 UNL     1       7.395   2.090   6.653  1.00  0.00     0.540 C 
HETATM   11  N2  UNL     1       6.171   2.550   7.066  1.00  0.00     0.164 N 
HETATM   12  C22 UNL     1       6.593   2.380   8.500  1.00  0.00     0.304 A 
HETATM   13  C23 UNL     1       5.453   3.018   8.145  1.00  0.00     0.283 A 
HETATM   14  C24 UNL     1       5.326   4.347   8.798  1.00  0.00     0.064 C 
HETATM   15  C25 UNL     1       6.248   4.766   9.913  1.00  0.00     0.048 C 
HETATM   16  C26 UNL     1       5.396   5.443  11.000  1.00  0.00     0.106 C 
HETATM   17  N3  UNL     1       4.421   4.427  11.023  1.00  0.00    -0.276 NA
HETATM   18  C27 UNL     1       4.101   4.434   9.565  1.00  0.00     0.119 C 
HETATM   19  C28 UNL     1       5.837   5.247   7.733  1.00  0.00     0.029 C 
HETATM   20  N4  UNL     1       5.351   5.764   6.605  1.00  0.00    -0.383 N 
HETATM   21  C29 UNL     1       4.939   4.992   5.487  1.00  0.00     0.150 C 
HETATM   22  C33 UNL     1       7.263   4.625   7.648  1.00  0.00    -0.002 C 
HETATM   23  C34 UNL     1       8.188   5.239   6.885  1.00  0.00    -0.019 C 
HETATM   24  C35 UNL     1       9.572   4.792   6.713  1.00  0.00     0.036 C 
ENDROOT
BRANCH   5  25
HETATM   25  C13 UNL     1       6.848   1.816  12.176  1.00  0.00     0.254 C 
HETATM   26  O2  UNL     1       7.996   1.316  11.961  1.00  0.00    -0.268 OA
HETATM   27  N1  UNL     1       6.091   0.951  13.019  1.00  0.00    -0.342 N 
ATOM     28  H1  UNL     1       5.147   1.243  13.273  1.00  0.00     0.163 HD
BRANCH  27  29
HETATM   29  C14 UNL     1       6.569  -0.310  13.540  1.00  0.00     0.195 C 
BRANCH  29  30
HETATM   30  C15 UNL     1       6.169  -1.401  12.593  1.00  0.00     0.149 C 
BRANCH  30  31
HETATM   31  C16 UNL     1       4.773  -1.815  12.663  1.00  0.00     0.175 C 
HETATM   32  O3  UNL     1       3.844  -1.054  12.309  1.00  0.00    -0.648 OA
HETATM   33  O4  UNL     1       4.388  -3.069  13.123  1.00  0.00    -0.648 OA
ENDBRANCH  30  31
ENDBRANCH  29  30
BRANCH  29  34
HETATM   34  C17 UNL     1       6.007  -0.614  14.894  1.00  0.00     0.197 C 
HETATM   35  O5  UNL     1       6.372  -1.588  15.553  1.00  0.00    -0.646 OA
HETATM   36  O6  UNL     1       5.039   0.256  15.385  1.00  0.00    -0.646 OA
ENDBRANCH  29  34
ENDBRANCH  27  29
ENDBRANCH   5  25
BRANCH   1  37
HETATM   37  C5  UNL     1       2.134   3.526   8.280  1.00  0.00     0.012 C 
HETATM   38  C4  UNL     1       1.984   4.521   7.463  1.00  0.00    -0.001 C 
BRANCH  38  39
HETATM   39  C3  UNL     1       1.229   4.312   6.236  1.00  0.00    -0.005 C 
HETATM   40  C2  UNL     1       1.805   3.911   5.118  1.00  0.00    -0.031 C 
HETATM   41  C1  UNL     1       1.067   3.689   3.855  1.00  0.00     0.036 C 
ENDBRANCH  38  39
ENDBRANCH   1  37
BRANCH   1  42
HETATM   42  O1  UNL     1       1.954   4.313  10.358  1.00  0.00    -0.375 OA
BRANCH  42  43
HETATM   43  C7  UNL     1       0.697   3.893  10.410  1.00  0.00     0.165 C 
HETATM   44  C8  UNL     1       0.525   3.186  11.781  1.00  0.00     0.033 C 
ENDBRANCH  42  43
ENDBRANCH   1  42
BRANCH  10  45
HETATM   45  O8  UNL     1       7.454   0.684   6.787  1.00  0.00    -0.177 OA
BRANCH  45  46
HETATM   46  O9  UNL     1       6.934   0.073   5.756  1.00  0.00    -0.246 OA
ATOM     47  H9  UNL     1       6.350  -0.629   6.016  1.00  0.00     0.253 HD
ENDBRANCH  45  46
ENDBRANCH  10  45
BRANCH  20  48
HETATM   48  C30 UNL     1       4.828   7.042   6.361  1.00  0.00     0.075 C 
HETATM   49  C31 UNL     1       5.883   7.932   5.725  1.00  0.00     0.032 C 
HETATM   50  C32 UNL     1       3.592   7.242   5.568  1.00  0.00     0.032 C 
ENDBRANCH  20  48
TORSDOF 12
ENDMDL
MODEL 4
REMARK VINA RESULT: -6.225356103      2.860      7.453
REMARK  12 active torsions:
REMARK  status: ('A' for Active; 'I' for Inactive)
REMARK    1  A    between atoms: C3_3  and  C4_4 
REMARK    2  A    between atoms: C5_5  and  C6_6 
REMARK    3  A    between atoms: C6_6  and  O1_7 
REMARK    4  A    between atoms: O1_7  and  C7_8 
REMARK    5  A    between atoms: C12_13  and  C13_14 
REMARK       I    between atoms: C13_14  and  N1_16 
REMARK    6  A    between atoms: N1_16  and  C14_18 
REMARK    7  A    between atoms: C14_18  and  C15_19 
REMARK    8  A    between atoms: C14_18  and  C17_23 
REMARK    9  A    between atoms: C15_19  and  C16_20 
REMARK   10  A    between atoms: C21_30  and  O8_31 
REMARK   11  A    between atoms: O8_31  and  O9_32 
REMARK   12  A    between atoms: N4_43  and  C30_45 
ROOT
HETATM    1  C6  UNL     1       6.523   3.935   5.126  1.00  0.00     0.096 C 
HETATM    2  C9  UNL     1       5.495   2.814   4.994  1.00  0.00     0.049 C 
HETATM    3  C10 UNL     1       4.220   2.985   5.743  1.00  0.00     0.055 C 
HETATM    4  C11 UNL     1       3.964   4.359   6.238  1.00  0.00     0.004 C 
HETATM    5  C12 UNL     1       3.382   4.543   7.639  1.00  0.00     0.052 C 
HETATM    6  C18 UNL     1       4.255   5.143   8.641  1.00  0.00    -0.053 C 
HETATM    7  C19 UNL     1       4.603   4.666   9.976  1.00  0.00     0.081 C 
HETATM    8  C20 UNL     1       6.022   4.263  10.065  1.00  0.00     0.131 C 
HETATM    9  O7  UNL     1       6.350   3.410  11.119  1.00  0.00    -0.316 OA
HETATM   10  C21 UNL     1       7.218   2.494  10.474  1.00  0.00     0.540 C 
HETATM   11  N2  UNL     1       7.383   2.820   9.151  1.00  0.00     0.164 N 
HETATM   12  C22 UNL     1       5.910   3.104   9.039  1.00  0.00     0.304 A 
HETATM   13  C23 UNL     1       6.791   3.416   8.059  1.00  0.00     0.283 A 
HETATM   14  C24 UNL     1       6.650   4.824   7.606  1.00  0.00     0.064 C 
HETATM   15  C25 UNL     1       5.480   5.673   8.029  1.00  0.00     0.048 C 
HETATM   16  C26 UNL     1       4.987   6.446   6.794  1.00  0.00     0.106 C 
HETATM   17  N3  UNL     1       4.972   5.314   5.956  1.00  0.00    -0.276 NA
HETATM   18  C27 UNL     1       6.384   4.887   6.184  1.00  0.00     0.119 C 
HETATM   19  C28 UNL     1       7.713   5.495   8.397  1.00  0.00     0.029 C 
HETATM   20  N4  UNL     1       9.037   5.609   8.312  1.00  0.00    -0.383 N 
HETATM   21  C29 UNL     1       9.938   4.514   8.391  1.00  0.00     0.150 C 
HETATM   22  C33 UNL     1       7.139   5.135   9.800  1.00  0.00    -0.002 C 
HETATM   23  C34 UNL     1       7.711   5.685  10.889  1.00  0.00    -0.019 C 
HETATM   24  C35 UNL     1       7.282   5.462  12.271  1.00  0.00     0.036 C 
ENDROOT
BRANCH   5  25
HETATM   25  C13 UNL     1       2.362   3.562   7.993  1.00  0.00     0.254 C 
HETATM   26  O2  UNL     1       1.359   3.248   7.279  1.00  0.00    -0.268 OA
HETATM   27  N1  UNL     1       2.347   2.814   9.207  1.00  0.00    -0.342 N 
ATOM     28  H1  UNL     1       3.106   2.970   9.870  1.00  0.00     0.163 HD
BRANCH  27  29
HETATM   29  C14 UNL     1       1.330   1.850   9.562  1.00  0.00     0.195 C 
BRANCH  29  30
HETATM   30  C15 UNL     1       0.131   2.586  10.080  1.00  0.00     0.149 C 
BRANCH  30  31
HETATM   31  C16 UNL     1       0.394   3.540  11.152  1.00  0.00     0.175 C 
HETATM   32  O3  UNL     1       0.827   4.690  10.916  1.00  0.00    -0.648 OA
HETATM   33  O4  UNL     1       0.182   3.234  12.491  1.00  0.00    -0.648 OA
ENDBRANCH  30  31
ENDBRANCH  29  30
BRANCH  29  34
HETATM   34  C17 UNL     1       1.800   0.891  10.613  1.00  0.00     0.197 C 
HETATM   35  O5  UNL     1       1.177  -0.134  10.892  1.00  0.00    -0.646 OA
HETATM   36  O6  UNL     1       2.982   1.209  11.272  1.00  0.00    -0.646 OA
ENDBRANCH  29  34
ENDBRANCH  27  29
ENDBRANCH   5  25
BRANCH   1  37
HETATM   37  C5  UNL     1       7.896   3.344   4.888  1.00  0.00     0.012 C 
HETATM   38  C4  UNL     1       8.065   2.126   4.479  1.00  0.00    -0.001 C 
BRANCH  38  39
HETATM   39  C3  UNL     1       9.421   1.637   4.275  1.00  0.00    -0.005 C 
HETATM   40  C2  UNL     1       9.668   0.397   3.895  1.00  0.00    -0.031 C 
HETATM   41  C1  UNL     1      11.033  -0.131   3.679  1.00  0.00     0.036 C 
ENDBRANCH  38  39
ENDBRANCH   1  37
BRANCH   1  42
HETATM   42  O1  UNL     1       6.331   4.597   3.911  1.00  0.00    -0.375 OA
BRANCH  42  43
HETATM   43  C7  UNL     1       7.248   5.425   3.429  1.00  0.00     0.165 C 
HETATM   44  C8  UNL     1       6.486   6.676   2.917  1.00  0.00     0.033 C 
ENDBRANCH  42  43
ENDBRANCH   1  42
BRANCH  10  45
HETATM   45  O8  UNL     1       6.652   1.204  10.586  1.00  0.00    -0.177 OA
BRANCH  45  46
HETATM   46  O9  UNL     1       6.000   1.052  11.707  1.00  0.00    -0.246 OA
ATOM     47  H9  UNL     1       6.582   0.874  12.436  1.00  0.00     0.253 HD
ENDBRANCH  45  46
ENDBRANCH  10  45
BRANCH  20  48
HETATM   48  C30 UNL     1       9.814   6.667   7.818  1.00  0.00     0.075 C 
HETATM   49  C31 UNL     1       8.992   7.533   6.878  1.00  0.00     0.032 C 
HETATM   50  C32 UNL     1      10.523   7.603   8.722  1.00  0.00     0.032 C 
ENDBRANCH  20  48
TORSDOF 12
ENDMDL
MODEL 5
REMARK VINA RESULT: -6.090564065      2.983      7.466
REMARK  12 active torsions:
REMARK  status: ('A' for Active; 'I' for Inactive)
REMARK    1  A    between atoms: C3_3  and  C4_4 
REMARK    2  A    between atoms: C5_5  and  C6_6 
REMARK    3  A    between atoms: C6_6  and  O1_7 
REMARK    4  A    between atoms: O1_7  and  C7_8 
REMARK    5  A    between atoms: C12_13  and  C13_14 
REMARK       I    between atoms: C13_14  and  N1_16 
REMARK    6  A    between atoms: N1_16  and  C14_18 
REMARK    7  A    between atoms: C14_18  and  C15_19 
REMARK    8  A    between atoms: C14_18  and  C17_23 
REMARK    9  A    between atoms: C15_19  and  C16_20 
REMARK   10  A    between atoms: C21_30  and  O8_31 
REMARK   11  A    between atoms: O8_31  and  O9_32 
REMARK   12  A    between atoms: N4_43  and  C30_45 
ROOT
HETATM    1  C6  UNL     1       2.109   4.548   5.795  1.00  0.00     0.096 C 
HETATM    2  C9  UNL     1       1.702   3.639   6.952  1.00  0.00     0.049 C 
HETATM    3  C10 UNL     1       2.405   3.849   8.247  1.00  0.00     0.055 C 
HETATM    4  C11 UNL     1       3.155   5.122   8.353  1.00  0.00     0.004 C 
HETATM    5  C12 UNL     1       4.534   5.115   9.012  1.00  0.00     0.052 C 
HETATM    6  C18 UNL     1       5.680   5.373   8.147  1.00  0.00    -0.053 C 
HETATM    7  C19 UNL     1       6.905   4.600   7.972  1.00  0.00     0.081 C 
HETATM    8  C20 UNL     1       6.981   3.982   6.633  1.00  0.00     0.131 C 
HETATM    9  O7  UNL     1       7.854   2.902   6.506  1.00  0.00    -0.316 OA
HETATM   10  C21 UNL     1       7.080   2.011   5.723  1.00  0.00     0.540 C 
HETATM   11  N2  UNL     1       5.862   2.559   5.412  1.00  0.00     0.164 N 
HETATM   12  C22 UNL     1       5.737   3.073   6.820  1.00  0.00     0.304 A 
HETATM   13  C23 UNL     1       4.886   3.436   5.831  1.00  0.00     0.283 A 
HETATM   14  C24 UNL     1       4.721   4.910   5.744  1.00  0.00     0.064 C 
HETATM   15  C25 UNL     1       5.249   5.825   6.818  1.00  0.00     0.048 C 
HETATM   16  C26 UNL     1       4.174   6.887   7.104  1.00  0.00     0.106 C 
HETATM   17  N3  UNL     1       3.124   5.954   7.206  1.00  0.00    -0.276 NA
HETATM   18  C27 UNL     1       3.330   5.287   5.887  1.00  0.00     0.119 C 
HETATM   19  C28 UNL     1       5.684   5.250   4.665  1.00  0.00     0.029 C 
HETATM   20  N4  UNL     1       5.690   5.180   3.335  1.00  0.00    -0.383 N 
HETATM   21  C29 UNL     1       5.589   3.970   2.600  1.00  0.00     0.150 C 
HETATM   22  C33 UNL     1       6.954   4.713   5.390  1.00  0.00    -0.002 C 
HETATM   23  C34 UNL     1       8.159   4.951   4.836  1.00  0.00    -0.019 C 
HETATM   24  C35 UNL     1       9.444   4.530   5.399  1.00  0.00     0.036 C 
ENDROOT
BRANCH   5  25
HETATM   25  C13 UNL     1       4.631   4.247  10.180  1.00  0.00     0.254 C 
HETATM   26  O2  UNL     1       4.531   4.622  11.390  1.00  0.00    -0.268 OA
HETATM   27  N1  UNL     1       4.857   2.840  10.125  1.00  0.00    -0.342 N 
ATOM     28  H1  UNL     1       4.950   2.410   9.205  1.00  0.00     0.163 HD
BRANCH  27  29
HETATM   29  C14 UNL     1       4.963   1.981  11.284  1.00  0.00     0.195 C 
BRANCH  29  30
HETATM   30  C15 UNL     1       6.183   1.123  11.134  1.00  0.00     0.149 C 
BRANCH  30  31
HETATM   31  C16 UNL     1       7.364   1.796  10.606  1.00  0.00     0.175 C 
HETATM   32  O3  UNL     1       7.771   2.879  11.084  1.00  0.00    -0.648 OA
HETATM   33  O4  UNL     1       8.106   1.282   9.549  1.00  0.00    -0.648 OA
ENDBRANCH  30  31
ENDBRANCH  29  30
BRANCH  29  34
HETATM   34  C17 UNL     1       3.765   1.096  11.445  1.00  0.00     0.197 C 
HETATM   35  O5  UNL     1       3.865  -0.099  11.725  1.00  0.00    -0.646 OA
HETATM   36  O6  UNL     1       2.518   1.683  11.260  1.00  0.00    -0.646 OA
ENDBRANCH  29  34
ENDBRANCH  27  29
ENDBRANCH   5  25
BRANCH   1  37
HETATM   37  C5  UNL     1       1.824   3.818   4.501  1.00  0.00     0.012 C 
HETATM   38  C4  UNL     1       1.763   4.429   3.359  1.00  0.00    -0.001 C 
BRANCH  38  39
HETATM   39  C3  UNL     1       1.484   3.650   2.162  1.00  0.00    -0.005 C 
HETATM   40  C2  UNL     1       1.938   4.005   0.974  1.00  0.00    -0.031 C 
HETATM   41  C1  UNL     1       1.674   3.236  -0.262  1.00  0.00     0.036 C 
ENDBRANCH  38  39
ENDBRANCH   1  37
BRANCH   1  42
HETATM   42  O1  UNL     1       1.046   5.454   5.801  1.00  0.00    -0.375 OA
BRANCH  42  43
HETATM   43  C7  UNL     1      -0.093   5.170   6.421  1.00  0.00     0.165 C 
HETATM   44  C8  UNL     1      -0.682   6.523   6.900  1.00  0.00     0.033 C 
ENDBRANCH  42  43
ENDBRANCH   1  42
BRANCH  10  45
HETATM   45  O8  UNL     1       6.900   0.821   6.465  1.00  0.00    -0.177 OA
BRANCH  45  46
HETATM   46  O9  UNL     1       6.882  -0.236   5.698  1.00  0.00    -0.246 OA
ATOM     47  H9  UNL     1       7.702  -0.715   5.733  1.00  0.00     0.253 HD
ENDBRANCH  45  46
ENDBRANCH  10  45
BRANCH  20  48
HETATM   48  C30 UNL     1       5.460   6.187   2.386  1.00  0.00     0.075 C 
HETATM   49  C31 UNL     1       5.228   5.578   1.013  1.00  0.00     0.032 C 
HETATM   50  C32 UNL     1       4.398   7.204   2.568  1.00  0.00     0.032 C 
ENDBRANCH  20  48
TORSDOF 12
ENDMDL
