MODEL 1
REMARK VINA RESULT: -9.620365261      0.000      0.000
REMARK  11 active torsions:
REMARK  status: ('A' for Active; 'I' for Inactive)
REMARK    1  A    between atoms: C6_6  and  C7_7 
REMARK    2  A    between atoms: C11_11  and  C12_12 
REMARK    3  A    between atoms: C12_12  and  N1_13 
REMARK    4  A    between atoms: C12_12  and  C22_32 
REMARK       I    between atoms: N1_13  and  C13_15 
REMARK    5  A    between atoms: C13_15  and  C14_17 
REMARK    6  A    between atoms: C14_17  and  C15_18 
REMARK    7  A    between atoms: C14_17  and  N2_22 
REMARK    8  A    between atoms: C15_18  and  C16_19 
REMARK       I    between atoms: N2_22  and  C19_24 
REMARK    9  A    between atoms: C19_24  and  C20_26 
REMARK   10  A    between atoms: C20_26  and  N3_28 
REMARK       I    between atoms: C22_32  and  N4_34 
REMARK   11  A    between atoms: C26_38  and  C27_39 
REMARK       I    between atoms: C27_39  and  N5_41 
ROOT
HETATM    1  C12 UNL     1      -9.219  18.190  26.727  1.00  0.00     0.181 C 
ENDROOT
BRANCH   1   2
HETATM    2  C11 UNL     1      -9.885  17.288  27.718  1.00  0.00     0.018 C 
HETATM    3  C10 UNL     1     -10.431  16.010  27.166  1.00  0.00     0.007 C 
HETATM    4  C9  UNL     1      -9.638  14.793  27.548  1.00  0.00     0.001 C 
HETATM    5  C8  UNL     1      -8.910  14.998  28.921  1.00  0.00     0.009 C 
HETATM    6  C7  UNL     1      -9.769  15.864  29.704  1.00  0.00     0.020 C 
HETATM    7  C29 UNL     1      -9.340  17.245  29.089  1.00  0.00     0.016 C 
BRANCH   6   8
HETATM    8  C6  UNL     1      -9.759  16.008  31.134  1.00  0.00    -0.042 A 
HETATM    9  C4  UNL     1     -11.019  15.914  31.763  1.00  0.00    -0.054 A 
HETATM   10  C3  UNL     1     -11.063  16.081  33.120  1.00  0.00     0.014 A 
HETATM   11  C5  UNL     1     -12.243  15.606  30.986  1.00  0.00     0.049 C 
HETATM   12  C2  UNL     1      -9.936  16.333  33.874  1.00  0.00    -0.061 A 
HETATM   13  C1  UNL     1      -9.969  16.511  35.341  1.00  0.00     0.048 C 
HETATM   14  C32 UNL     1      -8.719  16.419  33.222  1.00  0.00     0.014 A 
HETATM   15  C30 UNL     1      -8.616  16.256  31.833  1.00  0.00    -0.054 A 
HETATM   16  C31 UNL     1      -7.248  16.395  31.270  1.00  0.00     0.049 C 
ENDBRANCH   6   8
ENDBRANCH   1   2
BRANCH   1  17
HETATM   17  N1  UNL     1      -9.417  17.513  25.398  1.00  0.00    -0.346 N 
HETATM   18  C13 UNL     1      -8.754  17.985  24.252  1.00  0.00     0.241 C 
HETATM   19  O1  UNL     1      -8.000  19.005  24.401  1.00  0.00    -0.271 OA
ATOM     20  H1  UNL     1     -10.036  16.705  25.329  1.00  0.00     0.163 HD
BRANCH  18  21
HETATM   21  C14 UNL     1      -8.900  17.339  22.885  1.00  0.00     0.177 C 
BRANCH  21  22
HETATM   22  C15 UNL     1      -9.750  16.162  23.013  1.00  0.00     0.038 C 
BRANCH  22  23
HETATM   23  C16 UNL     1      -9.201  14.821  22.689  1.00  0.00    -0.020 C 
HETATM   24  C17 UNL     1      -8.226  14.291  23.708  1.00  0.00     0.009 C 
HETATM   25  C18 UNL     1     -10.398  13.851  22.696  1.00  0.00     0.009 C 
ENDBRANCH  22  23
ENDBRANCH  21  22
BRANCH  21  26
HETATM   26  N2  UNL     1      -7.644  17.202  22.232  1.00  0.00    -0.346 N 
HETATM   27  C19 UNL     1      -7.309  17.665  20.963  1.00  0.00     0.248 C 
HETATM   28  O2  UNL     1      -8.099  18.290  20.242  1.00  0.00    -0.271 OA
ATOM     29  H2  UNL     1      -6.913  16.713  22.748  1.00  0.00     0.163 HD
BRANCH  27  30
HETATM   30  C20 UNL     1      -5.955  17.426  20.404  1.00  0.00     0.270 C 
HETATM   31  C21 UNL     1      -5.609  15.952  20.438  1.00  0.00     0.050 C 
BRANCH  30  32
HETATM   32  N3  UNL     1      -4.936  18.281  20.912  1.00  0.00    -0.067 N 
ATOM     33  H33 UNL     1      -5.169  19.256  20.727  1.00  0.00     0.275 HD
ATOM     34  H32 UNL     1      -4.954  18.285  21.932  1.00  0.00     0.275 HD
ATOM     35  H31 UNL     1      -3.994  18.075  20.578  1.00  0.00     0.275 HD
ENDBRANCH  30  32
ENDBRANCH  27  30
ENDBRANCH  21  26
ENDBRANCH  18  21
ENDBRANCH   1  17
BRANCH   1  36
HETATM   36  C22 UNL     1      -7.770  18.390  26.881  1.00  0.00     0.243 C 
HETATM   37  O3  UNL     1      -7.437  19.606  27.175  1.00  0.00    -0.271 OA
HETATM   38  N4  UNL     1      -6.687  17.502  26.779  1.00  0.00    -0.337 N 
HETATM   39  C23 UNL     1      -6.562  16.107  26.468  1.00  0.00     0.127 C 
HETATM   40  C26 UNL     1      -5.292  17.911  27.060  1.00  0.00     0.179 C 
HETATM   41  C24 UNL     1      -5.403  15.582  27.246  1.00  0.00     0.022 C 
HETATM   42  C25 UNL     1      -4.878  16.801  28.024  1.00  0.00     0.037 C 
BRANCH  40  43
HETATM   43  C27 UNL     1      -4.436  17.897  25.888  1.00  0.00     0.246 C 
HETATM   44  O4  UNL     1      -4.683  18.690  24.907  1.00  0.00    -0.271 OA
HETATM   45  N5  UNL     1      -3.317  17.061  25.714  1.00  0.00    -0.302 N 
HETATM   46  C28 UNL     1      -3.005  16.576  24.553  1.00  0.00     0.203 C 
ATOM     47  H5  UNL     1      -2.737  16.830  26.521  1.00  0.00     0.171 HD
HETATM   48  N6  UNL     1      -1.891  15.735  24.339  1.00  0.00    -0.066 NA
HETATM   49  N7  UNL     1      -3.819  16.906  23.447  1.00  0.00    -0.066 NA
ENDBRANCH  40  43
ENDBRANCH   1  36
TORSDOF 11
ENDMDL
MODEL 2
REMARK VINA RESULT: -9.539192936      2.117      5.196
REMARK  11 active torsions:
REMARK  status: ('A' for Active; 'I' for Inactive)
REMARK    1  A    between atoms: C6_6  and  C7_7 
REMARK    2  A    between atoms: C11_11  and  C12_12 
REMARK    3  A    between atoms: C12_12  and  N1_13 
REMARK    4  A    between atoms: C12_12  and  C22_32 
REMARK       I    between atoms: N1_13  and  C13_15 
REMARK    5  A    between atoms: C13_15  and  C14_17 
REMARK    6  A    between atoms: C14_17  and  C15_18 
REMARK    7  A    between atoms: C14_17  and  N2_22 
REMARK    8  A    between atoms: C15_18  and  C16_19 
REMARK       I    between atoms: N2_22  and  C19_24 
REMARK    9  A    between atoms: C19_24  and  C20_26 
REMARK   10  A    between atoms: C20_26  and  N3_28 
REMARK       I    between atoms: C22_32  and  N4_34 
REMARK   11  A    between atoms: C26_38  and  C27_39 
REMARK       I    between atoms: C27_39  and  N5_41 
ROOT
HETATM    1  C12 UNL     1      -5.909  15.913  26.390  1.00  0.00     0.181 C 
ENDROOT
BRANCH   1   2
HETATM    2  C11 UNL     1      -6.144  16.601  27.697  1.00  0.00     0.018 C 
HETATM    3  C10 UNL     1      -5.498  17.942  27.849  1.00  0.00     0.007 C 
HETATM    4  C9  UNL     1      -6.461  19.092  27.794  1.00  0.00     0.001 C 
HETATM    5  C8  UNL     1      -7.886  18.665  28.291  1.00  0.00     0.009 C 
HETATM    6  C7  UNL     1      -7.668  17.648  29.300  1.00  0.00     0.020 C 
HETATM    7  C29 UNL     1      -7.454  16.413  28.351  1.00  0.00     0.016 C 
BRANCH   6   8
HETATM    8  C6  UNL     1      -8.596  17.248  30.323  1.00  0.00    -0.042 A 
HETATM    9  C4  UNL     1      -8.015  16.817  31.535  1.00  0.00    -0.054 A 
HETATM   10  C3  UNL     1      -8.859  16.393  32.524  1.00  0.00     0.014 A 
HETATM   11  C5  UNL     1      -6.549  16.859  31.741  1.00  0.00     0.049 C 
HETATM   12  C2  UNL     1     -10.230  16.376  32.375  1.00  0.00    -0.061 A 
HETATM   13  C1  UNL     1     -11.152  15.925  33.438  1.00  0.00     0.048 C 
HETATM   14  C32 UNL     1     -10.762  16.806  31.173  1.00  0.00     0.014 A 
HETATM   15  C30 UNL     1      -9.944  17.251  30.124  1.00  0.00    -0.054 A 
HETATM   16  C31 UNL     1     -10.654  17.662  28.886  1.00  0.00     0.049 C 
ENDBRANCH   6   8
ENDBRANCH   1   2
BRANCH   1  17
HETATM   17  N1  UNL     1      -5.294  16.964  25.507  1.00  0.00    -0.346 N 
HETATM   18  C13 UNL     1      -3.996  16.795  24.995  1.00  0.00     0.241 C 
HETATM   19  O1  UNL     1      -3.380  15.727  25.325  1.00  0.00    -0.271 OA
ATOM     20  H1  UNL     1      -5.824  17.806  25.278  1.00  0.00     0.163 HD
BRANCH  18  21
HETATM   21  C14 UNL     1      -3.325  17.813  24.088  1.00  0.00     0.177 C 
BRANCH  21  22
HETATM   22  C15 UNL     1      -2.931  18.965  24.889  1.00  0.00     0.038 C 
BRANCH  22  23
HETATM   23  C16 UNL     1      -1.496  19.190  25.195  1.00  0.00    -0.020 C 
HETATM   24  C17 UNL     1      -0.547  18.470  24.274  1.00  0.00     0.009 C 
HETATM   25  C18 UNL     1      -1.240  20.694  24.983  1.00  0.00     0.009 C 
ENDBRANCH  22  23
ENDBRANCH  21  22
BRANCH  21  26
HETATM   26  N2  UNL     1      -4.076  18.035  22.901  1.00  0.00    -0.346 N 
HETATM   27  C19 UNL     1      -4.035  17.279  21.733  1.00  0.00     0.248 C 
HETATM   28  O2  UNL     1      -3.321  16.275  21.604  1.00  0.00    -0.271 OA
ATOM     29  H2  UNL     1      -4.712  18.833  22.906  1.00  0.00     0.163 HD
BRANCH  27  30
HETATM   30  C20 UNL     1      -4.868  17.649  20.562  1.00  0.00     0.270 C 
HETATM   31  C21 UNL     1      -5.129  16.444  19.683  1.00  0.00     0.050 C 
BRANCH  30  32
HETATM   32  N3  UNL     1      -4.432  18.808  19.857  1.00  0.00    -0.067 N 
ATOM     33  H33 UNL     1      -4.340  19.596  20.498  1.00  0.00     0.275 HD
ATOM     34  H32 UNL     1      -3.461  18.700  19.568  1.00  0.00     0.275 HD
ATOM     35  H31 UNL     1      -5.011  19.069  19.059  1.00  0.00     0.275 HD
ENDBRANCH  30  32
ENDBRANCH  27  30
ENDBRANCH  21  26
ENDBRANCH  18  21
ENDBRANCH   1  17
BRANCH   1  36
HETATM   36  C22 UNL     1      -7.096  15.414  25.679  1.00  0.00     0.243 C 
HETATM   37  O3  UNL     1      -7.092  14.133  25.486  1.00  0.00    -0.271 OA
HETATM   38  N4  UNL     1      -8.234  16.070  25.184  1.00  0.00    -0.337 N 
HETATM   39  C23 UNL     1      -8.666  17.439  25.149  1.00  0.00     0.127 C 
HETATM   40  C26 UNL     1      -9.366  15.344  24.564  1.00  0.00     0.179 C 
HETATM   41  C24 UNL     1     -10.153  17.437  25.251  1.00  0.00     0.022 C 
HETATM   42  C25 UNL     1     -10.531  15.949  25.345  1.00  0.00     0.037 C 
BRANCH  40  43
HETATM   43  C27 UNL     1      -9.522  15.617  23.146  1.00  0.00     0.246 C 
HETATM   44  O4  UNL     1      -9.894  14.678  22.352  1.00  0.00    -0.271 OA
HETATM   45  N5  UNL     1      -9.294  16.865  22.533  1.00  0.00    -0.302 N 
HETATM   46  C28 UNL     1      -8.793  16.954  21.342  1.00  0.00     0.203 C 
ATOM     47  H5  UNL     1      -9.529  17.719  23.039  1.00  0.00     0.171 HD
HETATM   48  N6  UNL     1      -8.550  18.185  20.694  1.00  0.00    -0.066 NA
HETATM   49  N7  UNL     1      -8.474  15.761  20.657  1.00  0.00    -0.066 NA
ENDBRANCH  40  43
ENDBRANCH   1  36
TORSDOF 11
ENDMDL
MODEL 3
REMARK VINA RESULT: -9.363711682      2.255      5.233
REMARK  11 active torsions:
REMARK  status: ('A' for Active; 'I' for Inactive)
REMARK    1  A    between atoms: C6_6  and  C7_7 
REMARK    2  A    between atoms: C11_11  and  C12_12 
REMARK    3  A    between atoms: C12_12  and  N1_13 
REMARK    4  A    between atoms: C12_12  and  C22_32 
REMARK       I    between atoms: N1_13  and  C13_15 
REMARK    5  A    between atoms: C13_15  and  C14_17 
REMARK    6  A    between atoms: C14_17  and  C15_18 
REMARK    7  A    between atoms: C14_17  and  N2_22 
REMARK    8  A    between atoms: C15_18  and  C16_19 
REMARK       I    between atoms: N2_22  and  C19_24 
REMARK    9  A    between atoms: C19_24  and  C20_26 
REMARK   10  A    between atoms: C20_26  and  N3_28 
REMARK       I    between atoms: C22_32  and  N4_34 
REMARK   11  A    between atoms: C26_38  and  C27_39 
REMARK       I    between atoms: C27_39  and  N5_41 
ROOT
HETATM    1  C12 UNL     1      -6.032  16.203  26.495  1.00  0.00     0.181 C 
ENDROOT
BRANCH   1   2
HETATM    2  C11 UNL     1      -6.353  16.842  27.810  1.00  0.00     0.018 C 
HETATM    3  C10 UNL     1      -5.846  18.237  27.994  1.00  0.00     0.007 C 
HETATM    4  C9  UNL     1      -6.918  19.287  27.942  1.00  0.00     0.001 C 
HETATM    5  C8  UNL     1      -8.300  18.712  28.410  1.00  0.00     0.009 C 
HETATM    6  C7  UNL     1      -7.996  17.703  29.405  1.00  0.00     0.020 C 
HETATM    7  C29 UNL     1      -7.647  16.512  28.440  1.00  0.00     0.016 C 
BRANCH   6   8
HETATM    8  C6  UNL     1      -8.894  17.195  30.407  1.00  0.00    -0.042 A 
HETATM    9  C4  UNL     1      -8.280  16.701  31.579  1.00  0.00    -0.054 A 
HETATM   10  C3  UNL     1      -9.093  16.175  32.544  1.00  0.00     0.014 A 
HETATM   11  C5  UNL     1      -6.813  16.786  31.770  1.00  0.00     0.049 C 
HETATM   12  C2  UNL     1     -10.464  16.115  32.410  1.00  0.00    -0.061 A 
HETATM   13  C1  UNL     1     -11.354  15.554  33.447  1.00  0.00     0.048 C 
HETATM   14  C32 UNL     1     -11.029  16.609  31.247  1.00  0.00     0.014 A 
HETATM   15  C30 UNL     1     -10.243  17.160  30.224  1.00  0.00    -0.054 A 
HETATM   16  C31 UNL     1     -10.986  17.631  29.027  1.00  0.00     0.049 C 
ENDBRANCH   6   8
ENDBRANCH   1   2
BRANCH   1  17
HETATM   17  N1  UNL     1      -5.579  17.338  25.618  1.00  0.00    -0.346 N 
HETATM   18  C13 UNL     1      -4.376  17.245  24.898  1.00  0.00     0.241 C 
HETATM   19  O1  UNL     1      -3.700  16.171  25.038  1.00  0.00    -0.271 OA
ATOM     20  H1  UNL     1      -6.150  18.180  25.544  1.00  0.00     0.163 HD
BRANCH  18  21
HETATM   21  C14 UNL     1      -3.870  18.349  23.984  1.00  0.00     0.177 C 
BRANCH  21  22
HETATM   22  C15 UNL     1      -4.610  18.295  22.731  1.00  0.00     0.038 C 
BRANCH  22  23
HETATM   23  C16 UNL     1      -4.129  17.420  21.631  1.00  0.00    -0.020 C 
HETATM   24  C17 UNL     1      -5.199  16.557  21.016  1.00  0.00     0.009 C 
HETATM   25  C18 UNL     1      -3.641  18.361  20.514  1.00  0.00     0.009 C 
ENDBRANCH  22  23
ENDBRANCH  21  22
BRANCH  21  26
HETATM   26  N2  UNL     1      -2.449  18.378  23.934  1.00  0.00    -0.346 N 
HETATM   27  C19 UNL     1      -1.622  19.432  24.311  1.00  0.00     0.248 C 
HETATM   28  O2  UNL     1      -2.054  20.499  24.769  1.00  0.00    -0.271 OA
ATOM     29  H2  UNL     1      -1.987  17.539  23.584  1.00  0.00     0.163 HD
BRANCH  27  30
HETATM   30  C20 UNL     1      -0.147  19.322  24.179  1.00  0.00     0.270 C 
HETATM   31  C21 UNL     1       0.260  17.901  23.851  1.00  0.00     0.050 C 
BRANCH  30  32
HETATM   32  N3  UNL     1       0.596  19.917  25.239  1.00  0.00    -0.067 N 
ATOM     33  H33 UNL     1       1.583  19.675  25.156  1.00  0.00     0.275 HD
ATOM     34  H32 UNL     1       0.650  20.927  25.108  1.00  0.00     0.275 HD
ATOM     35  H31 UNL     1       0.258  19.700  26.176  1.00  0.00     0.275 HD
ENDBRANCH  30  32
ENDBRANCH  27  30
ENDBRANCH  21  26
ENDBRANCH  18  21
ENDBRANCH   1  17
BRANCH   1  36
HETATM   36  C22 UNL     1      -7.142  15.546  25.788  1.00  0.00     0.243 C 
HETATM   37  O3  UNL     1      -6.953  14.284  25.571  1.00  0.00    -0.271 OA
HETATM   38  N4  UNL     1      -8.370  16.036  25.316  1.00  0.00    -0.337 N 
HETATM   39  C23 UNL     1      -8.999  17.326  25.310  1.00  0.00     0.127 C 
HETATM   40  C26 UNL     1      -9.391  15.161  24.695  1.00  0.00     0.179 C 
HETATM   41  C24 UNL     1     -10.469  17.104  25.427  1.00  0.00     0.022 C 
HETATM   42  C25 UNL     1     -10.623  15.575  25.498  1.00  0.00     0.037 C 
BRANCH  40  43
HETATM   43  C27 UNL     1      -9.604  15.432  23.284  1.00  0.00     0.246 C 
HETATM   44  O4  UNL     1      -9.950  14.478  22.496  1.00  0.00    -0.271 OA
HETATM   45  N5  UNL     1      -9.458  16.691  22.671  1.00  0.00    -0.302 N 
HETATM   46  C28 UNL     1      -8.998  16.810  21.466  1.00  0.00     0.203 C 
ATOM     47  H5  UNL     1      -9.721  17.530  23.188  1.00  0.00     0.171 HD
HETATM   48  N6  UNL     1      -8.838  18.055  20.817  1.00  0.00    -0.066 NA
HETATM   49  N7  UNL     1      -8.640  15.638  20.765  1.00  0.00    -0.066 NA
ENDBRANCH  40  43
ENDBRANCH   1  36
TORSDOF 11
ENDMDL
MODEL 4
REMARK VINA RESULT: -9.160444120      4.158      9.289
REMARK  11 active torsions:
REMARK  status: ('A' for Active; 'I' for Inactive)
REMARK    1  A    between atoms: C6_6  and  C7_7 
REMARK    2  A    between atoms: C11_11  and  C12_12 
REMARK    3  A    between atoms: C12_12  and  N1_13 
REMARK    4  A    between atoms: C12_12  and  C22_32 
REMARK       I    between atoms: N1_13  and  C13_15 
REMARK    5  A    between atoms: C13_15  and  C14_17 
REMARK    6  A    between atoms: C14_17  and  C15_18 
REMARK    7  A    between atoms: C14_17  and  N2_22 
REMARK    8  A    between atoms: C15_18  and  C16_19 
REMARK       I    between atoms: N2_22  and  C19_24 
REMARK    9  A    between atoms: C19_24  and  C20_26 
REMARK   10  A    between atoms: C20_26  and  N3_28 
REMARK       I    between atoms: C22_32  and  N4_34 
REMARK   11  A    between atoms: C26_38  and  C27_39 
REMARK       I    between atoms: C27_39  and  N5_41 
ROOT
HETATM    1  C12 UNL     1      -9.299  14.603  27.094  1.00  0.00     0.181 C 
ENDROOT
BRANCH   1   2
HETATM    2  C11 UNL     1      -9.457  15.460  25.877  1.00  0.00     0.018 C 
HETATM    3  C10 UNL     1     -10.344  16.653  26.035  1.00  0.00     0.007 C 
HETATM    4  C9  UNL     1      -9.606  17.960  26.080  1.00  0.00     0.001 C 
HETATM    5  C8  UNL     1      -8.259  17.880  25.281  1.00  0.00     0.009 C 
HETATM    6  C7  UNL     1      -8.496  16.952  24.193  1.00  0.00     0.020 C 
HETATM    7  C29 UNL     1      -8.294  15.605  24.979  1.00  0.00     0.016 C 
BRANCH   6   8
HETATM    8  C6  UNL     1      -7.739  16.855  22.974  1.00  0.00    -0.042 A 
HETATM    9  C4  UNL     1      -8.488  16.557  21.816  1.00  0.00    -0.054 A 
HETATM   10  C3  UNL     1      -7.805  16.420  20.639  1.00  0.00     0.014 A 
HETATM   11  C5  UNL     1      -9.964  16.437  21.867  1.00  0.00     0.049 C 
HETATM   12  C2  UNL     1      -6.436  16.562  20.554  1.00  0.00    -0.061 A 
HETATM   13  C1  UNL     1      -5.687  16.421  19.288  1.00  0.00     0.048 C 
HETATM   14  C32 UNL     1      -5.736  16.854  21.711  1.00  0.00     0.014 A 
HETATM   15  C30 UNL     1      -6.385  17.005  22.945  1.00  0.00    -0.054 A 
HETATM   16  C31 UNL     1      -5.502  17.296  24.103  1.00  0.00     0.049 C 
ENDBRANCH   6   8
ENDBRANCH   1   2
BRANCH   1  17
HETATM   17  N1  UNL     1     -10.704  14.346  27.567  1.00  0.00    -0.346 N 
HETATM   18  C13 UNL     1     -10.952  13.404  28.580  1.00  0.00     0.241 C 
HETATM   19  O1  UNL     1      -9.941  12.788  29.056  1.00  0.00    -0.271 OA
ATOM     20  H1  UNL     1     -11.481  14.858  27.149  1.00  0.00     0.163 HD
BRANCH  18  21
HETATM   21  C14 UNL     1     -12.345  13.107  29.111  1.00  0.00     0.177 C 
BRANCH  21  22
HETATM   22  C15 UNL     1     -13.291  14.013  28.474  1.00  0.00     0.038 C 
BRANCH  22  23
HETATM   23  C16 UNL     1     -13.688  15.265  29.165  1.00  0.00    -0.020 C 
HETATM   24  C17 UNL     1     -13.628  16.495  28.299  1.00  0.00     0.009 C 
HETATM   25  C18 UNL     1     -15.167  15.090  29.559  1.00  0.00     0.009 C 
ENDBRANCH  22  23
ENDBRANCH  21  22
BRANCH  21  26
HETATM   26  N2  UNL     1     -12.355  13.002  30.530  1.00  0.00    -0.346 N 
HETATM   27  C19 UNL     1     -13.118  12.127  31.297  1.00  0.00     0.248 C 
HETATM   28  O2  UNL     1     -13.891  11.295  30.802  1.00  0.00    -0.271 OA
ATOM     29  H2  UNL     1     -11.737  13.635  31.038  1.00  0.00     0.163 HD
BRANCH  27  30
HETATM   30  C20 UNL     1     -13.035  12.150  32.778  1.00  0.00     0.270 C 
HETATM   31  C21 UNL     1     -14.418  12.144  33.396  1.00  0.00     0.050 C 
BRANCH  30  32
HETATM   32  N3  UNL     1     -12.156  13.132  33.316  1.00  0.00    -0.067 N 
ATOM     33  H33 UNL     1     -12.105  13.939  32.693  1.00  0.00     0.275 HD
ATOM     34  H32 UNL     1     -12.574  13.569  34.137  1.00  0.00     0.275 HD
ATOM     35  H31 UNL     1     -11.217  12.797  33.534  1.00  0.00     0.275 HD
ENDBRANCH  30  32
ENDBRANCH  27  30
ENDBRANCH  21  26
ENDBRANCH  18  21
ENDBRANCH   1  17
BRANCH   1  36
HETATM   36  C22 UNL     1      -8.578  15.195  28.232  1.00  0.00     0.243 C 
HETATM   37  O3  UNL     1      -7.318  14.901  28.264  1.00  0.00    -0.271 OA
HETATM   38  N4  UNL     1      -9.005  16.026  29.279  1.00  0.00    -0.337 N 
HETATM   39  C23 UNL     1     -10.270  16.588  29.661  1.00  0.00     0.127 C 
HETATM   40  C26 UNL     1      -8.073  16.579  30.288  1.00  0.00     0.179 C 
HETATM   41  C24 UNL     1      -9.995  17.912  30.288  1.00  0.00     0.022 C 
HETATM   42  C25 UNL     1      -8.465  18.055  30.233  1.00  0.00     0.037 C 
BRANCH  40  43
HETATM   43  C27 UNL     1      -8.290  16.057  31.625  1.00  0.00     0.246 C 
HETATM   44  O4  UNL     1      -8.202  14.793  31.840  1.00  0.00    -0.271 OA
HETATM   45  N5  UNL     1      -8.603  16.835  32.757  1.00  0.00    -0.302 N 
HETATM   46  C28 UNL     1      -9.401  16.401  33.680  1.00  0.00     0.203 C 
ATOM     47  H5  UNL     1      -8.191  17.764  32.852  1.00  0.00     0.171 HD
HETATM   48  N6  UNL     1      -9.739  17.152  34.828  1.00  0.00    -0.066 NA
HETATM   49  N7  UNL     1      -9.962  15.113  33.532  1.00  0.00    -0.066 NA
ENDBRANCH  40  43
ENDBRANCH   1  36
TORSDOF 11
ENDMDL
MODEL 5
REMARK VINA RESULT: -9.146134252      2.779      4.577
REMARK  11 active torsions:
REMARK  status: ('A' for Active; 'I' for Inactive)
REMARK    1  A    between atoms: C6_6  and  C7_7 
REMARK    2  A    between atoms: C11_11  and  C12_12 
REMARK    3  A    between atoms: C12_12  and  N1_13 
REMARK    4  A    between atoms: C12_12  and  C22_32 
REMARK       I    between atoms: N1_13  and  C13_15 
REMARK    5  A    between atoms: C13_15  and  C14_17 
REMARK    6  A    between atoms: C14_17  and  C15_18 
REMARK    7  A    between atoms: C14_17  and  N2_22 
REMARK    8  A    between atoms: C15_18  and  C16_19 
REMARK       I    between atoms: N2_22  and  C19_24 
REMARK    9  A    between atoms: C19_24  and  C20_26 
REMARK   10  A    between atoms: C20_26  and  N3_28 
REMARK       I    between atoms: C22_32  and  N4_34 
REMARK   11  A    between atoms: C26_38  and  C27_39 
REMARK       I    between atoms: C27_39  and  N5_41 
ROOT
HETATM    1  C12 UNL     1      -5.474  17.261  24.590  1.00  0.00     0.181 C 
ENDROOT
BRANCH   1   2
HETATM    2  C11 UNL     1      -5.978  16.634  25.852  1.00  0.00     0.018 C 
HETATM    3  C10 UNL     1      -5.189  16.939  27.086  1.00  0.00     0.007 C 
HETATM    4  C9  UNL     1      -5.878  17.881  28.031  1.00  0.00     0.001 C 
HETATM    5  C8  UNL     1      -7.437  17.776  27.904  1.00  0.00     0.009 C 
HETATM    6  C7  UNL     1      -7.716  16.397  27.556  1.00  0.00     0.020 C 
HETATM    7  C29 UNL     1      -7.436  16.478  26.011  1.00  0.00     0.016 C 
BRANCH   6   8
HETATM    8  C6  UNL     1      -8.967  15.710  27.731  1.00  0.00    -0.042 A 
HETATM    9  C4  UNL     1      -8.901  14.501  28.457  1.00  0.00    -0.054 A 
HETATM   10  C3  UNL     1     -10.061  13.795  28.617  1.00  0.00     0.014 A 
HETATM   11  C5  UNL     1      -7.628  14.037  29.057  1.00  0.00     0.049 C 
HETATM   12  C2  UNL     1     -11.267  14.220  28.101  1.00  0.00    -0.061 A 
HETATM   13  C1  UNL     1     -12.528  13.469  28.271  1.00  0.00     0.048 C 
HETATM   14  C32 UNL     1     -11.292  15.410  27.394  1.00  0.00     0.014 A 
HETATM   15  C30 UNL     1     -10.132  16.175  27.200  1.00  0.00    -0.054 A 
HETATM   16  C31 UNL     1     -10.308  17.416  26.404  1.00  0.00     0.049 C 
ENDBRANCH   6   8
ENDBRANCH   1   2
BRANCH   1  17
HETATM   17  N1  UNL     1      -6.204  16.545  23.487  1.00  0.00    -0.346 N 
HETATM   18  C13 UNL     1      -6.994  17.263  22.572  1.00  0.00     0.241 C 
HETATM   19  O1  UNL     1      -7.061  18.527  22.735  1.00  0.00    -0.271 OA
ATOM     20  H1  UNL     1      -6.125  15.531  23.402  1.00  0.00     0.163 HD
BRANCH  18  21
HETATM   21  C14 UNL     1      -7.745  16.601  21.428  1.00  0.00     0.177 C 
BRANCH  21  22
HETATM   22  C15 UNL     1      -8.152  15.267  21.848  1.00  0.00     0.038 C 
BRANCH  22  23
HETATM   23  C16 UNL     1      -9.532  15.045  22.350  1.00  0.00    -0.020 C 
HETATM   24  C17 UNL     1      -9.613  14.769  23.829  1.00  0.00     0.009 C 
HETATM   25  C18 UNL     1     -10.293  16.363  22.117  1.00  0.00     0.009 C 
ENDBRANCH  22  23
ENDBRANCH  21  22
BRANCH  21  26
HETATM   26  N2  UNL     1      -7.053  16.744  20.194  1.00  0.00    -0.346 N 
HETATM   27  C19 UNL     1      -5.744  16.359  19.921  1.00  0.00     0.248 C 
HETATM   28  O2  UNL     1      -5.014  15.810  20.757  1.00  0.00    -0.271 OA
ATOM     29  H2  UNL     1      -7.572  17.173  19.428  1.00  0.00     0.163 HD
BRANCH  27  30
HETATM   30  C20 UNL     1      -5.149  16.594  18.582  1.00  0.00     0.270 C 
HETATM   31  C21 UNL     1      -3.867  15.806  18.415  1.00  0.00     0.050 C 
BRANCH  30  32
HETATM   32  N3  UNL     1      -5.052  17.963  18.199  1.00  0.00    -0.067 N 
ATOM     33  H33 UNL     1      -5.654  18.537  18.789  1.00  0.00     0.275 HD
ATOM     34  H32 UNL     1      -4.140  18.338  18.459  1.00  0.00     0.275 HD
ATOM     35  H31 UNL     1      -5.243  18.149  17.215  1.00  0.00     0.275 HD
ENDBRANCH  30  32
ENDBRANCH  27  30
ENDBRANCH  21  26
ENDBRANCH  18  21
ENDBRANCH   1  17
BRANCH   1  36
HETATM   36  C22 UNL     1      -4.038  17.114  24.303  1.00  0.00     0.243 C 
HETATM   37  O3  UNL     1      -3.438  16.253  25.060  1.00  0.00    -0.271 OA
HETATM   38  N4  UNL     1      -3.207  17.728  23.353  1.00  0.00    -0.337 N 
HETATM   39  C23 UNL     1      -3.409  18.725  22.340  1.00  0.00     0.127 C 
HETATM   40  C26 UNL     1      -1.783  17.361  23.185  1.00  0.00     0.179 C 
HETATM   41  C24 UNL     1      -2.486  18.404  21.213  1.00  0.00     0.022 C 
HETATM   42  C25 UNL     1      -1.740  17.141  21.673  1.00  0.00     0.037 C 
BRANCH  40  43
HETATM   43  C27 UNL     1      -0.863  18.420  23.559  1.00  0.00     0.246 C 
HETATM   44  O4  UNL     1      -1.033  19.053  24.664  1.00  0.00    -0.271 OA
HETATM   45  N5  UNL     1       0.243  18.839  22.794  1.00  0.00    -0.302 N 
HETATM   46  C28 UNL     1       0.606  20.082  22.750  1.00  0.00     0.203 C 
ATOM     47  H5  UNL     1       0.770  18.147  22.261  1.00  0.00     0.171 HD
HETATM   48  N6  UNL     1       1.708  20.540  21.995  1.00  0.00    -0.066 NA
HETATM   49  N7  UNL     1      -0.135  21.025  23.495  1.00  0.00    -0.066 NA
ENDBRANCH  40  43
ENDBRANCH   1  36
TORSDOF 11
ENDMDL
