MODEL 1
REMARK VINA RESULT: -8.536248821      0.000      0.000
REMARK  8 active torsions:
REMARK  status: ('A' for Active; 'I' for Inactive)
REMARK    1  A    between atoms: C2_2  and  C3_3 
REMARK    2  A    between atoms: C6_6  and  N1_7 
REMARK       I    between atoms: N1_7  and  C7_9 
REMARK    3  A    between atoms: C7_9  and  C8_11 
REMARK    4  A    between atoms: C8_11  and  C9_12 
REMARK    5  A    between atoms: C8_11  and  C17_24 
REMARK    6  A    between atoms: C9_12  and  C10_13 
REMARK       I    between atoms: C10_13  and  N2_15 
REMARK    7  A    between atoms: C13_18  and  C14_19 
REMARK    8  A    between atoms: C17_24  and  C18_25 
ROOT
HETATM    1  C8  UNL     1     -10.154  16.577  26.098  1.00  0.00     0.087 C 
ENDROOT
BRANCH   1   2
HETATM    2  C7  UNL     1      -8.988  17.312  26.565  1.00  0.00     0.222 C 
HETATM    3  N1  UNL     1      -7.678  16.766  26.663  1.00  0.00    -0.356 N 
ATOM      4  H1  UNL     1      -7.539  15.794  26.386  1.00  0.00     0.162 HD
HETATM    5  O1  UNL     1      -9.117  18.532  26.920  1.00  0.00    -0.273 OA
BRANCH   3   6
HETATM    6  C6  UNL     1      -6.543  17.510  27.128  1.00  0.00     0.088 A 
HETATM    7  C3  UNL     1      -5.635  18.087  26.096  1.00  0.00     0.008 A 
HETATM    8  C4  UNL     1      -4.469  17.371  26.737  1.00  0.00     0.009 A 
HETATM    9  C5  UNL     1      -5.413  16.721  27.694  1.00  0.00     0.026 A 
BRANCH   7  10
HETATM   10  C2  UNL     1      -5.845  17.587  24.682  1.00  0.00     0.002 C 
HETATM   11  C1  UNL     1      -6.493  18.684  23.873  1.00  0.00     0.005 C 
ENDBRANCH   7  10
ENDBRANCH   3   6
ENDBRANCH   1   2
BRANCH   1  12
HETATM   12  C9  UNL     1     -10.954  15.989  27.281  1.00  0.00     0.117 C 
BRANCH  12  13
HETATM   13  C10 UNL     1     -10.080  15.158  28.147  1.00  0.00     0.220 C 
HETATM   14  O2  UNL     1      -9.335  14.261  27.673  1.00  0.00    -0.273 OA
HETATM   15  N2  UNL     1     -10.053  15.350  29.559  1.00  0.00    -0.352 N 
HETATM   16  C11 UNL     1      -9.191  14.520  30.359  1.00  0.00     0.126 C 
HETATM   17  C16 UNL     1     -10.877  16.364  30.208  1.00  0.00     0.126 C 
HETATM   18  C12 UNL     1      -9.031  15.151  31.708  1.00  0.00     0.033 C 
HETATM   19  C13 UNL     1     -10.386  15.220  32.372  1.00  0.00     0.078 C 
HETATM   20  C15 UNL     1     -11.447  15.796  31.467  1.00  0.00     0.033 C 
BRANCH  19  21
HETATM   21  C14 UNL     1     -10.305  16.053  33.585  1.00  0.00     0.235 C 
HETATM   22  N3  UNL     1     -11.394  16.097  34.481  1.00  0.00    -0.062 NA
HETATM   23  O3  UNL     1      -9.279  16.717  33.828  1.00  0.00    -0.277 OA
ENDBRANCH  19  21
ENDBRANCH  12  13
ENDBRANCH   1  12
BRANCH   1  24
HETATM   24  C17 UNL     1      -9.956  15.519  25.068  1.00  0.00     0.019 C 
BRANCH  24  25
HETATM   25  C18 UNL     1      -9.503  15.859  23.725  1.00  0.00    -0.014 C 
HETATM   26  C19 UNL     1      -8.401  15.134  23.062  1.00  0.00     0.005 C 
HETATM   27  C20 UNL     1      -7.887  16.066  21.943  1.00  0.00     0.000 C 
HETATM   28  C21 UNL     1      -8.956  16.713  21.164  1.00  0.00     0.000 C 
HETATM   29  C22 UNL     1     -10.339  16.242  21.387  1.00  0.00     0.000 C 
HETATM   30  C23 UNL     1     -10.686  15.800  22.747  1.00  0.00     0.005 C 
ENDBRANCH  24  25
ENDBRANCH   1  24
TORSDOF 8
ENDMDL
MODEL 2
REMARK VINA RESULT: -8.527263462      2.409      8.496
REMARK  8 active torsions:
REMARK  status: ('A' for Active; 'I' for Inactive)
REMARK    1  A    between atoms: C2_2  and  C3_3 
REMARK    2  A    between atoms: C6_6  and  N1_7 
REMARK       I    between atoms: N1_7  and  C7_9 
REMARK    3  A    between atoms: C7_9  and  C8_11 
REMARK    4  A    between atoms: C8_11  and  C9_12 
REMARK    5  A    between atoms: C8_11  and  C17_24 
REMARK    6  A    between atoms: C9_12  and  C10_13 
REMARK       I    between atoms: C10_13  and  N2_15 
REMARK    7  A    between atoms: C13_18  and  C14_19 
REMARK    8  A    between atoms: C17_24  and  C18_25 
ROOT
HETATM    1  C8  UNL     1      -8.572  16.499  29.690  1.00  0.00     0.087 C 
ENDROOT
BRANCH   1   2
HETATM    2  C7  UNL     1      -9.877  16.110  29.177  1.00  0.00     0.222 C 
HETATM    3  N1  UNL     1     -10.250  14.778  28.853  1.00  0.00    -0.356 N 
ATOM      4  H1  UNL     1      -9.562  14.037  28.989  1.00  0.00     0.162 HD
HETATM    5  O1  UNL     1     -10.770  17.005  28.993  1.00  0.00    -0.273 OA
BRANCH   3   6
HETATM    6  C6  UNL     1     -11.544  14.418  28.346  1.00  0.00     0.088 A 
HETATM    7  C3  UNL     1     -12.472  13.720  29.281  1.00  0.00     0.008 A 
HETATM    8  C4  UNL     1     -12.611  12.593  28.284  1.00  0.00     0.009 A 
HETATM    9  C5  UNL     1     -11.598  13.258  27.412  1.00  0.00     0.026 A 
BRANCH   7  10
HETATM   10  C2  UNL     1     -11.853  13.210  30.565  1.00  0.00     0.002 C 
HETATM   11  C1  UNL     1     -12.552  11.933  30.964  1.00  0.00     0.005 C 
ENDBRANCH   7  10
ENDBRANCH   3   6
ENDBRANCH   1   2
BRANCH   1  12
HETATM   12  C9  UNL     1      -7.465  16.257  28.640  1.00  0.00     0.117 C 
BRANCH  12  13
HETATM   13  C10 UNL     1      -7.522  17.281  27.568  1.00  0.00     0.220 C 
HETATM   14  O2  UNL     1      -7.239  18.487  27.786  1.00  0.00    -0.273 OA
HETATM   15  N2  UNL     1      -7.905  16.930  26.240  1.00  0.00    -0.352 N 
HETATM   16  C11 UNL     1      -7.947  17.957  25.233  1.00  0.00     0.126 C 
HETATM   17  C16 UNL     1      -8.251  15.559  25.882  1.00  0.00     0.126 C 
HETATM   18  C12 UNL     1      -7.976  17.308  23.883  1.00  0.00     0.033 C 
HETATM   19  C13 UNL     1      -9.231  16.473  23.776  1.00  0.00     0.078 C 
HETATM   20  C15 UNL     1      -9.437  15.578  24.973  1.00  0.00     0.033 C 
BRANCH  19  21
HETATM   21  C14 UNL     1      -9.168  15.631  22.568  1.00  0.00     0.235 C 
HETATM   22  N3  UNL     1      -9.886  16.006  21.413  1.00  0.00    -0.062 NA
HETATM   23  O3  UNL     1      -8.484  14.590  22.559  1.00  0.00    -0.277 OA
ENDBRANCH  19  21
ENDBRANCH  12  13
ENDBRANCH   1  12
BRANCH   1  24
HETATM   24  C17 UNL     1      -8.133  15.941  31.001  1.00  0.00     0.019 C 
BRANCH  24  25
HETATM   25  C18 UNL     1      -9.022  15.960  32.155  1.00  0.00    -0.014 C 
HETATM   26  C19 UNL     1      -9.529  14.720  32.775  1.00  0.00     0.005 C 
HETATM   27  C20 UNL     1     -10.783  15.124  33.580  1.00  0.00     0.000 C 
HETATM   28  C21 UNL     1     -10.618  16.359  34.364  1.00  0.00     0.000 C 
HETATM   29  C22 UNL     1      -9.256  16.925  34.463  1.00  0.00     0.000 C 
HETATM   30  C23 UNL     1      -8.375  16.758  33.296  1.00  0.00     0.005 C 
ENDBRANCH  24  25
ENDBRANCH   1  24
TORSDOF 8
ENDMDL
MODEL 3
REMARK VINA RESULT: -8.526367573      1.375      1.714
REMARK  8 active torsions:
REMARK  status: ('A' for Active; 'I' for Inactive)
REMARK    1  A    between atoms: C2_2  and  C3_3 
REMARK    2  A    between atoms: C6_6  and  N1_7 
REMARK       I    between atoms: N1_7  and  C7_9 
REMARK    3  A    between atoms: C7_9  and  C8_11 
REMARK    4  A    between atoms: C8_11  and  C9_12 
REMARK    5  A    between atoms: C8_11  and  C17_24 
REMARK    6  A    between atoms: C9_12  and  C10_13 
REMARK       I    between atoms: C10_13  and  N2_15 
REMARK    7  A    between atoms: C13_18  and  C14_19 
REMARK    8  A    between atoms: C17_24  and  C18_25 
ROOT
HETATM    1  C8  UNL     1     -10.075  16.132  25.878  1.00  0.00     0.087 C 
ENDROOT
BRANCH   1   2
HETATM    2  C7  UNL     1      -9.288  17.350  25.994  1.00  0.00     0.222 C 
HETATM    3  N1  UNL     1      -7.870  17.387  26.092  1.00  0.00    -0.356 N 
ATOM      4  H1  UNL     1      -7.363  16.501  26.078  1.00  0.00     0.162 HD
HETATM    5  O1  UNL     1      -9.882  18.481  26.015  1.00  0.00    -0.273 OA
BRANCH   3   6
HETATM    6  C6  UNL     1      -7.114  18.601  26.208  1.00  0.00     0.088 A 
HETATM    7  C3  UNL     1      -5.631  18.475  26.289  1.00  0.00     0.008 A 
HETATM    8  C4  UNL     1      -5.646  19.260  27.580  1.00  0.00     0.009 A 
HETATM    9  C5  UNL     1      -7.138  19.281  27.533  1.00  0.00     0.026 A 
BRANCH   7  10
HETATM   10  C2  UNL     1      -5.101  17.077  26.530  1.00  0.00     0.002 C 
HETATM   11  C1  UNL     1      -4.036  16.781  25.502  1.00  0.00     0.005 C 
ENDBRANCH   7  10
ENDBRANCH   3   6
ENDBRANCH   1   2
BRANCH   1  12
HETATM   12  C9  UNL     1      -9.405  14.961  26.631  1.00  0.00     0.117 C 
BRANCH  12  13
HETATM   13  C10 UNL     1     -10.211  14.566  27.814  1.00  0.00     0.220 C 
HETATM   14  O2  UNL     1     -11.259  13.880  27.704  1.00  0.00    -0.273 OA
HETATM   15  N2  UNL     1      -9.819  14.955  29.128  1.00  0.00    -0.352 N 
HETATM   16  C11 UNL     1     -10.631  14.549  30.246  1.00  0.00     0.126 C 
HETATM   17  C16 UNL     1      -8.619  15.750  29.365  1.00  0.00     0.126 C 
HETATM   18  C12 UNL     1      -9.837  14.717  31.505  1.00  0.00     0.033 C 
HETATM   19  C13 UNL     1      -9.488  16.178  31.665  1.00  0.00     0.078 C 
HETATM   20  C15 UNL     1      -8.914  16.779  30.406  1.00  0.00     0.033 C 
BRANCH  19  21
HETATM   21  C14 UNL     1      -8.506  16.340  32.751  1.00  0.00     0.235 C 
HETATM   22  N3  UNL     1      -8.900  16.925  33.973  1.00  0.00    -0.062 NA
HETATM   23  O3  UNL     1      -7.328  15.963  32.598  1.00  0.00    -0.277 OA
ENDBRANCH  19  21
ENDBRANCH  12  13
ENDBRANCH   1  12
BRANCH   1  24
HETATM   24  C17 UNL     1     -10.472  15.675  24.517  1.00  0.00     0.019 C 
BRANCH  24  25
HETATM   25  C18 UNL     1      -9.693  16.055  23.345  1.00  0.00    -0.014 C 
HETATM   26  C19 UNL     1      -8.348  15.505  23.084  1.00  0.00     0.005 C 
HETATM   27  C20 UNL     1      -7.667  16.483  22.104  1.00  0.00     0.000 C 
HETATM   28  C21 UNL     1      -8.537  16.931  21.003  1.00  0.00     0.000 C 
HETATM   29  C22 UNL     1      -9.838  16.248  20.844  1.00  0.00     0.000 C 
HETATM   30  C23 UNL     1     -10.506  15.784  22.071  1.00  0.00     0.005 C 
ENDBRANCH  24  25
ENDBRANCH   1  24
TORSDOF 8
ENDMDL
MODEL 4
REMARK VINA RESULT: -8.500087967      1.988      4.185
REMARK  8 active torsions:
REMARK  status: ('A' for Active; 'I' for Inactive)
REMARK    1  A    between atoms: C2_2  and  C3_3 
REMARK    2  A    between atoms: C6_6  and  N1_7 
REMARK       I    between atoms: N1_7  and  C7_9 
REMARK    3  A    between atoms: C7_9  and  C8_11 
REMARK    4  A    between atoms: C8_11  and  C9_12 
REMARK    5  A    between atoms: C8_11  and  C17_24 
REMARK    6  A    between atoms: C9_12  and  C10_13 
REMARK       I    between atoms: C10_13  and  N2_15 
REMARK    7  A    between atoms: C13_18  and  C14_19 
REMARK    8  A    between atoms: C17_24  and  C18_25 
ROOT
HETATM    1  C8  UNL     1      -9.938  15.841  26.934  1.00  0.00     0.087 C 
ENDROOT
BRANCH   1   2
HETATM    2  C7  UNL     1      -8.895  15.907  25.923  1.00  0.00     0.222 C 
HETATM    3  N1  UNL     1      -8.061  17.037  25.698  1.00  0.00    -0.356 N 
ATOM      4  H1  UNL     1      -8.198  17.861  26.283  1.00  0.00     0.162 HD
HETATM    5  O1  UNL     1      -8.689  14.898  25.167  1.00  0.00    -0.273 OA
BRANCH   3   6
HETATM    6  C6  UNL     1      -7.039  17.080  24.692  1.00  0.00     0.088 A 
HETATM    7  C3  UNL     1      -5.644  17.339  25.149  1.00  0.00     0.008 A 
HETATM    8  C4  UNL     1      -5.561  18.510  24.198  1.00  0.00     0.009 A 
HETATM    9  C5  UNL     1      -6.994  18.298  23.835  1.00  0.00     0.026 A 
BRANCH   7  10
HETATM   10  C2  UNL     1      -5.497  17.813  26.580  1.00  0.00     0.002 C 
HETATM   11  C1  UNL     1      -4.655  16.813  27.335  1.00  0.00     0.005 C 
ENDBRANCH   7  10
ENDBRANCH   3   6
ENDBRANCH   1   2
BRANCH   1  12
HETATM   12  C9  UNL     1      -9.748  16.938  28.005  1.00  0.00     0.117 C 
BRANCH  12  13
HETATM   13  C10 UNL     1      -8.833  16.475  29.078  1.00  0.00     0.220 C 
HETATM   14  O2  UNL     1      -7.631  16.186  28.846  1.00  0.00    -0.273 OA
HETATM   15  N2  UNL     1      -9.289  16.340  30.421  1.00  0.00    -0.352 N 
HETATM   16  C11 UNL     1      -8.366  15.886  31.428  1.00  0.00     0.126 C 
HETATM   17  C16 UNL     1     -10.664  16.651  30.796  1.00  0.00     0.126 C 
HETATM   18  C12 UNL     1      -8.934  16.201  32.779  1.00  0.00     0.033 C 
HETATM   19  C13 UNL     1     -10.235  15.452  32.942  1.00  0.00     0.078 C 
HETATM   20  C15 UNL     1     -11.153  15.617  31.757  1.00  0.00     0.033 C 
BRANCH  19  21
HETATM   21  C14 UNL     1     -10.937  15.928  34.147  1.00  0.00     0.235 C 
HETATM   22  N3  UNL     1     -12.167  15.347  34.519  1.00  0.00    -0.062 NA
HETATM   23  O3  UNL     1     -10.450  16.840  34.842  1.00  0.00    -0.277 OA
ENDBRANCH  19  21
ENDBRANCH  12  13
ENDBRANCH   1  12
BRANCH   1  24
HETATM   24  C17 UNL     1     -10.185  14.536  27.610  1.00  0.00     0.019 C 
BRANCH  24  25
HETATM   25  C18 UNL     1     -11.412  14.305  28.362  1.00  0.00    -0.014 C 
HETATM   26  C19 UNL     1     -12.698  14.913  27.971  1.00  0.00     0.005 C 
HETATM   27  C20 UNL     1     -13.592  14.874  29.229  1.00  0.00     0.000 C 
HETATM   28  C21 UNL     1     -13.541  13.597  29.960  1.00  0.00     0.000 C 
HETATM   29  C22 UNL     1     -12.841  12.469  29.310  1.00  0.00     0.000 C 
HETATM   30  C23 UNL     1     -11.681  12.796  28.466  1.00  0.00     0.005 C 
ENDBRANCH  24  25
ENDBRANCH   1  24
TORSDOF 8
ENDMDL
MODEL 5
REMARK VINA RESULT: -8.482185616      1.548      4.213
REMARK  8 active torsions:
REMARK  status: ('A' for Active; 'I' for Inactive)
REMARK    1  A    between atoms: C2_2  and  C3_3 
REMARK    2  A    between atoms: C6_6  and  N1_7 
REMARK       I    between atoms: N1_7  and  C7_9 
REMARK    3  A    between atoms: C7_9  and  C8_11 
REMARK    4  A    between atoms: C8_11  and  C9_12 
REMARK    5  A    between atoms: C8_11  and  C17_24 
REMARK    6  A    between atoms: C9_12  and  C10_13 
REMARK       I    between atoms: C10_13  and  N2_15 
REMARK    7  A    between atoms: C13_18  and  C14_19 
REMARK    8  A    between atoms: C17_24  and  C18_25 
ROOT
HETATM    1  C8  UNL     1      -8.177  16.682  26.687  1.00  0.00     0.087 C 
ENDROOT
BRANCH   1   2
HETATM    2  C7  UNL     1      -8.775  15.945  25.584  1.00  0.00     0.222 C 
HETATM    3  N1  UNL     1      -8.519  16.205  24.210  1.00  0.00    -0.356 N 
ATOM      4  H1  UNL     1      -7.871  16.957  23.974  1.00  0.00     0.162 HD
HETATM    5  O1  UNL     1      -9.591  14.996  25.834  1.00  0.00    -0.273 OA
BRANCH   3   6
HETATM    6  C6  UNL     1      -9.121  15.466  23.137  1.00  0.00     0.088 A 
HETATM    7  C3  UNL     1      -8.576  15.686  21.767  1.00  0.00     0.008 A 
HETATM    8  C4  UNL     1      -9.963  16.042  21.285  1.00  0.00     0.009 A 
HETATM    9  C5  UNL     1     -10.466  15.920  22.685  1.00  0.00     0.026 A 
BRANCH   7  10
HETATM   10  C2  UNL     1      -7.646  16.870  21.611  1.00  0.00     0.002 C 
HETATM   11  C1  UNL     1      -6.461  16.447  20.777  1.00  0.00     0.005 C 
ENDBRANCH   7  10
ENDBRANCH   3   6
ENDBRANCH   1   2
BRANCH   1  12
HETATM   12  C9  UNL     1      -9.102  16.680  27.925  1.00  0.00     0.117 C 
BRANCH  12  13
HETATM   13  C10 UNL     1      -8.335  16.363  29.156  1.00  0.00     0.220 C 
HETATM   14  O2  UNL     1      -7.089  16.190  29.135  1.00  0.00    -0.273 OA
HETATM   15  N2  UNL     1      -8.990  16.242  30.416  1.00  0.00    -0.352 N 
HETATM   16  C11 UNL     1      -8.205  15.932  31.582  1.00  0.00     0.126 C 
HETATM   17  C16 UNL     1     -10.431  16.426  30.548  1.00  0.00     0.126 C 
HETATM   18  C12 UNL     1      -9.013  16.248  32.804  1.00  0.00     0.033 C 
HETATM   19  C13 UNL     1     -10.246  15.376  32.805  1.00  0.00     0.078 C 
HETATM   20  C15 UNL     1     -10.970  15.391  31.482  1.00  0.00     0.033 C 
BRANCH  19  21
HETATM   21  C14 UNL     1     -11.178  15.831  33.853  1.00  0.00     0.235 C 
HETATM   22  N3  UNL     1     -12.515  15.382  33.847  1.00  0.00    -0.062 NA
HETATM   23  O3  UNL     1     -10.792  16.609  34.746  1.00  0.00    -0.277 OA
ENDBRANCH  19  21
ENDBRANCH  12  13
ENDBRANCH   1  12
BRANCH   1  24
HETATM   24  C17 UNL     1      -7.703  18.072  26.434  1.00  0.00     0.019 C 
BRANCH  24  25
HETATM   25  C18 UNL     1      -6.374  18.320  25.890  1.00  0.00    -0.014 C 
HETATM   26  C19 UNL     1      -5.661  19.594  26.110  1.00  0.00     0.005 C 
HETATM   27  C20 UNL     1      -4.586  19.679  25.006  1.00  0.00     0.000 C 
HETATM   28  C21 UNL     1      -3.853  18.421  24.784  1.00  0.00     0.000 C 
HETATM   29  C22 UNL     1      -4.069  17.329  25.756  1.00  0.00     0.000 C 
HETATM   30  C23 UNL     1      -5.409  17.219  26.355  1.00  0.00     0.005 C 
ENDBRANCH  24  25
ENDBRANCH   1  24
TORSDOF 8
ENDMDL
