MODEL 1
REMARK VINA RESULT: -5.521960038      0.000      0.000
REMARK  16 active torsions:
REMARK  status: ('A' for Active; 'I' for Inactive)
REMARK    1  A    between atoms: C3_3  and  C6_6 
REMARK    2  A    between atoms: C7_7  and  O1_8 
REMARK    3  A    between atoms: C8_12  and  C9_13 
REMARK    4  A    between atoms: C9_13  and  C10_14 
REMARK    5  A    between atoms: C13_17  and  O2_18 
REMARK    6  A    between atoms: C14_22  and  C15_23 
REMARK    7  A    between atoms: C15_23  and  C16_24 
REMARK    8  A    between atoms: C19_27  and  O3_28 
REMARK    9  A    between atoms: C20_32  and  C21_33 
REMARK   10  A    between atoms: C21_33  and  C22_34 
REMARK   11  A    between atoms: C22_34  and  C23_35 
REMARK   12  A    between atoms: C23_35  and  N4_36 
REMARK   13  A    between atoms: C26_45  and  C27_46 
REMARK   14  A    between atoms: N8_51  and  C31_52 
REMARK   15  A    between atoms: C31_52  and  C33_54 
REMARK   16  A    between atoms: C33_54  and  C34_55 
ROOT
HETATM    1  C1  UNL     1      16.253   9.480  15.119  1.00  0.00     0.098 C 
HETATM    2  C2  UNL     1      15.137   9.204  15.555  1.00  0.00    -0.176 C 
HETATM    3  C3  UNL     1      13.810   8.923  16.097  1.00  0.00     0.032 C 
HETATM    4  C4  UNL     1      12.845   9.229  14.974  1.00  0.00     0.030 C 
HETATM    5  C5  UNL     1      13.503  10.056  17.105  1.00  0.00     0.030 C 
ENDROOT
BRANCH   3   6
HETATM    6  C6  UNL     1      13.659   7.613  16.732  1.00  0.00     0.181 C 
HETATM    7  C7  UNL     1      14.331   6.529  15.954  1.00  0.00     0.141 C 
HETATM    8  N1  UNL     1      15.445   5.736  16.139  1.00  0.00    -0.339 N 
HETATM    9  C8  UNL     1      16.857   5.812  16.021  1.00  0.00     0.062 C 
ATOM     10  H1  UNL     1      15.169   4.809  16.461  1.00  0.00     0.167 HD
HETATM   11  C13 UNL     1      17.646   6.422  17.104  1.00  0.00     0.159 C 
HETATM   12  N2  UNL     1      17.836   6.083  18.430  1.00  0.00    -0.357 N 
HETATM   13  C14 UNL     1      18.274   4.897  19.096  1.00  0.00     0.158 C 
ATOM     14  H2  UNL     1      17.617   6.845  19.071  1.00  0.00     0.162 HD
HETATM   15  C19 UNL     1      17.906   4.932  20.541  1.00  0.00     0.135 C 
HETATM   16  N3  UNL     1      16.615   4.971  21.081  1.00  0.00    -0.359 N 
HETATM   17  C20 UNL     1      15.581   5.968  20.865  1.00  0.00     0.175 C 
ATOM     18  H3  UNL     1      16.369   4.202  21.705  1.00  0.00     0.162 HD
HETATM   19  C25 UNL     1      14.271   5.344  21.179  1.00  0.00     0.241 C 
HETATM   20  O4  UNL     1      14.199   4.430  22.086  1.00  0.00    -0.271 OA
HETATM   21  N7  UNL     1      13.121   5.741  20.494  1.00  0.00    -0.346 N 
HETATM   22  C26 UNL     1      12.884   6.985  19.778  1.00  0.00     0.180 C 
ATOM     23  H7  UNL     1      12.350   5.073  20.497  1.00  0.00     0.163 HD
HETATM   24  C30 UNL     1      12.151   6.662  18.547  1.00  0.00     0.244 C 
HETATM   25  O5  UNL     1      11.226   5.800  18.772  1.00  0.00    -0.271 OA
HETATM   26  N8  UNL     1      12.358   7.178  17.216  1.00  0.00    -0.332 N 
BRANCH   7  27
HETATM   27  O1  UNL     1      13.636   6.344  14.849  1.00  0.00    -0.348 OA
ATOM     28  H1  UNL     1      14.194   5.883  14.234  1.00  0.00     0.219 HD
ENDBRANCH   7  27
BRANCH   9  29
HETATM   29  C9  UNL     1      17.386   6.255  14.653  1.00  0.00     0.065 C 
BRANCH  29  30
HETATM   30  C10 UNL     1      17.474   5.132  13.681  1.00  0.00    -0.017 C 
HETATM   31  C11 UNL     1      18.864   4.906  13.127  1.00  0.00     0.010 C 
HETATM   32  C12 UNL     1      16.590   5.508  12.489  1.00  0.00     0.010 C 
ENDBRANCH  29  30
ENDBRANCH   9  29
BRANCH  11  33
HETATM   33  O2  UNL     1      18.290   7.493  16.717  1.00  0.00    -0.345 OA
ATOM     34  H2  UNL     1      19.085   7.290  16.239  1.00  0.00     0.219 HD
ENDBRANCH  11  33
BRANCH  13  35
HETATM   35  C15 UNL     1      17.868   3.596  18.520  1.00  0.00     0.037 C 
BRANCH  35  36
HETATM   36  C16 UNL     1      19.078   2.823  18.037  1.00  0.00    -0.020 C 
HETATM   37  C17 UNL     1      19.267   2.895  16.555  1.00  0.00     0.009 C 
HETATM   38  C18 UNL     1      18.796   1.351  18.395  1.00  0.00     0.009 C 
ENDBRANCH  35  36
ENDBRANCH  13  35
BRANCH  15  39
HETATM   39  O3  UNL     1      18.867   4.924  21.419  1.00  0.00    -0.348 OA
ATOM     40  H3  UNL     1      19.744   5.138  21.124  1.00  0.00     0.219 HD
ENDBRANCH  15  39
BRANCH  17  41
HETATM   41  C21 UNL     1      15.765   7.122  21.864  1.00  0.00     0.036 C 
BRANCH  41  42
HETATM   42  C22 UNL     1      16.696   8.169  21.355  1.00  0.00     0.022 C 
BRANCH  42  43
HETATM   43  C23 UNL     1      16.057   8.787  20.109  1.00  0.00     0.122 C 
BRANCH  43  44
HETATM   44  N4  UNL     1      17.087   9.132  19.174  1.00  0.00    -0.367 N 
HETATM   45  C24 UNL     1      17.200  10.299  18.675  1.00  0.00     0.196 C 
HETATM   46  N5  UNL     1      18.241  10.574  17.756  1.00  0.00    -0.067 NA
HETATM   47  N6  UNL     1      16.280  11.307  19.047  1.00  0.00    -0.067 NA
ATOM     48  H4  UNL     1      17.757   8.415  18.897  1.00  0.00     0.161 HD
ENDBRANCH  43  44
ENDBRANCH  42  43
ENDBRANCH  41  42
ENDBRANCH  17  41
BRANCH  22  49
HETATM   49  C27 UNL     1      12.045   7.796  20.780  1.00  0.00     0.009 C 
HETATM   50  C28 UNL     1      12.629   9.134  21.090  1.00  0.00     0.012 C 
HETATM   51  C29 UNL     1      11.636   7.015  21.981  1.00  0.00     0.012 C 
ENDBRANCH  22  49
BRANCH  26  52
HETATM   52  C31 UNL     1      11.134   7.146  16.435  1.00  0.00     0.084 C 
HETATM   53  C32 UNL     1      10.761   5.662  16.143  1.00  0.00     0.032 C 
BRANCH  52  54
HETATM   54  C33 UNL     1       9.920   7.687  17.147  1.00  0.00     0.024 C 
BRANCH  54  55
HETATM   55  C34 UNL     1       9.842   9.215  16.978  1.00  0.00    -0.002 C 
HETATM   56  C35 UNL     1       9.990   9.782  18.396  1.00  0.00     0.005 C 
ENDBRANCH  54  55
ENDBRANCH  52  54
ENDBRANCH  26  52
ENDBRANCH   3   6
TORSDOF 16
ENDMDL
MODEL 2
REMARK VINA RESULT: -5.325246967      1.211      1.549
REMARK  16 active torsions:
REMARK  status: ('A' for Active; 'I' for Inactive)
REMARK    1  A    between atoms: C3_3  and  C6_6 
REMARK    2  A    between atoms: C7_7  and  O1_8 
REMARK    3  A    between atoms: C8_12  and  C9_13 
REMARK    4  A    between atoms: C9_13  and  C10_14 
REMARK    5  A    between atoms: C13_17  and  O2_18 
REMARK    6  A    between atoms: C14_22  and  C15_23 
REMARK    7  A    between atoms: C15_23  and  C16_24 
REMARK    8  A    between atoms: C19_27  and  O3_28 
REMARK    9  A    between atoms: C20_32  and  C21_33 
REMARK   10  A    between atoms: C21_33  and  C22_34 
REMARK   11  A    between atoms: C22_34  and  C23_35 
REMARK   12  A    between atoms: C23_35  and  N4_36 
REMARK   13  A    between atoms: C26_45  and  C27_46 
REMARK   14  A    between atoms: N8_51  and  C31_52 
REMARK   15  A    between atoms: C31_52  and  C33_54 
REMARK   16  A    between atoms: C33_54  and  C34_55 
ROOT
HETATM    1  C1  UNL     1      16.351   9.464  15.166  1.00  0.00     0.098 C 
HETATM    2  C2  UNL     1      15.229   9.198  15.590  1.00  0.00    -0.176 C 
HETATM    3  C3  UNL     1      13.894   8.928  16.119  1.00  0.00     0.032 C 
HETATM    4  C4  UNL     1      12.944   9.235  14.983  1.00  0.00     0.030 C 
HETATM    5  C5  UNL     1      13.582  10.069  17.116  1.00  0.00     0.030 C 
ENDROOT
BRANCH   3   6
HETATM    6  C6  UNL     1      13.727   7.623  16.759  1.00  0.00     0.181 C 
HETATM    7  C7  UNL     1      14.382   6.527  15.983  1.00  0.00     0.141 C 
HETATM    8  N1  UNL     1      15.487   5.720  16.168  1.00  0.00    -0.339 N 
HETATM    9  C8  UNL     1      16.898   5.777  16.046  1.00  0.00     0.062 C 
ATOM     10  H1  UNL     1      15.198   4.798  16.495  1.00  0.00     0.167 HD
HETATM   11  C13 UNL     1      17.698   6.380  17.125  1.00  0.00     0.159 C 
HETATM   12  N2  UNL     1      17.888   6.044  18.451  1.00  0.00    -0.357 N 
HETATM   13  C14 UNL     1      18.312   4.854  19.121  1.00  0.00     0.158 C 
ATOM     14  H2  UNL     1      17.681   6.811  19.091  1.00  0.00     0.162 HD
HETATM   15  C19 UNL     1      17.947   4.899  20.566  1.00  0.00     0.135 C 
HETATM   16  N3  UNL     1      16.658   4.957  21.110  1.00  0.00    -0.359 N 
HETATM   17  C20 UNL     1      15.638   5.968  20.893  1.00  0.00     0.175 C 
ATOM     18  H3  UNL     1      16.404   4.195  21.737  1.00  0.00     0.162 HD
HETATM   19  C25 UNL     1      14.321   5.363  21.212  1.00  0.00     0.241 C 
HETATM   20  O4  UNL     1      14.238   4.453  22.123  1.00  0.00    -0.271 OA
HETATM   21  N7  UNL     1      13.174   5.772  20.530  1.00  0.00    -0.346 N 
HETATM   22  C26 UNL     1      12.952   7.017  19.809  1.00  0.00     0.180 C 
ATOM     23  H7  UNL     1      12.394   5.115  20.536  1.00  0.00     0.163 HD
HETATM   24  C30 UNL     1      12.212   6.699  18.581  1.00  0.00     0.244 C 
HETATM   25  O5  UNL     1      11.275   5.850  18.812  1.00  0.00    -0.271 OA
HETATM   26  N8  UNL     1      12.422   7.207  17.248  1.00  0.00    -0.332 N 
BRANCH   7  27
HETATM   27  O1  UNL     1      13.682   6.347  14.881  1.00  0.00    -0.348 OA
ATOM     28  H1  UNL     1      12.954   5.775  15.095  1.00  0.00     0.219 HD
ENDBRANCH   7  27
BRANCH   9  29
HETATM   29  C9  UNL     1      17.430   6.208  14.675  1.00  0.00     0.065 C 
BRANCH  29  30
HETATM   30  C10 UNL     1      17.480   5.084  13.701  1.00  0.00    -0.017 C 
HETATM   31  C11 UNL     1      18.864   4.807  13.153  1.00  0.00     0.010 C 
HETATM   32  C12 UNL     1      16.617   5.496  12.506  1.00  0.00     0.010 C 
ENDBRANCH  29  30
ENDBRANCH   9  29
BRANCH  11  33
HETATM   33  O2  UNL     1      18.356   7.441  16.732  1.00  0.00    -0.345 OA
ATOM     34  H2  UNL     1      19.292   7.366  16.877  1.00  0.00     0.219 HD
ENDBRANCH  11  33
BRANCH  13  35
HETATM   35  C15 UNL     1      17.887   3.557  18.551  1.00  0.00     0.037 C 
BRANCH  35  36
HETATM   36  C16 UNL     1      19.080   2.783  18.030  1.00  0.00    -0.020 C 
HETATM   37  C17 UNL     1      19.223   2.856  16.543  1.00  0.00     0.009 C 
HETATM   38  C18 UNL     1      18.809   1.311  18.396  1.00  0.00     0.009 C 
ENDBRANCH  35  36
ENDBRANCH  13  35
BRANCH  15  39
HETATM   39  O3  UNL     1      18.911   4.882  21.443  1.00  0.00    -0.348 OA
ATOM     40  H3  UNL     1      18.966   5.601  22.060  1.00  0.00     0.219 HD
ENDBRANCH  15  39
BRANCH  17  41
HETATM   41  C21 UNL     1      15.840   7.123  21.887  1.00  0.00     0.036 C 
BRANCH  41  42
HETATM   42  C22 UNL     1      16.774   8.161  21.367  1.00  0.00     0.022 C 
BRANCH  42  43
HETATM   43  C23 UNL     1      17.935   8.274  22.356  1.00  0.00     0.122 C 
BRANCH  43  44
HETATM   44  N4  UNL     1      19.097   8.753  21.666  1.00  0.00    -0.367 N 
HETATM   45  C24 UNL     1      20.255   8.250  21.837  1.00  0.00     0.196 C 
HETATM   46  N5  UNL     1      21.361   8.771  21.123  1.00  0.00    -0.067 NA
HETATM   47  N6  UNL     1      20.421   7.176  22.742  1.00  0.00    -0.067 NA
ATOM     48  H4  UNL     1      18.992   9.528  21.011  1.00  0.00     0.161 HD
ENDBRANCH  43  44
ENDBRANCH  42  43
ENDBRANCH  41  42
ENDBRANCH  17  41
BRANCH  22  49
HETATM   49  C27 UNL     1      12.127   7.843  20.810  1.00  0.00     0.009 C 
HETATM   50  C28 UNL     1      12.759   9.150  21.158  1.00  0.00     0.012 C 
HETATM   51  C29 UNL     1      11.661   7.057  21.987  1.00  0.00     0.012 C 
ENDBRANCH  22  49
BRANCH  26  52
HETATM   52  C31 UNL     1      11.195   7.189  16.470  1.00  0.00     0.084 C 
HETATM   53  C32 UNL     1      10.801   5.709  16.185  1.00  0.00     0.032 C 
BRANCH  52  54
HETATM   54  C33 UNL     1       9.990   7.749  17.183  1.00  0.00     0.024 C 
BRANCH  54  55
HETATM   55  C34 UNL     1       9.929   9.277  17.003  1.00  0.00    -0.002 C 
HETATM   56  C35 UNL     1      10.121   9.853  18.411  1.00  0.00     0.005 C 
ENDBRANCH  54  55
ENDBRANCH  52  54
ENDBRANCH  26  52
ENDBRANCH   3   6
TORSDOF 16
ENDMDL
MODEL 3
REMARK VINA RESULT: -5.217797995      2.262      3.484
REMARK  16 active torsions:
REMARK  status: ('A' for Active; 'I' for Inactive)
REMARK    1  A    between atoms: C3_3  and  C6_6 
REMARK    2  A    between atoms: C7_7  and  O1_8 
REMARK    3  A    between atoms: C8_12  and  C9_13 
REMARK    4  A    between atoms: C9_13  and  C10_14 
REMARK    5  A    between atoms: C13_17  and  O2_18 
REMARK    6  A    between atoms: C14_22  and  C15_23 
REMARK    7  A    between atoms: C15_23  and  C16_24 
REMARK    8  A    between atoms: C19_27  and  O3_28 
REMARK    9  A    between atoms: C20_32  and  C21_33 
REMARK   10  A    between atoms: C21_33  and  C22_34 
REMARK   11  A    between atoms: C22_34  and  C23_35 
REMARK   12  A    between atoms: C23_35  and  N4_36 
REMARK   13  A    between atoms: C26_45  and  C27_46 
REMARK   14  A    between atoms: N8_51  and  C31_52 
REMARK   15  A    between atoms: C31_52  and  C33_54 
REMARK   16  A    between atoms: C33_54  and  C34_55 
ROOT
HETATM    1  C1  UNL     1      17.522  10.392  16.880  1.00  0.00     0.098 C 
HETATM    2  C2  UNL     1      17.372   9.434  16.124  1.00  0.00    -0.176 C 
HETATM    3  C3  UNL     1      17.177   8.330  15.189  1.00  0.00     0.032 C 
HETATM    4  C4  UNL     1      18.557   8.004  14.663  1.00  0.00     0.030 C 
HETATM    5  C5  UNL     1      16.491   8.932  13.940  1.00  0.00     0.030 C 
ENDROOT
BRANCH   3   6
HETATM    6  C6  UNL     1      16.406   7.200  15.707  1.00  0.00     0.181 C 
HETATM    7  C7  UNL     1      16.280   6.097  14.706  1.00  0.00     0.141 C 
HETATM    8  N1  UNL     1      16.790   4.821  14.586  1.00  0.00    -0.339 N 
HETATM    9  C8  UNL     1      17.987   4.169  14.196  1.00  0.00     0.062 C 
ATOM     10  H1  UNL     1      16.089   4.134  14.862  1.00  0.00     0.167 HD
HETATM   11  C13 UNL     1      19.098   4.054  15.155  1.00  0.00     0.159 C 
HETATM   12  N2  UNL     1      19.222   3.418  16.375  1.00  0.00    -0.357 N 
HETATM   13  C14 UNL     1      19.011   2.076  16.819  1.00  0.00     0.158 C 
ATOM     14  H2  UNL     1      19.531   4.042  17.120  1.00  0.00     0.162 HD
HETATM   15  C19 UNL     1      18.888   2.021  18.304  1.00  0.00     0.135 C 
HETATM   16  N3  UNL     1      17.901   2.624  19.093  1.00  0.00    -0.359 N 
HETATM   17  C20 UNL     1      17.568   4.035  19.188  1.00  0.00     0.175 C 
ATOM     18  H3  UNL     1      17.348   1.994  19.673  1.00  0.00     0.162 HD
HETATM   19  C25 UNL     1      16.176   4.141  19.693  1.00  0.00     0.241 C 
HETATM   20  O4  UNL     1      15.718   3.246  20.501  1.00  0.00    -0.271 OA
HETATM   21  N7  UNL     1      15.363   5.203  19.296  1.00  0.00    -0.346 N 
HETATM   22  C26 UNL     1      15.767   6.499  18.769  1.00  0.00     0.180 C 
ATOM     23  H7  UNL     1      14.358   5.052  19.386  1.00  0.00     0.163 HD
HETATM   24  C30 UNL     1      14.842   6.850  17.683  1.00  0.00     0.244 C 
HETATM   25  O5  UNL     1      13.629   6.575  18.001  1.00  0.00    -0.271 OA
HETATM   26  N8  UNL     1      15.145   7.426  16.396  1.00  0.00    -0.332 N 
BRANCH   7  27
HETATM   27  O1  UNL     1      15.477   6.519  13.751  1.00  0.00    -0.348 OA
ATOM     28  H1  UNL     1      15.342   5.796  13.150  1.00  0.00     0.219 HD
ENDBRANCH   7  27
BRANCH   9  29
HETATM   29  C9  UNL     1      18.513   4.522  12.801  1.00  0.00     0.065 C 
BRANCH  29  30
HETATM   30  C10 UNL     1      17.708   3.907  11.712  1.00  0.00    -0.017 C 
HETATM   31  C11 UNL     1      18.529   3.145  10.695  1.00  0.00     0.010 C 
HETATM   32  C12 UNL     1      17.039   5.057  10.953  1.00  0.00     0.010 C 
ENDBRANCH  29  30
ENDBRANCH   9  29
BRANCH  11  33
HETATM   33  O2  UNL     1      20.176   4.681  14.755  1.00  0.00    -0.345 OA
ATOM     34  H2  UNL     1      20.050   5.620  14.691  1.00  0.00     0.219 HD
ENDBRANCH  11  33
BRANCH  13  35
HETATM   35  C15 UNL     1      17.895   1.319  16.209  1.00  0.00     0.037 C 
BRANCH  35  36
HETATM   36  C16 UNL     1      18.408   0.379  15.137  1.00  0.00    -0.020 C 
HETATM   37  C17 UNL     1      17.620   0.450  13.868  1.00  0.00     0.009 C 
HETATM   38  C18 UNL     1      18.229  -1.039  15.713  1.00  0.00     0.009 C 
ENDBRANCH  35  36
ENDBRANCH  13  35
BRANCH  15  39
HETATM   39  O3  UNL     1      19.781   1.342  18.968  1.00  0.00    -0.348 OA
ATOM     40  H3  UNL     1      19.759   1.384  19.916  1.00  0.00     0.219 HD
ENDBRANCH  15  39
BRANCH  17  41
HETATM   41  C21 UNL     1      18.467   4.705  20.240  1.00  0.00     0.036 C 
BRANCH  41  42
HETATM   42  C22 UNL     1      17.722   5.048  21.485  1.00  0.00     0.022 C 
BRANCH  42  43
HETATM   43  C23 UNL     1      18.647   5.901  22.355  1.00  0.00     0.122 C 
BRANCH  43  44
HETATM   44  N4  UNL     1      19.163   6.985  21.571  1.00  0.00    -0.367 N 
HETATM   45  C24 UNL     1      18.783   8.191  21.729  1.00  0.00     0.196 C 
HETATM   46  N5  UNL     1      19.333   9.214  20.921  1.00  0.00    -0.067 NA
HETATM   47  N6  UNL     1      17.813   8.491  22.714  1.00  0.00    -0.067 NA
ATOM     48  H4  UNL     1      19.862   6.782  20.856  1.00  0.00     0.161 HD
ENDBRANCH  43  44
ENDBRANCH  42  43
ENDBRANCH  41  42
ENDBRANCH  17  41
BRANCH  22  49
HETATM   49  C27 UNL     1      15.630   7.418  19.994  1.00  0.00     0.009 C 
HETATM   50  C28 UNL     1      14.502   7.036  20.893  1.00  0.00     0.012 C 
HETATM   51  C29 UNL     1      15.679   8.868  19.657  1.00  0.00     0.012 C 
ENDBRANCH  22  49
BRANCH  26  52
HETATM   52  C31 UNL     1      14.024   8.190  15.876  1.00  0.00     0.084 C 
HETATM   53  C32 UNL     1      12.817   7.230  15.659  1.00  0.00     0.032 C 
BRANCH  52  54
HETATM   54  C33 UNL     1      13.485   9.235  16.819  1.00  0.00     0.024 C 
BRANCH  54  55
HETATM   55  C34 UNL     1      13.801  10.645  16.286  1.00  0.00    -0.002 C 
HETATM   56  C35 UNL     1      13.998  11.511  17.536  1.00  0.00     0.005 C 
ENDBRANCH  54  55
ENDBRANCH  52  54
ENDBRANCH  26  52
ENDBRANCH   3   6
TORSDOF 16
ENDMDL
MODEL 4
REMARK VINA RESULT: -5.171838167      2.077      2.497
REMARK  16 active torsions:
REMARK  status: ('A' for Active; 'I' for Inactive)
REMARK    1  A    between atoms: C3_3  and  C6_6 
REMARK    2  A    between atoms: C7_7  and  O1_8 
REMARK    3  A    between atoms: C8_12  and  C9_13 
REMARK    4  A    between atoms: C9_13  and  C10_14 
REMARK    5  A    between atoms: C13_17  and  O2_18 
REMARK    6  A    between atoms: C14_22  and  C15_23 
REMARK    7  A    between atoms: C15_23  and  C16_24 
REMARK    8  A    between atoms: C19_27  and  O3_28 
REMARK    9  A    between atoms: C20_32  and  C21_33 
REMARK   10  A    between atoms: C21_33  and  C22_34 
REMARK   11  A    between atoms: C22_34  and  C23_35 
REMARK   12  A    between atoms: C23_35  and  N4_36 
REMARK   13  A    between atoms: C26_45  and  C27_46 
REMARK   14  A    between atoms: N8_51  and  C31_52 
REMARK   15  A    between atoms: C31_52  and  C33_54 
REMARK   16  A    between atoms: C33_54  and  C34_55 
ROOT
HETATM    1  C1  UNL     1      17.470   8.966  14.597  1.00  0.00     0.098 C 
HETATM    2  C2  UNL     1      16.428   8.937  15.249  1.00  0.00    -0.176 C 
HETATM    3  C3  UNL     1      15.209   8.942  16.053  1.00  0.00     0.032 C 
HETATM    4  C4  UNL     1      14.180   9.667  15.215  1.00  0.00     0.030 C 
HETATM    5  C5  UNL     1      15.451   9.946  17.205  1.00  0.00     0.030 C 
ENDROOT
BRANCH   3   6
HETATM    6  C6  UNL     1      14.802   7.640  16.581  1.00  0.00     0.181 C 
HETATM    7  C7  UNL     1      14.874   6.565  15.546  1.00  0.00     0.141 C 
HETATM    8  N1  UNL     1      15.680   5.467  15.328  1.00  0.00    -0.339 N 
HETATM    9  C8  UNL     1      16.965   5.155  14.815  1.00  0.00     0.062 C 
ATOM     10  H1  UNL     1      15.206   4.616  15.630  1.00  0.00     0.167 HD
HETATM   11  C13 UNL     1      18.150   5.311  15.676  1.00  0.00     0.159 C 
HETATM   12  N2  UNL     1      18.539   4.702  16.853  1.00  0.00    -0.357 N 
HETATM   13  C14 UNL     1      18.719   3.342  17.253  1.00  0.00     0.158 C 
ATOM     14  H2  UNL     1      18.743   5.368  17.598  1.00  0.00     0.162 HD
HETATM   15  C19 UNL     1      18.747   3.224  18.739  1.00  0.00     0.135 C 
HETATM   16  N3  UNL     1      17.713   3.534  19.630  1.00  0.00    -0.359 N 
HETATM   17  C20 UNL     1      17.039   4.807  19.814  1.00  0.00     0.175 C 
ATOM     18  H3  UNL     1      17.393   2.769  20.225  1.00  0.00     0.162 HD
HETATM   19  C25 UNL     1      15.717   4.539  20.434  1.00  0.00     0.241 C 
HETATM   20  O4  UNL     1      15.577   3.538  21.235  1.00  0.00    -0.271 OA
HETATM   21  N7  UNL     1      14.627   5.363  20.150  1.00  0.00    -0.346 N 
HETATM   22  C26 UNL     1      14.638   6.730  19.650  1.00  0.00     0.180 C 
ATOM     23  H7  UNL     1      13.706   4.955  20.313  1.00  0.00     0.163 HD
HETATM   24  C30 UNL     1      13.561   6.853  18.658  1.00  0.00     0.244 C 
HETATM   25  O5  UNL     1      12.492   6.267  19.061  1.00  0.00    -0.271 OA
HETATM   26  N8  UNL     1      13.591   7.517  17.378  1.00  0.00    -0.332 N 
BRANCH   7  27
HETATM   27  O1  UNL     1      13.907   6.786  14.677  1.00  0.00    -0.348 OA
ATOM     28  H1  UNL     1      14.124   6.313  13.882  1.00  0.00     0.219 HD
ENDBRANCH   7  27
BRANCH   9  29
HETATM   29  C9  UNL     1      17.257   5.664  13.400  1.00  0.00     0.065 C 
BRANCH  29  30
HETATM   30  C10 UNL     1      17.502   4.559  12.433  1.00  0.00    -0.017 C 
HETATM   31  C11 UNL     1      18.966   4.305  12.147  1.00  0.00     0.010 C 
HETATM   32  C12 UNL     1      16.869   4.985  11.105  1.00  0.00     0.010 C 
ENDBRANCH  29  30
ENDBRANCH   9  29
BRANCH  11  33
HETATM   33  O2  UNL     1      18.991   6.204  15.219  1.00  0.00    -0.345 OA
ATOM     34  H2  UNL     1      18.832   7.071  15.574  1.00  0.00     0.219 HD
ENDBRANCH  11  33
BRANCH  13  35
HETATM   35  C15 UNL     1      17.785   2.336  16.702  1.00  0.00     0.037 C 
BRANCH  35  36
HETATM   36  C16 UNL     1      18.497   1.421  15.725  1.00  0.00    -0.020 C 
HETATM   37  C17 UNL     1      17.826   1.353  14.390  1.00  0.00     0.009 C 
HETATM   38  C18 UNL     1      18.425   0.015  16.351  1.00  0.00     0.009 C 
ENDBRANCH  35  36
ENDBRANCH  13  35
BRANCH  15  39
HETATM   39  O3  UNL     1      19.839   2.785  19.298  1.00  0.00    -0.348 OA
ATOM     40  H3  UNL     1      19.840   2.662  20.240  1.00  0.00     0.219 HD
ENDBRANCH  15  39
BRANCH  17  41
HETATM   41  C21 UNL     1      17.827   5.663  20.819  1.00  0.00     0.036 C 
BRANCH  41  42
HETATM   42  C22 UNL     1      18.122   7.026  20.293  1.00  0.00     0.022 C 
BRANCH  42  43
HETATM   43  C23 UNL     1      18.638   7.869  21.461  1.00  0.00     0.122 C 
BRANCH  43  44
HETATM   44  N4  UNL     1      19.941   7.405  21.837  1.00  0.00    -0.367 N 
HETATM   45  C24 UNL     1      20.968   8.159  21.835  1.00  0.00     0.196 C 
HETATM   46  N5  UNL     1      22.226   7.637  22.218  1.00  0.00    -0.067 NA
HETATM   47  N6  UNL     1      20.835   9.513  21.449  1.00  0.00    -0.067 NA
ATOM     48  H4  UNL     1      20.051   6.430  22.117  1.00  0.00     0.161 HD
ENDBRANCH  43  44
ENDBRANCH  42  43
ENDBRANCH  41  42
ENDBRANCH  17  41
BRANCH  22  49
HETATM   49  C27 UNL     1      14.380   7.555  20.922  1.00  0.00     0.009 C 
HETATM   50  C28 UNL     1      15.084   8.872  20.922  1.00  0.00     0.012 C 
HETATM   51  C29 UNL     1      14.543   6.775  22.180  1.00  0.00     0.012 C 
ENDBRANCH  22  49
BRANCH  26  52
HETATM   52  C31 UNL     1      12.270   7.976  16.984  1.00  0.00     0.084 C 
HETATM   53  C32 UNL     1      11.360   6.737  16.734  1.00  0.00     0.032 C 
BRANCH  52  54
HETATM   54  C33 UNL     1      11.533   8.753  18.045  1.00  0.00     0.024 C 
BRANCH  54  55
HETATM   55  C34 UNL     1      11.802  10.260  17.882  1.00  0.00    -0.002 C 
HETATM   56  C35 UNL     1      12.307  10.727  19.253  1.00  0.00     0.005 C 
ENDBRANCH  54  55
ENDBRANCH  52  54
ENDBRANCH  26  52
ENDBRANCH   3   6
TORSDOF 16
ENDMDL
MODEL 5
REMARK VINA RESULT: -5.022228400      1.817      2.320
REMARK  16 active torsions:
REMARK  status: ('A' for Active; 'I' for Inactive)
REMARK    1  A    between atoms: C3_3  and  C6_6 
REMARK    2  A    between atoms: C7_7  and  O1_8 
REMARK    3  A    between atoms: C8_12  and  C9_13 
REMARK    4  A    between atoms: C9_13  and  C10_14 
REMARK    5  A    between atoms: C13_17  and  O2_18 
REMARK    6  A    between atoms: C14_22  and  C15_23 
REMARK    7  A    between atoms: C15_23  and  C16_24 
REMARK    8  A    between atoms: C19_27  and  O3_28 
REMARK    9  A    between atoms: C20_32  and  C21_33 
REMARK   10  A    between atoms: C21_33  and  C22_34 
REMARK   11  A    between atoms: C22_34  and  C23_35 
REMARK   12  A    between atoms: C23_35  and  N4_36 
REMARK   13  A    between atoms: C26_45  and  C27_46 
REMARK   14  A    between atoms: N8_51  and  C31_52 
REMARK   15  A    between atoms: C31_52  and  C33_54 
REMARK   16  A    between atoms: C33_54  and  C34_55 
ROOT
HETATM    1  C1  UNL     1      17.655   9.069  14.835  1.00  0.00     0.098 C 
HETATM    2  C2  UNL     1      16.547   9.175  15.355  1.00  0.00    -0.176 C 
HETATM    3  C3  UNL     1      15.250   9.335  16.007  1.00  0.00     0.032 C 
HETATM    4  C4  UNL     1      14.474  10.289  15.126  1.00  0.00     0.030 C 
HETATM    5  C5  UNL     1      15.501  10.195  17.269  1.00  0.00     0.030 C 
ENDROOT
BRANCH   3   6
HETATM    6  C6  UNL     1      14.568   8.090  16.358  1.00  0.00     0.181 C 
HETATM    7  C7  UNL     1      15.261   6.891  15.798  1.00  0.00     0.141 C 
HETATM    8  N1  UNL     1      15.993   5.846  16.326  1.00  0.00    -0.339 N 
HETATM    9  C8  UNL     1      17.300   5.578  16.807  1.00  0.00     0.062 C 
ATOM     10  H1  UNL     1      15.416   5.008  16.390  1.00  0.00     0.167 HD
HETATM   11  C13 UNL     1      17.659   5.954  18.184  1.00  0.00     0.159 C 
HETATM   12  N2  UNL     1      17.188   5.552  19.419  1.00  0.00    -0.357 N 
HETATM   13  C14 UNL     1      17.036   4.282  20.056  1.00  0.00     0.158 C 
ATOM     14  H2  UNL     1      16.883   6.331  20.002  1.00  0.00     0.162 HD
HETATM   15  C19 UNL     1      16.102   4.376  21.215  1.00  0.00     0.135 C 
HETATM   16  N3  UNL     1      14.745   4.718  21.178  1.00  0.00    -0.359 N 
HETATM   17  C20 UNL     1      14.141   5.942  20.681  1.00  0.00     0.175 C 
ATOM     18  H3  UNL     1      14.100   4.019  21.547  1.00  0.00     0.162 HD
HETATM   19  C25 UNL     1      12.723   5.650  20.351  1.00  0.00     0.241 C 
HETATM   20  O4  UNL     1      12.077   4.762  21.029  1.00  0.00    -0.271 OA
HETATM   21  N7  UNL     1      12.089   6.329  19.309  1.00  0.00    -0.346 N 
HETATM   22  C26 UNL     1      12.451   7.608  18.717  1.00  0.00     0.180 C 
ATOM     23  H7  UNL     1      11.269   5.870  18.913  1.00  0.00     0.163 HD
HETATM   24  C30 UNL     1      12.265   7.498  17.263  1.00  0.00     0.244 C 
HETATM   25  O5  UNL     1      11.173   6.884  16.982  1.00  0.00    -0.271 OA
HETATM   26  N8  UNL     1      13.126   7.976  16.209  1.00  0.00    -0.332 N 
BRANCH   7  27
HETATM   27  O1  UNL     1      15.083   6.903  14.492  1.00  0.00    -0.348 OA
ATOM     28  H1  UNL     1      15.872   7.257  14.099  1.00  0.00     0.219 HD
ENDBRANCH   7  27
BRANCH   9  29
HETATM   29  C9  UNL     1      18.444   5.906  15.843  1.00  0.00     0.065 C 
BRANCH  29  30
HETATM   30  C10 UNL     1      18.423   5.060  14.619  1.00  0.00    -0.017 C 
HETATM   31  C11 UNL     1      18.441   3.573  14.900  1.00  0.00     0.010 C 
HETATM   32  C12 UNL     1      19.707   5.370  13.845  1.00  0.00     0.010 C 
ENDBRANCH  29  30
ENDBRANCH   9  29
BRANCH  11  33
HETATM   33  O2  UNL     1      18.619   6.844  18.230  1.00  0.00    -0.345 OA
ATOM     34  H2  UNL     1      19.449   6.473  18.504  1.00  0.00     0.219 HD
ENDBRANCH  11  33
BRANCH  13  35
HETATM   35  C15 UNL     1      16.650   3.132  19.210  1.00  0.00     0.037 C 
BRANCH  35  36
HETATM   36  C16 UNL     1      17.776   2.121  19.132  1.00  0.00    -0.020 C 
HETATM   37  C17 UNL     1      19.028   2.681  18.537  1.00  0.00     0.009 C 
HETATM   38  C18 UNL     1      17.271   1.014  18.187  1.00  0.00     0.009 C 
ENDBRANCH  35  36
ENDBRANCH  13  35
BRANCH  15  39
HETATM   39  O3  UNL     1      16.569   4.116  22.402  1.00  0.00    -0.348 OA
ATOM     40  H3  UNL     1      16.269   4.650  23.127  1.00  0.00     0.219 HD
ENDBRANCH  15  39
BRANCH  17  41
HETATM   41  C21 UNL     1      14.120   6.995  21.801  1.00  0.00     0.036 C 
BRANCH  41  42
HETATM   42  C22 UNL     1      15.053   8.125  21.531  1.00  0.00     0.022 C 
BRANCH  42  43
HETATM   43  C23 UNL     1      16.307   7.900  22.378  1.00  0.00     0.122 C 
BRANCH  43  44
HETATM   44  N4  UNL     1      17.439   8.460  21.700  1.00  0.00    -0.367 N 
HETATM   45  C24 UNL     1      18.553   7.851  21.600  1.00  0.00     0.196 C 
HETATM   46  N5  UNL     1      19.632   8.462  20.917  1.00  0.00    -0.067 NA
HETATM   47  N6  UNL     1      18.698   6.567  22.176  1.00  0.00    -0.067 NA
ATOM     48  H4  UNL     1      17.349   9.386  21.280  1.00  0.00     0.161 HD
ENDBRANCH  43  44
ENDBRANCH  42  43
ENDBRANCH  41  42
ENDBRANCH  17  41
BRANCH  22  49
HETATM   49  C27 UNL     1      11.458   8.578  19.377  1.00  0.00     0.009 C 
HETATM   50  C28 UNL     1      12.124   9.705  20.095  1.00  0.00     0.012 C 
HETATM   51  C29 UNL     1      10.395   7.894  20.166  1.00  0.00     0.012 C 
ENDBRANCH  22  49
BRANCH  26  52
HETATM   52  C31 UNL     1      12.377   8.260  14.997  1.00  0.00     0.084 C 
HETATM   53  C32 UNL     1      11.788   6.927  14.445  1.00  0.00     0.032 C 
BRANCH  52  54
HETATM   54  C33 UNL     1      11.163   9.131  15.197  1.00  0.00     0.024 C 
BRANCH  54  55
HETATM   55  C34 UNL     1      10.446   9.359  13.854  1.00  0.00    -0.002 C 
HETATM   56  C35 UNL     1      11.280  10.423  13.130  1.00  0.00     0.005 C 
ENDBRANCH  54  55
ENDBRANCH  52  54
ENDBRANCH  26  52
ENDBRANCH   3   6
TORSDOF 16
ENDMDL
