MODEL 1
REMARK VINA RESULT: -6.928994284      0.000      0.000
REMARK  10 active torsions:
REMARK  status: ('A' for Active; 'I' for Inactive)
REMARK    1  A    between atoms: O1_2  and  C2_3 
REMARK    2  A    between atoms: C2_3  and  C4_5 
REMARK    3  A    between atoms: C20_23  and  C21_24 
REMARK    4  A    between atoms: C21_24  and  O4_25 
REMARK    5  A    between atoms: C21_24  and  C22_27 
REMARK    6  A    between atoms: C23_28  and  O5_29 
REMARK    7  A    between atoms: C24_33  and  C25_34 
REMARK    8  A    between atoms: C25_34  and  O6_36 
REMARK    9  A    between atoms: C27_38  and  O7_39 
REMARK   10  A    between atoms: C28_41  and  O8_42 
ROOT
HETATM    1  C4  UNL     1      29.862 -27.880 -38.397  1.00  0.00     0.015 C 
HETATM    2  C5  UNL     1      30.168 -29.348 -38.199  1.00  0.00     0.055 C 
HETATM    3  C6  UNL     1      29.235 -30.055 -37.246  1.00  0.00     0.006 C 
HETATM    4  C7  UNL     1      28.772 -31.401 -37.803  1.00  0.00     0.000 C 
HETATM    5  C8  UNL     1      29.928 -32.212 -38.313  1.00  0.00     0.000 C 
HETATM    6  C9  UNL     1      31.020 -32.426 -37.320  1.00  0.00     0.000 C 
HETATM    7  C10 UNL     1      32.388 -32.462 -38.012  1.00  0.00     0.000 C 
HETATM    8  C11 UNL     1      32.944 -33.848 -38.088  1.00  0.00     0.000 C 
HETATM    9  C12 UNL     1      32.493 -34.466 -39.406  1.00  0.00     0.002 C 
HETATM   10  C13 UNL     1      33.501 -34.097 -40.497  1.00  0.00     0.027 C 
HETATM   11  C14 UNL     1      32.910 -34.304 -41.858  1.00  0.00     0.178 C 
HETATM   12  O2  UNL     1      33.523 -33.560 -42.864  1.00  0.00    -0.321 OA
HETATM   13  C15 UNL     1      33.206 -32.265 -43.223  1.00  0.00     0.258 C 
HETATM   14  O3  UNL     1      33.110 -31.903 -44.417  1.00  0.00    -0.265 OA
HETATM   15  C16 UNL     1      32.970 -31.267 -42.158  1.00  0.00     0.111 C 
HETATM   16  C17 UNL     1      32.507 -29.943 -42.691  1.00  0.00     0.010 C 
HETATM   17  C18 UNL     1      31.288 -29.426 -41.998  1.00  0.00     0.006 C 
HETATM   18  C19 UNL     1      31.641 -28.409 -40.900  1.00  0.00     0.055 C 
HETATM   19  C20 UNL     1      30.599 -27.350 -40.724  1.00  0.00     0.016 C 
HETATM   20  N2  UNL     1      29.736 -27.382 -39.660  1.00  0.00    -0.365 N 
ATOM     21  H2  UNL     1      28.830 -26.951 -39.848  1.00  0.00     0.165 HD
ENDROOT
BRANCH  19  22
HETATM   22  C21 UNL     1      31.177 -25.958 -41.048  1.00  0.00     0.174 C 
BRANCH  22  23
HETATM   23  O4  UNL     1      32.431 -25.809 -40.452  1.00  0.00    -0.389 OA
ATOM     24  H4  UNL     1      32.676 -24.891 -40.432  1.00  0.00     0.210 HD
ENDBRANCH  22  23
BRANCH  22  25
HETATM   25  C22 UNL     1      31.356 -25.769 -42.540  1.00  0.00     0.100 C 
HETATM   26  C23 UNL     1      30.062 -25.378 -43.178  1.00  0.00     0.223 C 
HETATM   27  N1  UNL     1      29.987 -24.157 -43.855  1.00  0.00    -0.387 N 
HETATM   28  C24 UNL     1      31.146 -23.570 -44.401  1.00  0.00     0.138 C 
ATOM     29  H1  UNL     1      29.087 -23.687 -43.954  1.00  0.00     0.156 HD
HETATM   30  C27 UNL     1      32.382 -24.439 -44.359  1.00  0.00     0.172 C 
HETATM   31  C28 UNL     1      32.497 -24.845 -42.880  1.00  0.00     0.160 C 
BRANCH  26  32
HETATM   32  O5  UNL     1      29.592 -26.389 -44.053  1.00  0.00    -0.377 OA
ATOM     33  H5  UNL     1      28.646 -26.465 -44.017  1.00  0.00     0.212 HD
ENDBRANCH  26  32
BRANCH  28  34
HETATM   34  C25 UNL     1      30.929 -22.957 -45.775  1.00  0.00     0.139 C 
HETATM   35  C26 UNL     1      32.178 -22.437 -46.408  1.00  0.00     0.041 C 
BRANCH  34  36
HETATM   36  O6  UNL     1      30.439 -23.982 -46.615  1.00  0.00    -0.394 OA
ATOM     37  H6  UNL     1      29.858 -23.574 -47.246  1.00  0.00     0.210 HD
ENDBRANCH  34  36
ENDBRANCH  28  34
BRANCH  30  38
HETATM   38  O7  UNL     1      32.294 -25.582 -45.101  1.00  0.00    -0.391 OA
ATOM     39  H7  UNL     1      32.863 -26.284 -44.808  1.00  0.00     0.210 HD
ENDBRANCH  30  38
BRANCH  31  40
HETATM   40  O8  UNL     1      32.503 -23.662 -42.174  1.00  0.00    -0.392 OA
ATOM     41  H8  UNL     1      33.370 -23.324 -41.979  1.00  0.00     0.210 HD
ENDBRANCH  31  40
ENDBRANCH  22  25
ENDBRANCH  19  22
BRANCH   1  42
HETATM   42  C2  UNL     1      30.586 -27.004 -37.365  1.00  0.00     0.162 C 
HETATM   43  C3  UNL     1      30.149 -25.542 -37.570  1.00  0.00     0.046 C 
BRANCH  42  44
HETATM   44  O1  UNL     1      31.920 -27.027 -37.668  1.00  0.00    -0.385 OA
HETATM   45  C1  UNL     1      32.738 -26.213 -36.936  1.00  0.00     0.202 C 
ENDBRANCH  42  44
ENDBRANCH   1  42
TORSDOF 10
ENDMDL
MODEL 2
REMARK VINA RESULT: -6.632308448      1.386      1.611
REMARK  10 active torsions:
REMARK  status: ('A' for Active; 'I' for Inactive)
REMARK    1  A    between atoms: O1_2  and  C2_3 
REMARK    2  A    between atoms: C2_3  and  C4_5 
REMARK    3  A    between atoms: C20_23  and  C21_24 
REMARK    4  A    between atoms: C21_24  and  O4_25 
REMARK    5  A    between atoms: C21_24  and  C22_27 
REMARK    6  A    between atoms: C23_28  and  O5_29 
REMARK    7  A    between atoms: C24_33  and  C25_34 
REMARK    8  A    between atoms: C25_34  and  O6_36 
REMARK    9  A    between atoms: C27_38  and  O7_39 
REMARK   10  A    between atoms: C28_41  and  O8_42 
ROOT
HETATM    1  C4  UNL     1      30.285 -27.352 -39.842  1.00  0.00     0.015 C 
HETATM    2  C5  UNL     1      30.307 -28.719 -39.197  1.00  0.00     0.055 C 
HETATM    3  C6  UNL     1      29.153 -28.984 -38.261  1.00  0.00     0.006 C 
HETATM    4  C7  UNL     1      28.540 -30.363 -38.495  1.00  0.00     0.000 C 
HETATM    5  C8  UNL     1      29.594 -31.430 -38.553  1.00  0.00     0.000 C 
HETATM    6  C9  UNL     1      30.497 -31.474 -37.367  1.00  0.00     0.000 C 
HETATM    7  C10 UNL     1      31.916 -31.889 -37.775  1.00  0.00     0.000 C 
HETATM    8  C11 UNL     1      32.230 -33.293 -37.367  1.00  0.00     0.000 C 
HETATM    9  C12 UNL     1      31.852 -34.216 -38.520  1.00  0.00     0.002 C 
HETATM   10  C13 UNL     1      33.040 -34.322 -39.479  1.00  0.00     0.027 C 
HETATM   11  C14 UNL     1      32.602 -34.850 -40.811  1.00  0.00     0.178 C 
HETATM   12  O2  UNL     1      33.457 -34.527 -41.862  1.00  0.00    -0.321 OA
HETATM   13  C15 UNL     1      33.416 -33.370 -42.614  1.00  0.00     0.258 C 
HETATM   14  O3  UNL     1      33.537 -33.374 -43.860  1.00  0.00    -0.265 OA
HETATM   15  C16 UNL     1      33.221 -32.077 -41.924  1.00  0.00     0.111 C 
HETATM   16  C17 UNL     1      33.065 -30.926 -42.875  1.00  0.00     0.010 C 
HETATM   17  C18 UNL     1      31.874 -30.074 -42.573  1.00  0.00     0.006 C 
HETATM   18  C19 UNL     1      32.254 -28.828 -41.756  1.00  0.00     0.055 C 
HETATM   19  C20 UNL     1      31.395 -27.642 -42.062  1.00  0.00     0.016 C 
HETATM   20  N2  UNL     1      30.410 -27.243 -41.196  1.00  0.00    -0.365 N 
ATOM     21  H2  UNL     1      29.624 -26.777 -41.650  1.00  0.00     0.165 HD
ENDROOT
BRANCH  19  22
HETATM   22  C21 UNL     1      32.241 -26.496 -42.654  1.00  0.00     0.174 C 
BRANCH  22  23
HETATM   23  O4  UNL     1      33.409 -27.008 -43.223  1.00  0.00    -0.389 OA
ATOM     24  H4  UNL     1      33.930 -27.446 -42.560  1.00  0.00     0.210 HD
ENDBRANCH  22  23
BRANCH  22  25
HETATM   25  C22 UNL     1      31.487 -25.760 -43.741  1.00  0.00     0.100 C 
HETATM   26  C23 UNL     1      30.593 -24.719 -43.147  1.00  0.00     0.223 C 
HETATM   27  N1  UNL     1      30.789 -23.381 -43.506  1.00  0.00    -0.387 N 
HETATM   28  C24 UNL     1      31.386 -23.051 -44.738  1.00  0.00     0.138 C 
ATOM     29  H1  UNL     1      30.496 -22.639 -42.870  1.00  0.00     0.156 HD
HETATM   30  C27 UNL     1      31.606 -24.217 -45.674  1.00  0.00     0.172 C 
HETATM   31  C28 UNL     1      32.391 -25.230 -44.824  1.00  0.00     0.160 C 
BRANCH  26  32
HETATM   32  O5  UNL     1      29.227 -25.030 -43.358  1.00  0.00    -0.377 OA
ATOM     33  H5  UNL     1      28.838 -25.420 -42.585  1.00  0.00     0.212 HD
ENDBRANCH  26  32
BRANCH  28  34
HETATM   34  C25 UNL     1      30.726 -21.875 -45.439  1.00  0.00     0.139 C 
HETATM   35  C26 UNL     1      31.272 -21.603 -46.803  1.00  0.00     0.041 C 
BRANCH  34  36
HETATM   36  O6  UNL     1      29.361 -22.202 -45.602  1.00  0.00    -0.394 OA
ATOM     37  H6  UNL     1      29.325 -23.042 -46.044  1.00  0.00     0.210 HD
ENDBRANCH  34  36
ENDBRANCH  28  34
BRANCH  30  38
HETATM   38  O7  UNL     1      30.458 -24.826 -46.095  1.00  0.00    -0.391 OA
ATOM     39  H7  UNL     1      29.956 -24.323 -46.725  1.00  0.00     0.210 HD
ENDBRANCH  30  38
BRANCH  31  40
HETATM   40  O8  UNL     1      33.493 -24.544 -44.361  1.00  0.00    -0.392 OA
ATOM     41  H8  UNL     1      34.315 -25.014 -44.451  1.00  0.00     0.210 HD
ENDBRANCH  31  40
ENDBRANCH  22  25
ENDBRANCH  19  22
BRANCH   1  42
HETATM   42  C2  UNL     1      31.012 -26.305 -38.984  1.00  0.00     0.162 C 
HETATM   43  C3  UNL     1      32.025 -27.031 -38.080  1.00  0.00     0.046 C 
BRANCH  42  44
HETATM   44  O1  UNL     1      30.092 -25.761 -38.131  1.00  0.00    -0.385 OA
HETATM   45  C1  UNL     1      30.368 -25.829 -36.794  1.00  0.00     0.202 C 
ENDBRANCH  42  44
ENDBRANCH   1  42
TORSDOF 10
ENDMDL
MODEL 3
REMARK VINA RESULT: -6.487589636      2.957      9.321
REMARK  10 active torsions:
REMARK  status: ('A' for Active; 'I' for Inactive)
REMARK    1  A    between atoms: O1_2  and  C2_3 
REMARK    2  A    between atoms: C2_3  and  C4_5 
REMARK    3  A    between atoms: C20_23  and  C21_24 
REMARK    4  A    between atoms: C21_24  and  O4_25 
REMARK    5  A    between atoms: C21_24  and  C22_27 
REMARK    6  A    between atoms: C23_28  and  O5_29 
REMARK    7  A    between atoms: C24_33  and  C25_34 
REMARK    8  A    between atoms: C25_34  and  O6_36 
REMARK    9  A    between atoms: C27_38  and  O7_39 
REMARK   10  A    between atoms: C28_41  and  O8_42 
ROOT
HETATM    1  C4  UNL     1      30.318 -27.978 -40.682  1.00  0.00     0.015 C 
HETATM    2  C5  UNL     1      31.089 -26.709 -40.965  1.00  0.00     0.055 C 
HETATM    3  C6  UNL     1      30.849 -26.127 -42.336  1.00  0.00     0.006 C 
HETATM    4  C7  UNL     1      30.619 -24.617 -42.278  1.00  0.00     0.000 C 
HETATM    5  C8  UNL     1      31.668 -23.933 -41.450  1.00  0.00     0.000 C 
HETATM    6  C9  UNL     1      33.070 -24.213 -41.872  1.00  0.00     0.000 C 
HETATM    7  C10 UNL     1      34.009 -24.250 -40.660  1.00  0.00     0.000 C 
HETATM    8  C11 UNL     1      34.868 -23.029 -40.577  1.00  0.00     0.000 C 
HETATM    9  C12 UNL     1      34.142 -21.997 -39.722  1.00  0.00     0.002 C 
HETATM   10  C13 UNL     1      34.494 -22.237 -38.251  1.00  0.00     0.027 C 
HETATM   11  C14 UNL     1      33.509 -21.554 -37.352  1.00  0.00     0.178 C 
HETATM   12  O2  UNL     1      33.438 -22.095 -36.070  1.00  0.00    -0.321 OA
HETATM   13  C15 UNL     1      32.645 -23.155 -35.679  1.00  0.00     0.258 C 
HETATM   14  O3  UNL     1      31.993 -23.149 -34.611  1.00  0.00    -0.265 OA
HETATM   15  C16 UNL     1      32.562 -24.344 -36.555  1.00  0.00     0.111 C 
HETATM   16  C17 UNL     1      31.566 -25.356 -36.070  1.00  0.00     0.010 C 
HETATM   17  C18 UNL     1      30.618 -25.802 -37.137  1.00  0.00     0.006 C 
HETATM   18  C19 UNL     1      31.057 -27.130 -37.775  1.00  0.00     0.055 C 
HETATM   19  C20 UNL     1      29.907 -27.977 -38.218  1.00  0.00     0.016 C 
HETATM   20  N2  UNL     1      29.573 -28.076 -39.544  1.00  0.00    -0.365 N 
ATOM     21  H2  UNL     1      28.583 -28.257 -39.710  1.00  0.00     0.165 HD
ENDROOT
BRANCH  19  22
HETATM   22  C21 UNL     1      29.882 -29.310 -37.443  1.00  0.00     0.174 C 
BRANCH  22  23
HETATM   23  O4  UNL     1      28.564 -29.733 -37.258  1.00  0.00    -0.389 OA
ATOM     24  H4  UNL     1      28.002 -28.984 -37.092  1.00  0.00     0.210 HD
ENDBRANCH  22  23
BRANCH  22  25
HETATM   25  C22 UNL     1      30.609 -30.401 -38.200  1.00  0.00     0.100 C 
HETATM   26  C23 UNL     1      31.918 -30.710 -37.547  1.00  0.00     0.223 C 
HETATM   27  N1  UNL     1      32.146 -32.009 -37.078  1.00  0.00    -0.387 N 
HETATM   28  C24 UNL     1      31.467 -33.104 -37.648  1.00  0.00     0.138 C 
ATOM     29  H1  UNL     1      32.809 -32.163 -36.318  1.00  0.00     0.156 HD
HETATM   30  C27 UNL     1      30.658 -32.781 -38.882  1.00  0.00     0.172 C 
HETATM   31  C28 UNL     1      29.754 -31.619 -38.438  1.00  0.00     0.160 C 
BRANCH  26  32
HETATM   32  O5  UNL     1      33.008 -30.351 -38.378  1.00  0.00    -0.377 OA
ATOM     33  H5  UNL     1      33.051 -30.903 -39.150  1.00  0.00     0.212 HD
ENDBRANCH  26  32
BRANCH  28  34
HETATM   34  C25 UNL     1      32.346 -34.328 -37.848  1.00  0.00     0.139 C 
HETATM   35  C26 UNL     1      32.432 -35.211 -36.647  1.00  0.00     0.041 C 
BRANCH  34  36
HETATM   36  O6  UNL     1      31.760 -35.096 -38.880  1.00  0.00    -0.394 OA
ATOM     37  H6  UNL     1      31.335 -34.488 -39.474  1.00  0.00     0.210 HD
ENDBRANCH  34  36
ENDBRANCH  28  34
BRANCH  30  38
HETATM   38  O7  UNL     1      31.398 -32.351 -39.947  1.00  0.00    -0.391 OA
ATOM     39  H7  UNL     1      31.205 -32.795 -40.764  1.00  0.00     0.210 HD
ENDBRANCH  30  38
BRANCH  31  40
HETATM   40  O8  UNL     1      29.091 -32.077 -37.320  1.00  0.00    -0.392 OA
ATOM     41  H8  UNL     1      28.782 -31.392 -36.738  1.00  0.00     0.210 HD
ENDBRANCH  31  40
ENDBRANCH  22  25
ENDBRANCH  19  22
BRANCH   1  42
HETATM   42  C2  UNL     1      31.098 -29.227 -41.120  1.00  0.00     0.162 C 
HETATM   43  C3  UNL     1      32.588 -28.860 -41.233  1.00  0.00     0.046 C 
BRANCH  42  44
HETATM   44  O1  UNL     1      30.704 -29.532 -42.394  1.00  0.00    -0.385 OA
HETATM   45  C1  UNL     1      31.654 -30.048 -43.231  1.00  0.00     0.202 C 
ENDBRANCH  42  44
ENDBRANCH   1  42
TORSDOF 10
ENDMDL
MODEL 4
REMARK VINA RESULT: -6.351344623      3.110      5.142
REMARK  10 active torsions:
REMARK  status: ('A' for Active; 'I' for Inactive)
REMARK    1  A    between atoms: O1_2  and  C2_3 
REMARK    2  A    between atoms: C2_3  and  C4_5 
REMARK    3  A    between atoms: C20_23  and  C21_24 
REMARK    4  A    between atoms: C21_24  and  O4_25 
REMARK    5  A    between atoms: C21_24  and  C22_27 
REMARK    6  A    between atoms: C23_28  and  O5_29 
REMARK    7  A    between atoms: C24_33  and  C25_34 
REMARK    8  A    between atoms: C25_34  and  O6_36 
REMARK    9  A    between atoms: C27_38  and  O7_39 
REMARK   10  A    between atoms: C28_41  and  O8_42 
ROOT
HETATM    1  C4  UNL     1      30.736 -30.057 -38.566  1.00  0.00     0.015 C 
HETATM    2  C5  UNL     1      31.719 -31.196 -38.415  1.00  0.00     0.055 C 
HETATM    3  C6  UNL     1      31.379 -32.424 -39.223  1.00  0.00     0.006 C 
HETATM    4  C7  UNL     1      32.601 -32.978 -39.953  1.00  0.00     0.000 C 
HETATM    5  C8  UNL     1      33.780 -33.105 -39.033  1.00  0.00     0.000 C 
HETATM    6  C9  UNL     1      33.522 -33.907 -37.802  1.00  0.00     0.000 C 
HETATM    7  C10 UNL     1      34.318 -33.355 -36.613  1.00  0.00     0.000 C 
HETATM    8  C11 UNL     1      35.482 -34.226 -36.263  1.00  0.00     0.000 C 
HETATM    9  C12 UNL     1      36.695 -33.728 -37.040  1.00  0.00     0.002 C 
HETATM   10  C13 UNL     1      37.386 -32.629 -36.228  1.00  0.00     0.027 C 
HETATM   11  C14 UNL     1      38.303 -31.824 -37.097  1.00  0.00     0.178 C 
HETATM   12  O2  UNL     1      38.581 -30.550 -36.606  1.00  0.00    -0.321 OA
HETATM   13  C15 UNL     1      37.824 -29.415 -36.821  1.00  0.00     0.258 C 
HETATM   14  O3  UNL     1      38.338 -28.309 -37.104  1.00  0.00    -0.265 OA
HETATM   15  C16 UNL     1      36.353 -29.508 -36.714  1.00  0.00     0.111 C 
HETATM   16  C17 UNL     1      35.659 -28.235 -37.102  1.00  0.00     0.010 C 
HETATM   17  C18 UNL     1      34.553 -28.446 -38.085  1.00  0.00     0.006 C 
HETATM   18  C19 UNL     1      33.180 -28.516 -37.396  1.00  0.00     0.055 C 
HETATM   19  C20 UNL     1      32.072 -27.971 -38.241  1.00  0.00     0.016 C 
HETATM   20  N2  UNL     1      31.191 -28.809 -38.874  1.00  0.00    -0.365 N 
ATOM     21  H2  UNL     1      30.803 -28.427 -39.737  1.00  0.00     0.165 HD
ENDROOT
BRANCH  19  22
HETATM   22  C21 UNL     1      31.426 -26.743 -37.566  1.00  0.00     0.174 C 
BRANCH  22  23
HETATM   23  O4  UNL     1      32.362 -26.094 -36.759  1.00  0.00    -0.389 OA
ATOM     24  H4  UNL     1      32.094 -26.140 -35.848  1.00  0.00     0.210 HD
ENDBRANCH  22  23
BRANCH  22  25
HETATM   25  C22 UNL     1      30.938 -25.744 -38.593  1.00  0.00     0.100 C 
HETATM   26  C23 UNL     1      31.659 -25.930 -39.890  1.00  0.00     0.223 C 
HETATM   27  N1  UNL     1      30.917 -26.240 -41.034  1.00  0.00    -0.387 N 
HETATM   28  C24 UNL     1      29.561 -25.868 -41.130  1.00  0.00     0.138 C 
ATOM     29  H1  UNL     1      31.360 -26.741 -41.805  1.00  0.00     0.156 HD
HETATM   30  C27 UNL     1      29.065 -24.974 -40.018  1.00  0.00     0.172 C 
HETATM   31  C28 UNL     1      29.438 -25.737 -38.736  1.00  0.00     0.160 C 
BRANCH  26  32
HETATM   32  O5  UNL     1      32.474 -24.811 -40.192  1.00  0.00    -0.377 OA
ATOM     33  H5  UNL     1      33.271 -24.813 -39.675  1.00  0.00     0.212 HD
ENDBRANCH  26  32
BRANCH  28  34
HETATM   34  C25 UNL     1      29.170 -25.342 -42.501  1.00  0.00     0.139 C 
HETATM   35  C26 UNL     1      30.335 -24.992 -43.368  1.00  0.00     0.041 C 
BRANCH  34  36
HETATM   36  O6  UNL     1      28.467 -26.378 -43.158  1.00  0.00    -0.394 OA
ATOM     37  H6  UNL     1      29.105 -26.883 -43.648  1.00  0.00     0.210 HD
ENDBRANCH  34  36
ENDBRANCH  28  34
BRANCH  30  38
HETATM   38  O7  UNL     1      29.668 -23.750 -39.966  1.00  0.00    -0.391 OA
ATOM     39  H7  UNL     1      30.617 -23.779 -39.995  1.00  0.00     0.210 HD
ENDBRANCH  30  38
BRANCH  31  40
HETATM   40  O8  UNL     1      28.872 -26.986 -38.875  1.00  0.00    -0.392 OA
ATOM     41  H8  UNL     1      28.478 -27.147 -39.724  1.00  0.00     0.210 HD
ENDBRANCH  31  40
ENDBRANCH  22  25
ENDBRANCH  19  22
BRANCH   1  42
HETATM   42  C2  UNL     1      29.591 -30.155 -37.547  1.00  0.00     0.162 C 
HETATM   43  C3  UNL     1      29.216 -31.638 -37.372  1.00  0.00     0.046 C 
BRANCH  42  44
HETATM   44  O1  UNL     1      28.490 -29.569 -38.107  1.00  0.00    -0.385 OA
HETATM   45  C1  UNL     1      27.471 -30.397 -38.487  1.00  0.00     0.202 C 
ENDBRANCH  42  44
ENDBRANCH   1  42
TORSDOF 10
ENDMDL
MODEL 5
REMARK VINA RESULT: -6.272351043      2.754      5.464
REMARK  10 active torsions:
REMARK  status: ('A' for Active; 'I' for Inactive)
REMARK    1  A    between atoms: O1_2  and  C2_3 
REMARK    2  A    between atoms: C2_3  and  C4_5 
REMARK    3  A    between atoms: C20_23  and  C21_24 
REMARK    4  A    between atoms: C21_24  and  O4_25 
REMARK    5  A    between atoms: C21_24  and  C22_27 
REMARK    6  A    between atoms: C23_28  and  O5_29 
REMARK    7  A    between atoms: C24_33  and  C25_34 
REMARK    8  A    between atoms: C25_34  and  O6_36 
REMARK    9  A    between atoms: C27_38  and  O7_39 
REMARK   10  A    between atoms: C28_41  and  O8_42 
ROOT
HETATM    1  C4  UNL     1      34.102 -28.375 -41.798  1.00  0.00     0.015 C 
HETATM    2  C5  UNL     1      34.460 -29.738 -41.251  1.00  0.00     0.055 C 
HETATM    3  C6  UNL     1      35.941 -29.966 -41.070  1.00  0.00     0.006 C 
HETATM    4  C7  UNL     1      36.254 -30.605 -39.717  1.00  0.00     0.000 C 
HETATM    5  C8  UNL     1      35.370 -31.788 -39.450  1.00  0.00     0.000 C 
HETATM    6  C9  UNL     1      35.393 -32.830 -40.517  1.00  0.00     0.000 C 
HETATM    7  C10 UNL     1      34.018 -33.495 -40.660  1.00  0.00     0.000 C 
HETATM    8  C11 UNL     1      33.999 -34.876 -40.088  1.00  0.00     0.000 C 
HETATM    9  C12 UNL     1      33.567 -34.777 -38.630  1.00  0.00     0.002 C 
HETATM   10  C13 UNL     1      32.039 -34.822 -38.561  1.00  0.00     0.027 C 
HETATM   11  C14 UNL     1      31.551 -34.311 -37.239  1.00  0.00     0.178 C 
HETATM   12  O2  UNL     1      30.235 -33.854 -37.255  1.00  0.00    -0.321 OA
HETATM   13  C15 UNL     1      29.823 -32.581 -37.591  1.00  0.00     0.258 C 
HETATM   14  O3  UNL     1      28.958 -31.959 -36.933  1.00  0.00    -0.265 OA
HETATM   15  C16 UNL     1      30.426 -31.923 -38.770  1.00  0.00     0.111 C 
HETATM   16  C17 UNL     1      29.981 -30.499 -38.935  1.00  0.00     0.010 C 
HETATM   17  C18 UNL     1      31.118 -29.549 -39.132  1.00  0.00     0.006 C 
HETATM   18  C19 UNL     1      31.347 -29.230 -40.619  1.00  0.00     0.055 C 
HETATM   19  C20 UNL     1      31.853 -27.842 -40.849  1.00  0.00     0.016 C 
HETATM   20  N2  UNL     1      33.169 -27.614 -41.157  1.00  0.00    -0.365 N 
ATOM     21  H2  UNL     1      33.515 -26.705 -40.849  1.00  0.00     0.165 HD
ENDROOT
BRANCH  19  22
HETATM   22  C21 UNL     1      30.843 -27.025 -41.680  1.00  0.00     0.174 C 
BRANCH  22  23
HETATM   23  O4  UNL     1      29.706 -27.793 -41.942  1.00  0.00    -0.389 OA
ATOM     24  H4  UNL     1      28.980 -27.492 -41.408  1.00  0.00     0.210 HD
ENDBRANCH  22  23
BRANCH  22  25
HETATM   25  C22 UNL     1      30.394 -25.784 -40.937  1.00  0.00     0.100 C 
HETATM   26  C23 UNL     1      30.214 -26.080 -39.483  1.00  0.00     0.223 C 
HETATM   27  N1  UNL     1      30.981 -25.371 -38.552  1.00  0.00    -0.387 N 
HETATM   28  C24 UNL     1      31.480 -24.091 -38.864  1.00  0.00     0.138 C 
ATOM     29  H1  UNL     1      31.180 -25.784 -37.641  1.00  0.00     0.156 HD
HETATM   30  C27 UNL     1      30.968 -23.505 -40.159  1.00  0.00     0.172 C 
HETATM   31  C28 UNL     1      31.276 -24.592 -41.203  1.00  0.00     0.160 C 
BRANCH  26  32
HETATM   32  O5  UNL     1      28.855 -25.972 -39.098  1.00  0.00    -0.377 OA
ATOM     33  H5  UNL     1      28.752 -25.395 -38.351  1.00  0.00     0.212 HD
ENDBRANCH  26  32
BRANCH  28  34
HETATM   34  C25 UNL     1      31.381 -23.102 -37.714  1.00  0.00     0.139 C 
HETATM   35  C26 UNL     1      31.943 -21.754 -38.027  1.00  0.00     0.041 C 
BRANCH  34  36
HETATM   36  O6  UNL     1      30.006 -22.919 -37.440  1.00  0.00    -0.394 OA
ATOM     37  H6  UNL     1      29.854 -21.983 -37.383  1.00  0.00     0.210 HD
ENDBRANCH  34  36
ENDBRANCH  28  34
BRANCH  30  38
HETATM   38  O7  UNL     1      29.622 -23.273 -40.182  1.00  0.00    -0.391 OA
ATOM     39  H7  UNL     1      29.291 -22.813 -39.419  1.00  0.00     0.210 HD
ENDBRANCH  30  38
BRANCH  31  40
HETATM   40  O8  UNL     1      32.625 -24.842 -41.085  1.00  0.00    -0.392 OA
ATOM     41  H8  UNL     1      33.126 -24.680 -41.876  1.00  0.00     0.210 HD
ENDBRANCH  31  40
ENDBRANCH  22  25
ENDBRANCH  19  22
BRANCH   1  42
HETATM   42  C2  UNL     1      34.080 -28.366 -43.334  1.00  0.00     0.162 C 
HETATM   43  C3  UNL     1      33.720 -26.948 -43.811  1.00  0.00     0.046 C 
BRANCH  42  44
HETATM   44  O1  UNL     1      33.037 -29.156 -43.735  1.00  0.00    -0.385 OA
HETATM   45  C1  UNL     1      33.345 -30.256 -44.486  1.00  0.00     0.202 C 
ENDBRANCH  42  44
ENDBRANCH   1  42
TORSDOF 10
ENDMDL
