MODEL 1
REMARK VINA RESULT: -3.402136922      0.000      0.000
REMARK  2 active torsions:
REMARK  status: ('A' for Active; 'I' for Inactive)
REMARK    1  A    between atoms: C11_16  and  C12_17 
REMARK    2  A    between atoms: C13_18  and  C14_19 
ROOT
HETATM    1  N1  UNL     1      29.841   1.959   4.412  1.00  0.00    -0.191 NA
HETATM    2  C1  UNL     1      28.834   2.510   4.353  1.00  0.00     0.100 C 
HETATM    3  C2  UNL     1      27.645   3.268   4.300  1.00  0.00     0.060 A 
HETATM    4  C3  UNL     1      27.753   4.660   4.533  1.00  0.00     0.054 A 
HETATM    5  C4  UNL     1      26.675   5.501   4.508  1.00  0.00     0.044 A 
HETATM    6  N2  UNL     1      26.584   6.828   4.704  1.00  0.00    -0.365 N 
ATOM      7  H2  UNL     1      27.369   7.445   4.913  1.00  0.00     0.165 HD
HETATM    8  C5  UNL     1      25.309   7.219   4.581  1.00  0.00     0.089 A 
HETATM    9  C6  UNL     1      24.573   6.081   4.297  1.00  0.00     0.031 A 
HETATM   10  C7  UNL     1      25.447   5.010   4.255  1.00  0.00     0.003 A 
HETATM   11  C8  UNL     1      25.286   3.661   4.020  1.00  0.00    -0.008 A 
HETATM   12  C9  UNL     1      24.042   3.181   3.766  1.00  0.00     0.030 A 
HETATM   13  C10 UNL     1      23.852   1.856   3.532  1.00  0.00     0.090 A 
HETATM   14  N3  UNL     1      24.897   1.061   3.559  1.00  0.00    -0.358 N 
ATOM     15  H3  UNL     1      24.748   0.068   3.382  1.00  0.00     0.166 HD
HETATM   16  C11 UNL     1      26.188   1.487   3.811  1.00  0.00     0.099 A 
HETATM   17  C20 UNL     1      26.402   2.785   4.045  1.00  0.00     0.031 A 
ENDROOT
BRANCH  16  18
HETATM   18  C12 UNL     1      27.175   0.458   3.792  1.00  0.00    -0.042 C 
HETATM   19  C13 UNL     1      28.013  -0.388   3.688  1.00  0.00    -0.060 C 
BRANCH  19  20
HETATM   20  C14 UNL     1      29.037  -1.411   3.531  1.00  0.00     0.018 A 
HETATM   21  C15 UNL     1      28.740  -2.763   3.698  1.00  0.00     0.020 A 
HETATM   22  C16 UNL     1      29.708  -3.734   3.550  1.00  0.00     0.001 A 
HETATM   23  C17 UNL     1      31.005  -3.401   3.229  1.00  0.00     0.000 A 
HETATM   24  C18 UNL     1      31.318  -2.069   3.060  1.00  0.00     0.001 A 
HETATM   25  C19 UNL     1      30.342  -1.105   3.210  1.00  0.00     0.020 A 
ENDBRANCH  19  20
ENDBRANCH  16  18
TORSDOF 2
ENDMDL
MODEL 2
REMARK VINA RESULT: -3.235651216      0.227      1.010
REMARK  2 active torsions:
REMARK  status: ('A' for Active; 'I' for Inactive)
REMARK    1  A    between atoms: C11_16  and  C12_17 
REMARK    2  A    between atoms: C13_18  and  C14_19 
ROOT
HETATM    1  N1  UNL     1      29.912   2.122   4.377  1.00  0.00    -0.191 NA
HETATM    2  C1  UNL     1      28.886   2.637   4.309  1.00  0.00     0.100 C 
HETATM    3  C2  UNL     1      27.669   3.349   4.256  1.00  0.00     0.060 A 
HETATM    4  C3  UNL     1      27.701   4.716   4.620  1.00  0.00     0.054 A 
HETATM    5  C4  UNL     1      26.590   5.512   4.608  1.00  0.00     0.044 A 
HETATM    6  N2  UNL     1      26.429   6.811   4.917  1.00  0.00    -0.365 N 
ATOM      7  H2  UNL     1      27.173   7.436   5.226  1.00  0.00     0.165 HD
HETATM    8  C5  UNL     1      25.146   7.160   4.756  1.00  0.00     0.089 A 
HETATM    9  C6  UNL     1      24.478   6.025   4.328  1.00  0.00     0.031 A 
HETATM   10  C7  UNL     1      25.400   4.998   4.241  1.00  0.00     0.003 A 
HETATM   11  C8  UNL     1      25.313   3.671   3.877  1.00  0.00    -0.008 A 
HETATM   12  C9  UNL     1      24.107   3.167   3.509  1.00  0.00     0.030 A 
HETATM   13  C10 UNL     1      23.990   1.864   3.145  1.00  0.00     0.090 A 
HETATM   14  N3  UNL     1      25.067   1.112   3.161  1.00  0.00    -0.358 N 
ATOM     15  H3  UNL     1      24.972   0.134   2.887  1.00  0.00     0.166 HD
HETATM   16  C11 UNL     1      26.322   1.564   3.526  1.00  0.00     0.099 A 
HETATM   17  C20 UNL     1      26.465   2.841   3.887  1.00  0.00     0.031 A 
ENDROOT
BRANCH  16  18
HETATM   18  C12 UNL     1      27.354   0.580   3.471  1.00  0.00    -0.042 C 
HETATM   19  C13 UNL     1      28.154  -0.306   3.438  1.00  0.00    -0.060 C 
BRANCH  19  20
HETATM   20  C14 UNL     1      29.106  -1.407   3.400  1.00  0.00     0.018 A 
HETATM   21  C15 UNL     1      30.460  -1.184   3.150  1.00  0.00     0.020 A 
HETATM   22  C16 UNL     1      31.364  -2.225   3.115  1.00  0.00     0.001 A 
HETATM   23  C17 UNL     1      30.960  -3.524   3.327  1.00  0.00     0.000 A 
HETATM   24  C18 UNL     1      29.625  -3.764   3.575  1.00  0.00     0.001 A 
HETATM   25  C19 UNL     1      28.729  -2.716   3.609  1.00  0.00     0.020 A 
ENDBRANCH  19  20
ENDBRANCH  16  18
TORSDOF 2
ENDMDL
MODEL 3
REMARK VINA RESULT: -2.262897068      1.144      1.514
REMARK  2 active torsions:
REMARK  status: ('A' for Active; 'I' for Inactive)
REMARK    1  A    between atoms: C11_16  and  C12_17 
REMARK    2  A    between atoms: C13_18  and  C14_19 
ROOT
HETATM    1  N1  UNL     1      29.074   1.975   2.946  1.00  0.00    -0.191 NA
HETATM    2  C1  UNL     1      28.179   2.614   3.282  1.00  0.00     0.100 C 
HETATM    3  C2  UNL     1      27.123   3.473   3.653  1.00  0.00     0.060 A 
HETATM    4  C3  UNL     1      27.233   4.834   3.281  1.00  0.00     0.054 A 
HETATM    5  C4  UNL     1      26.277   5.764   3.581  1.00  0.00     0.044 A 
HETATM    6  N2  UNL     1      26.209   7.080   3.316  1.00  0.00    -0.365 N 
ATOM      7  H2  UNL     1      26.917   7.614   2.812  1.00  0.00     0.165 HD
HETATM    8  C5  UNL     1      25.072   7.586   3.812  1.00  0.00     0.089 A 
HETATM    9  C6  UNL     1      24.403   6.534   4.415  1.00  0.00     0.031 A 
HETATM   10  C7  UNL     1      25.174   5.396   4.261  1.00  0.00     0.003 A 
HETATM   11  C8  UNL     1      25.016   4.082   4.648  1.00  0.00    -0.008 A 
HETATM   12  C9  UNL     1      23.899   3.727   5.332  1.00  0.00     0.030 A 
HETATM   13  C10 UNL     1      23.715   2.440   5.726  1.00  0.00     0.090 A 
HETATM   14  N3  UNL     1      24.644   1.558   5.430  1.00  0.00    -0.358 N 
ATOM     15  H3  UNL     1      24.500   0.594   5.729  1.00  0.00     0.166 HD
HETATM   16  C11 UNL     1      25.802   1.856   4.737  1.00  0.00     0.099 A 
HETATM   17  C20 UNL     1      26.006   3.114   4.337  1.00  0.00     0.031 A 
ENDROOT
BRANCH  16  18
HETATM   18  C12 UNL     1      26.675   0.748   4.521  1.00  0.00    -0.042 C 
HETATM   19  C13 UNL     1      27.451  -0.128   4.281  1.00  0.00    -0.060 C 
BRANCH  19  20
HETATM   20  C14 UNL     1      28.412  -1.176   3.970  1.00  0.00     0.018 A 
HETATM   21  C15 UNL     1      29.751  -0.879   3.720  1.00  0.00     0.020 A 
HETATM   22  C16 UNL     1      30.663  -1.871   3.425  1.00  0.00     0.001 A 
HETATM   23  C17 UNL     1      30.281  -3.193   3.368  1.00  0.00     0.000 A 
HETATM   24  C18 UNL     1      28.961  -3.506   3.612  1.00  0.00     0.001 A 
HETATM   25  C19 UNL     1      28.056  -2.507   3.906  1.00  0.00     0.020 A 
ENDBRANCH  19  20
ENDBRANCH  16  18
TORSDOF 2
ENDMDL
MODEL 4
REMARK VINA RESULT: -2.216226625      1.241      2.705
REMARK  2 active torsions:
REMARK  status: ('A' for Active; 'I' for Inactive)
REMARK    1  A    between atoms: C11_16  and  C12_17 
REMARK    2  A    between atoms: C13_18  and  C14_19 
ROOT
HETATM    1  N1  UNL     1      26.387   0.698   2.486  1.00  0.00    -0.191 NA
HETATM    2  C1  UNL     1      26.432   1.705   3.040  1.00  0.00     0.100 C 
HETATM    3  C2  UNL     1      26.407   2.966   3.673  1.00  0.00     0.060 A 
HETATM    4  C3  UNL     1      25.362   3.850   3.314  1.00  0.00     0.054 A 
HETATM    5  C4  UNL     1      25.229   5.098   3.856  1.00  0.00     0.044 A 
HETATM    6  N2  UNL     1      24.317   6.063   3.642  1.00  0.00    -0.365 N 
ATOM      7  H2  UNL     1      23.532   5.995   2.995  1.00  0.00     0.165 HD
HETATM    8  C5  UNL     1      24.594   7.127   4.407  1.00  0.00     0.089 A 
HETATM    9  C6  UNL     1      25.732   6.810   5.130  1.00  0.00     0.031 A 
HETATM   10  C7  UNL     1      26.118   5.530   4.772  1.00  0.00     0.003 A 
HETATM   11  C8  UNL     1      27.156   4.708   5.157  1.00  0.00    -0.008 A 
HETATM   12  C9  UNL     1      28.044   5.158   6.080  1.00  0.00     0.030 A 
HETATM   13  C10 UNL     1      29.077   4.371   6.479  1.00  0.00     0.090 A 
HETATM   14  N3  UNL     1      29.191   3.174   5.949  1.00  0.00    -0.358 N 
ATOM     15  H3  UNL     1      29.969   2.588   6.253  1.00  0.00     0.166 HD
HETATM   16  C11 UNL     1      28.321   2.659   5.005  1.00  0.00     0.099 A 
HETATM   17  C20 UNL     1      27.297   3.412   4.596  1.00  0.00     0.031 A 
ENDROOT
BRANCH  16  18
HETATM   18  C12 UNL     1      28.628   1.338   4.563  1.00  0.00    -0.042 C 
HETATM   19  C13 UNL     1      28.952   0.230   4.255  1.00  0.00    -0.060 C 
BRANCH  19  20
HETATM   20  C14 UNL     1      29.368  -1.120   3.901  1.00  0.00     0.018 A 
HETATM   21  C15 UNL     1      28.447  -2.164   3.821  1.00  0.00     0.020 A 
HETATM   22  C16 UNL     1      28.839  -3.443   3.486  1.00  0.00     0.001 A 
HETATM   23  C17 UNL     1      30.157  -3.733   3.215  1.00  0.00     0.000 A 
HETATM   24  C18 UNL     1      31.083  -2.714   3.288  1.00  0.00     0.001 A 
HETATM   25  C19 UNL     1      30.681  -1.438   3.625  1.00  0.00     0.020 A 
ENDBRANCH  19  20
ENDBRANCH  16  18
TORSDOF 2
ENDMDL
MODEL 5
REMARK VINA RESULT: -1.930332891      1.184      2.962
REMARK  2 active torsions:
REMARK  status: ('A' for Active; 'I' for Inactive)
REMARK    1  A    between atoms: C11_16  and  C12_17 
REMARK    2  A    between atoms: C13_18  and  C14_19 
ROOT
HETATM    1  N1  UNL     1      25.441   0.394   3.759  1.00  0.00    -0.191 NA
HETATM    2  C1  UNL     1      25.577   1.521   3.940  1.00  0.00     0.100 C 
HETATM    3  C2  UNL     1      25.650   2.914   4.152  1.00  0.00     0.060 A 
HETATM    4  C3  UNL     1      24.438   3.643   4.095  1.00  0.00     0.054 A 
HETATM    5  C4  UNL     1      24.377   4.995   4.283  1.00  0.00     0.044 A 
HETATM    6  N2  UNL     1      23.334   5.845   4.265  1.00  0.00    -0.365 N 
ATOM      7  H2  UNL     1      22.364   5.579   4.096  1.00  0.00     0.165 HD
HETATM    8  C5  UNL     1      23.761   7.092   4.503  1.00  0.00     0.089 A 
HETATM    9  C6  UNL     1      25.132   7.015   4.676  1.00  0.00     0.031 A 
HETATM   10  C7  UNL     1      25.504   5.689   4.535  1.00  0.00     0.003 A 
HETATM   11  C8  UNL     1      26.712   5.028   4.601  1.00  0.00    -0.008 A 
HETATM   12  C9  UNL     1      27.839   5.741   4.855  1.00  0.00     0.030 A 
HETATM   13  C10 UNL     1      29.044   5.118   4.927  1.00  0.00     0.090 A 
HETATM   14  N3  UNL     1      29.086   3.818   4.744  1.00  0.00    -0.358 N 
ATOM     15  H3  UNL     1      29.994   3.356   4.799  1.00  0.00     0.166 HD
HETATM   16  C11 UNL     1      27.976   3.036   4.482  1.00  0.00     0.099 A 
HETATM   17  C20 UNL     1      26.779   3.624   4.407  1.00  0.00     0.031 A 
ENDROOT
BRANCH  16  18
HETATM   18  C12 UNL     1      28.246   1.645   4.317  1.00  0.00    -0.042 C 
HETATM   19  C13 UNL     1      28.537   0.503   4.120  1.00  0.00    -0.060 C 
BRANCH  19  20
HETATM   20  C14 UNL     1      28.914  -0.879   3.861  1.00  0.00     0.018 A 
HETATM   21  C15 UNL     1      30.229  -1.223   3.548  1.00  0.00     0.020 A 
HETATM   22  C16 UNL     1      30.588  -2.532   3.302  1.00  0.00     0.001 A 
HETATM   23  C17 UNL     1      29.659  -3.547   3.360  1.00  0.00     0.000 A 
HETATM   24  C18 UNL     1      28.354  -3.226   3.668  1.00  0.00     0.001 A 
HETATM   25  C19 UNL     1      28.004  -1.914   3.913  1.00  0.00     0.020 A 
ENDBRANCH  19  20
ENDBRANCH  16  18
TORSDOF 2
ENDMDL
