MODEL 1
REMARK VINA RESULT: -7.620990605      0.000      0.000
REMARK  5 active torsions:
REMARK  status: ('A' for Active; 'I' for Inactive)
REMARK    1  A    between atoms: C2_2  and  C3_3 
REMARK    2  A    between atoms: C4_4  and  S1_5 
REMARK    3  A    between atoms: S1_5  and  C5_7 
REMARK    4  A    between atoms: C5_7  and  C6_8 
REMARK    5  A    between atoms: C7_9  and  C8_10 
REMARK       I    between atoms: N3_16  and  C10_18 
REMARK       I    between atoms: C10_18  and  N4_20 
ROOT
HETATM    1  C8  UNL     1      38.529   3.552  46.859  1.00  0.00     0.091 A 
HETATM    2  N1  UNL     1      37.345   4.081  47.021  1.00  0.00    -0.292 N 
ATOM      3  H1  UNL     1      36.639   3.946  46.298  1.00  0.00     0.187 HD
HETATM    4  N2  UNL     1      37.050   4.758  48.052  1.00  0.00    -0.279 N 
ATOM      5  H2  UNL     1      36.121   5.164  48.161  1.00  0.00     0.189 HD
HETATM    6  C9  UNL     1      37.985   4.928  48.994  1.00  0.00     0.169 A 
HETATM    7  N3  UNL     1      37.883   5.585  50.121  1.00  0.00    -0.288 N 
ATOM      8  H3  UNL     1      37.018   6.054  50.392  1.00  0.00     0.172 HD
HETATM    9  C10 UNL     1      39.036   5.611  50.949  1.00  0.00     0.323 C 
HETATM   10  O2  UNL     1      39.670   4.530  51.105  1.00  0.00    -0.247 OA
HETATM   11  N4  UNL     1      39.482   6.787  51.588  1.00  0.00    -0.343 N 
HETATM   12  C11 UNL     1      38.744   8.022  51.400  1.00  0.00     0.154 C 
HETATM   13  C12 UNL     1      40.649   6.781  52.418  1.00  0.00     0.154 C 
HETATM   14  S2  UNL     1      39.304   4.069  48.325  1.00  0.00    -0.033 SA
ENDROOT
BRANCH   1  15
HETATM   15  C7  UNL     1      39.086   2.750  45.778  1.00  0.00     0.035 C 
HETATM   16  C6  UNL     1      38.962   2.922  44.501  1.00  0.00    -0.011 C 
BRANCH  16  17
HETATM   17  C5  UNL     1      38.246   3.944  43.749  1.00  0.00     0.150 C 
BRANCH  17  18
HETATM   18  S1  UNL     1      39.161   5.461  43.601  1.00  0.00     0.098 S 
HETATM   19  O1  UNL     1      40.749   5.151  43.129  1.00  0.00    -0.244 OA
BRANCH  18  20
HETATM   20  C4  UNL     1      39.085   6.403  45.017  1.00  0.00     0.003 C 
HETATM   21  C3  UNL     1      39.031   7.048  46.021  1.00  0.00    -0.065 C 
BRANCH  21  22
HETATM   22  C2  UNL     1      38.963   7.803  47.238  1.00  0.00     0.055 C 
HETATM   23  C1  UNL     1      37.805   8.251  47.711  1.00  0.00     0.021 C 
ENDBRANCH  21  22
ENDBRANCH  18  20
ENDBRANCH  17  18
ENDBRANCH  16  17
ENDBRANCH   1  15
TORSDOF 5
ENDMDL
MODEL 2
REMARK VINA RESULT: -7.327541592      2.433      6.611
REMARK  5 active torsions:
REMARK  status: ('A' for Active; 'I' for Inactive)
REMARK    1  A    between atoms: C2_2  and  C3_3 
REMARK    2  A    between atoms: C4_4  and  S1_5 
REMARK    3  A    between atoms: S1_5  and  C5_7 
REMARK    4  A    between atoms: C5_7  and  C6_8 
REMARK    5  A    between atoms: C7_9  and  C8_10 
REMARK       I    between atoms: N3_16  and  C10_18 
REMARK       I    between atoms: C10_18  and  N4_20 
ROOT
HETATM    1  C8  UNL     1      37.477   7.525  49.593  1.00  0.00     0.091 A 
HETATM    2  N1  UNL     1      36.641   6.551  49.837  1.00  0.00    -0.292 N 
ATOM      3  H1  UNL     1      36.104   6.563  50.704  1.00  0.00     0.187 HD
HETATM    4  N2  UNL     1      36.478   5.590  49.025  1.00  0.00    -0.279 N 
ATOM      5  H2  UNL     1      35.821   4.839  49.232  1.00  0.00     0.189 HD
HETATM    6  C9  UNL     1      37.188   5.585  47.891  1.00  0.00     0.169 A 
HETATM    7  N3  UNL     1      37.166   4.696  46.931  1.00  0.00    -0.288 N 
ATOM      8  H3  UNL     1      36.562   3.875  46.974  1.00  0.00     0.172 HD
HETATM    9  C10 UNL     1      38.026   4.931  45.826  1.00  0.00     0.323 C 
HETATM   10  O2  UNL     1      38.076   6.104  45.362  1.00  0.00    -0.247 OA
HETATM   11  N4  UNL     1      38.809   3.911  45.247  1.00  0.00    -0.343 N 
HETATM   12  C11 UNL     1      38.742   2.567  45.790  1.00  0.00     0.154 C 
HETATM   13  C12 UNL     1      39.667   4.180  44.132  1.00  0.00     0.154 C 
HETATM   14  S2  UNL     1      38.096   7.025  48.050  1.00  0.00    -0.033 SA
ENDROOT
BRANCH   1  15
HETATM   15  C7  UNL     1      37.825   8.711  50.364  1.00  0.00     0.035 C 
HETATM   16  C6  UNL     1      38.033   8.812  51.638  1.00  0.00    -0.011 C 
BRANCH  16  17
HETATM   17  C5  UNL     1      37.990   7.802  52.686  1.00  0.00     0.150 C 
BRANCH  17  18
HETATM   18  S1  UNL     1      39.569   7.035  52.972  1.00  0.00     0.098 S 
HETATM   19  O1  UNL     1      40.745   8.200  53.285  1.00  0.00    -0.244 OA
BRANCH  18  20
HETATM   20  C4  UNL     1      40.020   5.994  51.703  1.00  0.00     0.003 C 
HETATM   21  C3  UNL     1      40.335   5.276  50.800  1.00  0.00    -0.065 C 
BRANCH  21  22
HETATM   22  C2  UNL     1      40.709   4.434  49.703  1.00  0.00     0.055 C 
HETATM   23  C1  UNL     1      40.758   4.898  48.459  1.00  0.00     0.021 C 
ENDBRANCH  21  22
ENDBRANCH  18  20
ENDBRANCH  17  18
ENDBRANCH  16  17
ENDBRANCH   1  15
TORSDOF 5
ENDMDL
MODEL 3
REMARK VINA RESULT: -7.290574388      2.828      6.712
REMARK  5 active torsions:
REMARK  status: ('A' for Active; 'I' for Inactive)
REMARK    1  A    between atoms: C2_2  and  C3_3 
REMARK    2  A    between atoms: C4_4  and  S1_5 
REMARK    3  A    between atoms: S1_5  and  C5_7 
REMARK    4  A    between atoms: C5_7  and  C6_8 
REMARK    5  A    between atoms: C7_9  and  C8_10 
REMARK       I    between atoms: N3_16  and  C10_18 
REMARK       I    between atoms: C10_18  and  N4_20 
ROOT
HETATM    1  C8  UNL     1      37.018   7.104  49.077  1.00  0.00     0.091 A 
HETATM    2  N1  UNL     1      37.773   8.011  48.515  1.00  0.00    -0.292 N 
ATOM      3  H1  UNL     1      37.802   8.950  48.915  1.00  0.00     0.187 HD
HETATM    4  N2  UNL     1      38.472   7.758  47.488  1.00  0.00    -0.279 N 
ATOM      5  H2  UNL     1      39.054   8.478  47.062  1.00  0.00     0.189 HD
HETATM    6  C9  UNL     1      38.426   6.523  46.973  1.00  0.00     0.169 A 
HETATM    7  N3  UNL     1      39.065   6.062  45.928  1.00  0.00    -0.288 N 
ATOM      8  H3  UNL     1      39.695   6.650  45.383  1.00  0.00     0.172 HD
HETATM    9  C10 UNL     1      38.838   4.702  45.593  1.00  0.00     0.323 C 
HETATM   10  O2  UNL     1      38.831   3.859  46.534  1.00  0.00    -0.247 OA
HETATM   11  N4  UNL     1      38.624   4.276  44.265  1.00  0.00    -0.343 N 
HETATM   12  C11 UNL     1      38.634   5.253  43.194  1.00  0.00     0.154 C 
HETATM   13  C12 UNL     1      38.397   2.895  43.959  1.00  0.00     0.154 C 
HETATM   14  S2  UNL     1      37.334   5.749  48.037  1.00  0.00    -0.033 SA
ENDROOT
BRANCH   1  15
HETATM   15  C7  UNL     1      36.145   7.164  50.242  1.00  0.00     0.035 C 
HETATM   16  C6  UNL     1      36.313   7.828  51.341  1.00  0.00    -0.011 C 
BRANCH  16  17
HETATM   17  C5  UNL     1      37.396   8.707  51.759  1.00  0.00     0.150 C 
BRANCH  17  18
HETATM   18  S1  UNL     1      38.654   7.859  52.687  1.00  0.00     0.098 S 
HETATM   19  O1  UNL     1      39.807   8.950  53.256  1.00  0.00    -0.244 OA
BRANCH  18  20
HETATM   20  C4  UNL     1      39.358   6.584  51.807  1.00  0.00     0.003 C 
HETATM   21  C3  UNL     1      39.845   5.695  51.174  1.00  0.00    -0.065 C 
BRANCH  21  22
HETATM   22  C2  UNL     1      40.417   4.636  50.395  1.00  0.00     0.055 C 
HETATM   23  C1  UNL     1      40.827   4.838  49.147  1.00  0.00     0.021 C 
ENDBRANCH  21  22
ENDBRANCH  18  20
ENDBRANCH  17  18
ENDBRANCH  16  17
ENDBRANCH   1  15
TORSDOF 5
ENDMDL
MODEL 4
REMARK VINA RESULT: -7.040814714      2.933      7.075
REMARK  5 active torsions:
REMARK  status: ('A' for Active; 'I' for Inactive)
REMARK    1  A    between atoms: C2_2  and  C3_3 
REMARK    2  A    between atoms: C4_4  and  S1_5 
REMARK    3  A    between atoms: S1_5  and  C5_7 
REMARK    4  A    between atoms: C5_7  and  C6_8 
REMARK    5  A    between atoms: C7_9  and  C8_10 
REMARK       I    between atoms: N3_16  and  C10_18 
REMARK       I    between atoms: C10_18  and  N4_20 
ROOT
HETATM    1  C8  UNL     1      36.862   6.423  48.549  1.00  0.00     0.091 A 
HETATM    2  N1  UNL     1      36.177   5.362  48.212  1.00  0.00    -0.292 N 
ATOM      3  H1  UNL     1      35.372   5.091  48.776  1.00  0.00     0.187 HD
HETATM    4  N2  UNL     1      36.485   4.661  47.201  1.00  0.00    -0.279 N 
ATOM      5  H2  UNL     1      35.939   3.836  46.953  1.00  0.00     0.189 HD
HETATM    6  C9  UNL     1      37.543   5.027  46.468  1.00  0.00     0.169 A 
HETATM    7  N3  UNL     1      38.021   4.445  45.397  1.00  0.00    -0.288 N 
ATOM      8  H3  UNL     1      37.594   3.604  45.008  1.00  0.00     0.172 HD
HETATM    9  C10 UNL     1      39.164   5.043  44.805  1.00  0.00     0.323 C 
HETATM   10  O2  UNL     1      39.171   6.301  44.685  1.00  0.00    -0.247 OA
HETATM   11  N4  UNL     1      40.268   4.287  44.358  1.00  0.00    -0.343 N 
HETATM   12  C11 UNL     1      40.246   2.844  44.502  1.00  0.00     0.154 C 
HETATM   13  C12 UNL     1      41.406   4.921  43.763  1.00  0.00     0.154 C 
HETATM   14  S2  UNL     1      38.069   6.424  47.301  1.00  0.00    -0.033 SA
ENDROOT
BRANCH   1  15
HETATM   15  C7  UNL     1      36.698   7.365  49.648  1.00  0.00     0.035 C 
HETATM   16  C6  UNL     1      37.471   7.553  50.670  1.00  0.00    -0.011 C 
BRANCH  16  17
HETATM   17  C5  UNL     1      38.720   6.905  51.044  1.00  0.00     0.150 C 
BRANCH  17  18
HETATM   18  S1  UNL     1      39.277   7.362  52.669  1.00  0.00     0.098 S 
HETATM   19  O1  UNL     1      40.330   6.198  53.284  1.00  0.00    -0.244 OA
BRANCH  18  20
HETATM   20  C4  UNL     1      37.985   7.681  53.730  1.00  0.00     0.003 C 
HETATM   21  C3  UNL     1      37.067   7.911  54.460  1.00  0.00    -0.065 C 
BRANCH  21  22
HETATM   22  C2  UNL     1      35.954   8.196  55.318  1.00  0.00     0.055 C 
HETATM   23  C1  UNL     1      34.708   8.200  54.857  1.00  0.00     0.021 C 
ENDBRANCH  21  22
ENDBRANCH  18  20
ENDBRANCH  17  18
ENDBRANCH  16  17
ENDBRANCH   1  15
TORSDOF 5
ENDMDL
MODEL 5
REMARK VINA RESULT: -6.875858255      4.027      7.818
REMARK  5 active torsions:
REMARK  status: ('A' for Active; 'I' for Inactive)
REMARK    1  A    between atoms: C2_2  and  C3_3 
REMARK    2  A    between atoms: C4_4  and  S1_5 
REMARK    3  A    between atoms: S1_5  and  C5_7 
REMARK    4  A    between atoms: C5_7  and  C6_8 
REMARK    5  A    between atoms: C7_9  and  C8_10 
REMARK       I    between atoms: N3_16  and  C10_18 
REMARK       I    between atoms: C10_18  and  N4_20 
ROOT
HETATM    1  C8  UNL     1      37.610   7.126  49.594  1.00  0.00     0.091 A 
HETATM    2  N1  UNL     1      36.730   6.160  49.623  1.00  0.00    -0.292 N 
ATOM      3  H1  UNL     1      36.133   6.057  50.444  1.00  0.00     0.187 HD
HETATM    4  N2  UNL     1      36.597   5.347  48.659  1.00  0.00    -0.279 N 
ATOM      5  H2  UNL     1      35.905   4.599  48.699  1.00  0.00     0.189 HD
HETATM    6  C9  UNL     1      37.385   5.493  47.587  1.00  0.00     0.169 A 
HETATM    7  N3  UNL     1      37.406   4.768  46.498  1.00  0.00    -0.288 N 
ATOM      8  H3  UNL     1      36.776   3.975  46.369  1.00  0.00     0.172 HD
HETATM    9  C10 UNL     1      38.348   5.139  45.504  1.00  0.00     0.323 C 
HETATM   10  O2  UNL     1      38.465   6.368  45.238  1.00  0.00    -0.247 OA
HETATM   11  N4  UNL     1      39.140   4.193  44.821  1.00  0.00    -0.343 N 
HETATM   12  C11 UNL     1      38.995   2.784  45.136  1.00  0.00     0.154 C 
HETATM   13  C12 UNL     1      40.083   4.600  43.822  1.00  0.00     0.154 C 
HETATM   14  S2  UNL     1      38.322   6.851  48.034  1.00  0.00    -0.033 SA
ENDROOT
BRANCH   1  15
HETATM   15  C7  UNL     1      37.936   8.160  50.566  1.00  0.00     0.035 C 
HETATM   16  C6  UNL     1      37.164   8.709  51.450  1.00  0.00    -0.011 C 
BRANCH  16  17
HETATM   17  C5  UNL     1      35.758   8.476  51.752  1.00  0.00     0.150 C 
BRANCH  17  18
HETATM   18  S1  UNL     1      35.513   7.178  52.942  1.00  0.00     0.098 S 
HETATM   19  O1  UNL     1      34.926   5.788  52.190  1.00  0.00    -0.244 OA
BRANCH  18  20
HETATM   20  C4  UNL     1      34.529   7.668  54.241  1.00  0.00     0.003 C 
HETATM   21  C3  UNL     1      33.824   8.002  55.147  1.00  0.00    -0.065 C 
BRANCH  21  22
HETATM   22  C2  UNL     1      32.961   8.391  56.223  1.00  0.00     0.055 C 
HETATM   23  C1  UNL     1      31.689   8.010  56.262  1.00  0.00     0.021 C 
ENDBRANCH  21  22
ENDBRANCH  18  20
ENDBRANCH  17  18
ENDBRANCH  16  17
ENDBRANCH   1  15
TORSDOF 5
ENDMDL
