MODEL 1
REMARK VINA RESULT: -10.840048644      0.000      0.000
REMARK  6 active torsions:
REMARK  status: ('A' for Active; 'I' for Inactive)
REMARK       I    between atoms: C1_2  and  N1_3 
REMARK    1  A    between atoms: C1_2  and  C15_20 
REMARK    2  A    between atoms: N1_3  and  C2_5 
REMARK    3  A    between atoms: C5_8  and  N2_9 
REMARK    4  A    between atoms: N2_9  and  C6_11 
REMARK    5  A    between atoms: C6_11  and  C7_12 
REMARK    6  A    between atoms: C19_26  and  C20_27 
ROOT
HETATM    1  O1  UNL     1      13.827  22.525  34.208  1.00  0.00    -0.266 OA
HETATM    2  C1  UNL     1      13.063  21.568  33.998  1.00  0.00     0.272 C 
HETATM    3  N1  UNL     1      11.712  21.723  33.728  1.00  0.00    -0.322 N 
ATOM      4  H1  UNL     1      11.171  20.874  33.563  1.00  0.00     0.169 HD
ENDROOT
BRANCH   2   5
HETATM    5  C15 UNL     1      13.640  20.200  34.040  1.00  0.00     0.103 A 
HETATM    6  C16 UNL     1      14.950  19.860  33.785  1.00  0.00     0.067 A 
HETATM    7  C17 UNL     1      15.071  18.502  33.931  1.00  0.00     0.061 A 
HETATM    8  N3  UNL     1      16.117  17.654  33.802  1.00  0.00    -0.363 N 
HETATM    9  C27 UNL     1      13.832  18.015  34.275  1.00  0.00     0.060 A 
HETATM   10  C18 UNL     1      16.003  16.328  33.997  1.00  0.00     0.100 A 
ATOM     11  H3  UNL     1      17.028  18.035  33.545  1.00  0.00     0.165 HD
HETATM   12  C19 UNL     1      14.783  15.788  34.344  1.00  0.00    -0.008 A 
HETATM   13  C26 UNL     1      13.713  16.651  34.477  1.00  0.00     0.045 A 
HETATM   14  N4  UNL     1      13.000  19.065  34.331  1.00  0.00    -0.350 N 
ATOM     15  H4  UNL     1      12.008  19.004  34.563  1.00  0.00     0.166 HD
BRANCH  12  16
HETATM   16  C20 UNL     1      14.658  14.349  34.556  1.00  0.00    -0.025 A 
HETATM   17  C21 UNL     1      15.669  13.453  34.251  1.00  0.00     0.012 A 
HETATM   18  C22 UNL     1      15.515  12.106  34.465  1.00  0.00     0.001 A 
HETATM   19  C23 UNL     1      14.348  11.617  34.990  1.00  0.00     0.000 A 
HETATM   20  C24 UNL     1      13.329  12.474  35.303  1.00  0.00     0.001 A 
HETATM   21  C25 UNL     1      13.489  13.819  35.086  1.00  0.00     0.012 A 
ENDBRANCH  12  16
ENDBRANCH   2   5
BRANCH   3  22
HETATM   22  C2  UNL     1      11.014  22.954  33.661  1.00  0.00     0.035 A 
HETATM   23  C3  UNL     1      10.665  23.455  32.389  1.00  0.00     0.032 A 
HETATM   24  C4  UNL     1       9.974  24.630  32.242  1.00  0.00     0.031 A 
HETATM   25  C5  UNL     1       9.581  25.391  33.318  1.00  0.00     0.028 A 
HETATM   26  C13 UNL     1       9.916  24.910  34.560  1.00  0.00     0.031 A 
HETATM   27  C14 UNL     1      10.620  23.712  34.729  1.00  0.00     0.032 A 
BRANCH  25  28
HETATM   28  N2  UNL     1       8.864  26.611  33.172  1.00  0.00    -0.386 N 
ATOM     29  H2  UNL     1       9.229  27.455  33.612  1.00  0.00     0.160 HD
BRANCH  28  30
HETATM   30  C6  UNL     1       7.633  26.688  32.416  1.00  0.00     0.158 C 
BRANCH  30  31
HETATM   31  C7  UNL     1       6.694  25.633  32.861  1.00  0.00    -0.041 A 
HETATM   32  C8  UNL     1       6.413  25.547  34.195  1.00  0.00     0.009 A 
HETATM   33  C9  UNL     1       5.546  24.577  34.628  1.00  0.00     0.001 A 
HETATM   34  C10 UNL     1       4.976  23.712  33.715  1.00  0.00     0.000 A 
HETATM   35  C11 UNL     1       5.276  23.818  32.367  1.00  0.00     0.001 A 
HETATM   36  C12 UNL     1       6.155  24.797  31.908  1.00  0.00     0.009 A 
ENDBRANCH  30  31
ENDBRANCH  28  30
ENDBRANCH  25  28
ENDBRANCH   3  22
TORSDOF 6
ENDMDL
MODEL 2
REMARK VINA RESULT: -10.832663248      0.649      1.092
REMARK  6 active torsions:
REMARK  status: ('A' for Active; 'I' for Inactive)
REMARK       I    between atoms: C1_2  and  N1_3 
REMARK    1  A    between atoms: C1_2  and  C15_20 
REMARK    2  A    between atoms: N1_3  and  C2_5 
REMARK    3  A    between atoms: C5_8  and  N2_9 
REMARK    4  A    between atoms: N2_9  and  C6_11 
REMARK    5  A    between atoms: C6_11  and  C7_12 
REMARK    6  A    between atoms: C19_26  and  C20_27 
ROOT
HETATM    1  O1  UNL     1      13.900  22.164  34.482  1.00  0.00    -0.266 OA
HETATM    2  C1  UNL     1      13.104  21.227  34.301  1.00  0.00     0.272 C 
HETATM    3  N1  UNL     1      11.738  21.413  34.152  1.00  0.00    -0.322 N 
ATOM      4  H1  UNL     1      11.171  20.579  34.001  1.00  0.00     0.169 HD
ENDROOT
BRANCH   2   5
HETATM    5  C15 UNL     1      13.658  19.851  34.243  1.00  0.00     0.103 A 
HETATM    6  C16 UNL     1      14.945  19.504  33.893  1.00  0.00     0.067 A 
HETATM    7  C17 UNL     1      15.050  18.139  33.967  1.00  0.00     0.061 A 
HETATM    8  N3  UNL     1      16.071  17.282  33.734  1.00  0.00    -0.363 N 
HETATM    9  C27 UNL     1      13.825  17.654  34.361  1.00  0.00     0.060 A 
HETATM   10  C18 UNL     1      15.945  15.951  33.873  1.00  0.00     0.100 A 
ATOM     11  H3  UNL     1      16.972  17.662  33.442  1.00  0.00     0.165 HD
HETATM   12  C19 UNL     1      14.738  15.413  34.266  1.00  0.00    -0.008 A 
HETATM   13  C26 UNL     1      13.694  16.284  34.504  1.00  0.00     0.045 A 
HETATM   14  N4  UNL     1      13.016  18.712  34.517  1.00  0.00    -0.350 N 
ATOM     15  H4  UNL     1      12.040  18.655  34.806  1.00  0.00     0.166 HD
BRANCH  12  16
HETATM   16  C20 UNL     1      14.601  13.967  34.417  1.00  0.00    -0.025 A 
HETATM   17  C21 UNL     1      13.919  13.383  35.472  1.00  0.00     0.012 A 
HETATM   18  C22 UNL     1      13.810  12.019  35.581  1.00  0.00     0.001 A 
HETATM   19  C23 UNL     1      14.378  11.201  34.640  1.00  0.00     0.000 A 
HETATM   20  C24 UNL     1      15.059  11.745  33.585  1.00  0.00     0.001 A 
HETATM   21  C25 UNL     1      15.165  13.109  33.483  1.00  0.00     0.012 A 
ENDBRANCH  12  16
ENDBRANCH   2   5
BRANCH   3  22
HETATM   22  C2  UNL     1      11.060  22.656  34.190  1.00  0.00     0.035 A 
HETATM   23  C3  UNL     1      10.662  23.237  32.967  1.00  0.00     0.032 A 
HETATM   24  C4  UNL     1       9.986  24.428  32.922  1.00  0.00     0.031 A 
HETATM   25  C5  UNL     1       9.654  25.129  34.058  1.00  0.00     0.028 A 
HETATM   26  C13 UNL     1      10.037  24.569  35.252  1.00  0.00     0.031 A 
HETATM   27  C14 UNL     1      10.727  23.354  35.318  1.00  0.00     0.032 A 
BRANCH  25  28
HETATM   28  N2  UNL     1       8.953  26.365  34.018  1.00  0.00    -0.386 N 
ATOM     29  H2  UNL     1       9.400  27.174  33.586  1.00  0.00     0.160 HD
BRANCH  28  30
HETATM   30  C6  UNL     1       7.623  26.509  34.569  1.00  0.00     0.158 C 
BRANCH  30  31
HETATM   31  C7  UNL     1       6.714  25.501  33.978  1.00  0.00    -0.041 A 
HETATM   32  C8  UNL     1       6.093  24.624  34.821  1.00  0.00     0.009 A 
HETATM   33  C9  UNL     1       5.247  23.683  34.294  1.00  0.00     0.001 A 
HETATM   34  C10 UNL     1       5.040  23.638  32.930  1.00  0.00     0.000 A 
HETATM   35  C11 UNL     1       5.680  24.537  32.093  1.00  0.00     0.001 A 
HETATM   36  C12 UNL     1       6.543  25.501  32.610  1.00  0.00     0.009 A 
ENDBRANCH  30  31
ENDBRANCH  28  30
ENDBRANCH  25  28
ENDBRANCH   3  22
TORSDOF 6
ENDMDL
MODEL 3
REMARK VINA RESULT: -10.635251513      0.488      1.068
REMARK  6 active torsions:
REMARK  status: ('A' for Active; 'I' for Inactive)
REMARK       I    between atoms: C1_2  and  N1_3 
REMARK    1  A    between atoms: C1_2  and  C15_20 
REMARK    2  A    between atoms: N1_3  and  C2_5 
REMARK    3  A    between atoms: C5_8  and  N2_9 
REMARK    4  A    between atoms: N2_9  and  C6_11 
REMARK    5  A    between atoms: C6_11  and  C7_12 
REMARK    6  A    between atoms: C19_26  and  C20_27 
ROOT
HETATM    1  O1  UNL     1      13.775  22.425  34.544  1.00  0.00    -0.266 OA
HETATM    2  C1  UNL     1      13.023  21.492  34.215  1.00  0.00     0.272 C 
HETATM    3  N1  UNL     1      11.689  21.674  33.885  1.00  0.00    -0.322 N 
ATOM      4  H1  UNL     1      11.159  20.844  33.621  1.00  0.00     0.169 HD
ENDROOT
BRANCH   2   5
HETATM    5  C15 UNL     1      13.597  20.122  34.176  1.00  0.00     0.103 A 
HETATM    6  C16 UNL     1      14.868  19.782  33.767  1.00  0.00     0.067 A 
HETATM    7  C17 UNL     1      15.001  18.423  33.885  1.00  0.00     0.061 A 
HETATM    8  N3  UNL     1      16.023  17.574  33.626  1.00  0.00    -0.363 N 
HETATM    9  C27 UNL     1      13.809  17.934  34.366  1.00  0.00     0.060 A 
HETATM   10  C18 UNL     1      15.928  16.247  33.821  1.00  0.00     0.100 A 
ATOM     11  H3  UNL     1      16.899  17.957  33.270  1.00  0.00     0.165 HD
HETATM   12  C19 UNL     1      14.755  15.705  34.302  1.00  0.00    -0.008 A 
HETATM   13  C26 UNL     1      13.711  16.569  34.566  1.00  0.00     0.045 A 
HETATM   14  N4  UNL     1      12.992  18.985  34.528  1.00  0.00    -0.350 N 
ATOM     15  H4  UNL     1      12.034  18.924  34.874  1.00  0.00     0.166 HD
BRANCH  12  16
HETATM   16  C20 UNL     1      14.651  14.265  34.513  1.00  0.00    -0.025 A 
HETATM   17  C21 UNL     1      15.664  13.381  34.181  1.00  0.00     0.012 A 
HETATM   18  C22 UNL     1      15.531  12.031  34.395  1.00  0.00     0.001 A 
HETATM   19  C23 UNL     1      14.382  11.528  34.947  1.00  0.00     0.000 A 
HETATM   20  C24 UNL     1      13.362  12.373  35.287  1.00  0.00     0.001 A 
HETATM   21  C25 UNL     1      13.502  13.720  35.070  1.00  0.00     0.012 A 
ENDBRANCH  12  16
ENDBRANCH   2   5
BRANCH   3  22
HETATM   22  C2  UNL     1      10.997  22.910  33.881  1.00  0.00     0.035 A 
HETATM   23  C3  UNL     1      10.483  23.391  35.104  1.00  0.00     0.032 A 
HETATM   24  C4  UNL     1       9.818  24.587  35.186  1.00  0.00     0.031 A 
HETATM   25  C5  UNL     1       9.610  25.388  34.087  1.00  0.00     0.028 A 
HETATM   26  C13 UNL     1      10.107  24.928  32.893  1.00  0.00     0.031 A 
HETATM   27  C14 UNL     1      10.790  23.710  32.791  1.00  0.00     0.032 A 
BRANCH  25  28
HETATM   28  N2  UNL     1       8.920  26.630  34.165  1.00  0.00    -0.386 N 
ATOM     29  H2  UNL     1       9.408  27.485  33.901  1.00  0.00     0.160 HD
BRANCH  28  30
HETATM   30  C6  UNL     1       7.545  26.713  34.609  1.00  0.00     0.158 C 
BRANCH  30  31
HETATM   31  C7  UNL     1       6.729  25.674  33.941  1.00  0.00    -0.041 A 
HETATM   32  C8  UNL     1       6.104  24.747  34.726  1.00  0.00     0.009 A 
HETATM   33  C9  UNL     1       5.343  23.777  34.127  1.00  0.00     0.001 A 
HETATM   34  C10 UNL     1       5.224  23.752  32.753  1.00  0.00     0.000 A 
HETATM   35  C11 UNL     1       5.868  24.701  31.976  1.00  0.00     0.001 A 
HETATM   36  C12 UNL     1       6.645  25.696  32.566  1.00  0.00     0.009 A 
ENDBRANCH  30  31
ENDBRANCH  28  30
ENDBRANCH  25  28
ENDBRANCH   3  22
TORSDOF 6
ENDMDL
MODEL 4
REMARK VINA RESULT: -10.576056825      1.189      1.881
REMARK  6 active torsions:
REMARK  status: ('A' for Active; 'I' for Inactive)
REMARK       I    between atoms: C1_2  and  N1_3 
REMARK    1  A    between atoms: C1_2  and  C15_20 
REMARK    2  A    between atoms: N1_3  and  C2_5 
REMARK    3  A    between atoms: C5_8  and  N2_9 
REMARK    4  A    between atoms: N2_9  and  C6_11 
REMARK    5  A    between atoms: C6_11  and  C7_12 
REMARK    6  A    between atoms: C19_26  and  C20_27 
ROOT
HETATM    1  O1  UNL     1      14.350  22.537  33.118  1.00  0.00    -0.266 OA
HETATM    2  C1  UNL     1      13.707  21.759  33.842  1.00  0.00     0.272 C 
HETATM    3  N1  UNL     1      12.627  22.160  34.614  1.00  0.00    -0.322 N 
ATOM      4  H1  UNL     1      12.162  21.443  35.169  1.00  0.00     0.169 HD
ENDROOT
BRANCH   2   5
HETATM    5  C15 UNL     1      14.127  20.335  33.871  1.00  0.00     0.103 A 
HETATM    6  C16 UNL     1      15.339  19.834  33.449  1.00  0.00     0.067 A 
HETATM    7  C17 UNL     1      15.327  18.477  33.644  1.00  0.00     0.061 A 
HETATM    8  N3  UNL     1      16.241  17.507  33.409  1.00  0.00    -0.363 N 
HETATM    9  C27 UNL     1      14.106  18.151  34.185  1.00  0.00     0.060 A 
HETATM   10  C18 UNL     1      16.009  16.211  33.686  1.00  0.00     0.100 A 
ATOM     11  H3  UNL     1      17.141  17.770  33.007  1.00  0.00     0.165 HD
HETATM   12  C19 UNL     1      14.801  15.831  34.229  1.00  0.00    -0.008 A 
HETATM   13  C26 UNL     1      13.866  16.818  34.470  1.00  0.00     0.045 A 
HETATM   14  N4  UNL     1      13.413  19.293  34.306  1.00  0.00    -0.350 N 
ATOM     15  H4  UNL     1      12.467  19.358  34.680  1.00  0.00     0.166 HD
BRANCH  12  16
HETATM   16  C20 UNL     1      14.548  14.425  34.529  1.00  0.00    -0.025 A 
HETATM   17  C21 UNL     1      13.347  13.971  35.049  1.00  0.00     0.012 A 
HETATM   18  C22 UNL     1      13.145  12.640  35.319  1.00  0.00     0.001 A 
HETATM   19  C23 UNL     1      14.137  11.727  35.077  1.00  0.00     0.000 A 
HETATM   20  C24 UNL     1      15.336  12.141  34.565  1.00  0.00     0.001 A 
HETATM   21  C25 UNL     1      15.531  13.472  34.298  1.00  0.00     0.012 A 
ENDBRANCH  12  16
ENDBRANCH   2   5
BRANCH   3  22
HETATM   22  C2  UNL     1      12.113  23.477  34.700  1.00  0.00     0.035 A 
HETATM   23  C3  UNL     1      12.005  24.231  33.512  1.00  0.00     0.032 A 
HETATM   24  C4  UNL     1      11.499  25.505  33.510  1.00  0.00     0.031 A 
HETATM   25  C5  UNL     1      11.069  26.127  34.659  1.00  0.00     0.028 A 
HETATM   26  C13 UNL     1      11.170  25.400  35.819  1.00  0.00     0.031 A 
HETATM   27  C14 UNL     1      11.682  24.097  35.841  1.00  0.00     0.032 A 
BRANCH  25  28
HETATM   28  N2  UNL     1      10.544  27.449  34.663  1.00  0.00    -0.386 N 
ATOM     29  H2  UNL     1      11.187  28.237  34.587  1.00  0.00     0.160 HD
BRANCH  28  30
HETATM   30  C6  UNL     1       9.125  27.707  34.772  1.00  0.00     0.158 C 
BRANCH  30  31
HETATM   31  C7  UNL     1       8.359  26.650  34.073  1.00  0.00    -0.041 A 
HETATM   32  C8  UNL     1       8.425  26.604  32.710  1.00  0.00     0.009 A 
HETATM   33  C9  UNL     1       7.723  25.633  32.045  1.00  0.00     0.001 A 
HETATM   34  C10 UNL     1       6.967  24.725  32.758  1.00  0.00     0.000 A 
HETATM   35  C11 UNL     1       6.913  24.790  34.141  1.00  0.00     0.001 A 
HETATM   36  C12 UNL     1       7.621  25.770  34.835  1.00  0.00     0.009 A 
ENDBRANCH  30  31
ENDBRANCH  28  30
ENDBRANCH  25  28
ENDBRANCH   3  22
TORSDOF 6
ENDMDL
MODEL 5
REMARK VINA RESULT: -10.534240157      1.144      1.679
REMARK  6 active torsions:
REMARK  status: ('A' for Active; 'I' for Inactive)
REMARK       I    between atoms: C1_2  and  N1_3 
REMARK    1  A    between atoms: C1_2  and  C15_20 
REMARK    2  A    between atoms: N1_3  and  C2_5 
REMARK    3  A    between atoms: C5_8  and  N2_9 
REMARK    4  A    between atoms: N2_9  and  C6_11 
REMARK    5  A    between atoms: C6_11  and  C7_12 
REMARK    6  A    between atoms: C19_26  and  C20_27 
ROOT
HETATM    1  O1  UNL     1      14.366  22.593  33.219  1.00  0.00    -0.266 OA
HETATM    2  C1  UNL     1      13.652  21.778  33.828  1.00  0.00     0.272 C 
HETATM    3  N1  UNL     1      12.478  22.135  34.473  1.00  0.00    -0.322 N 
ATOM      4  H1  UNL     1      11.960  21.390  34.940  1.00  0.00     0.169 HD
ENDROOT
BRANCH   2   5
HETATM    5  C15 UNL     1      14.092  20.360  33.858  1.00  0.00     0.103 A 
HETATM    6  C16 UNL     1      15.311  19.876  33.436  1.00  0.00     0.067 A 
HETATM    7  C17 UNL     1      15.318  18.519  33.633  1.00  0.00     0.061 A 
HETATM    8  N3  UNL     1      16.245  17.562  33.399  1.00  0.00    -0.363 N 
HETATM    9  C27 UNL     1      14.101  18.176  34.174  1.00  0.00     0.060 A 
HETATM   10  C18 UNL     1      16.032  16.263  33.676  1.00  0.00     0.100 A 
ATOM     11  H3  UNL     1      17.142  17.836  32.996  1.00  0.00     0.165 HD
HETATM   12  C19 UNL     1      14.829  15.867  34.219  1.00  0.00    -0.008 A 
HETATM   13  C26 UNL     1      13.880  16.841  34.459  1.00  0.00     0.045 A 
HETATM   14  N4  UNL     1      13.393  19.309  34.294  1.00  0.00    -0.350 N 
ATOM     15  H4  UNL     1      12.446  19.361  34.668  1.00  0.00     0.166 HD
BRANCH  12  16
HETATM   16  C20 UNL     1      14.595  14.457  34.521  1.00  0.00    -0.025 A 
HETATM   17  C21 UNL     1      15.535  13.470  34.275  1.00  0.00     0.012 A 
HETATM   18  C22 UNL     1      15.281  12.154  34.572  1.00  0.00     0.001 A 
HETATM   19  C23 UNL     1      14.080  11.789  35.123  1.00  0.00     0.000 A 
HETATM   20  C24 UNL     1      13.129  12.738  35.378  1.00  0.00     0.001 A 
HETATM   21  C25 UNL     1      13.391  14.051  35.078  1.00  0.00     0.012 A 
ENDBRANCH  12  16
ENDBRANCH   2   5
BRANCH   3  22
HETATM   22  C2  UNL     1      11.932  23.440  34.541  1.00  0.00     0.035 A 
HETATM   23  C3  UNL     1      11.261  23.822  35.723  1.00  0.00     0.032 A 
HETATM   24  C4  UNL     1      10.723  25.073  35.874  1.00  0.00     0.031 A 
HETATM   25  C5  UNL     1      10.800  26.030  34.888  1.00  0.00     0.028 A 
HETATM   26  C13 UNL     1      11.452  25.667  33.735  1.00  0.00     0.031 A 
HETATM   27  C14 UNL     1      12.009  24.394  33.564  1.00  0.00     0.032 A 
BRANCH  25  28
HETATM   28  N2  UNL     1      10.242  27.330  35.038  1.00  0.00    -0.386 N 
ATOM     29  H2  UNL     1      10.869  28.128  35.143  1.00  0.00     0.160 HD
BRANCH  28  30
HETATM   30  C6  UNL     1       8.813  27.552  35.046  1.00  0.00     0.158 C 
BRANCH  30  31
HETATM   31  C7  UNL     1       8.136  26.545  34.198  1.00  0.00    -0.041 A 
HETATM   32  C8  UNL     1       7.345  25.616  34.812  1.00  0.00     0.009 A 
HETATM   33  C9  UNL     1       6.710  24.674  34.045  1.00  0.00     0.001 A 
HETATM   34  C10 UNL     1       6.878  24.681  32.675  1.00  0.00     0.000 A 
HETATM   35  C11 UNL     1       7.684  25.632  32.072  1.00  0.00     0.001 A 
HETATM   36  C12 UNL     1       8.338  26.598  32.835  1.00  0.00     0.009 A 
ENDBRANCH  30  31
ENDBRANCH  28  30
ENDBRANCH  25  28
ENDBRANCH   3  22
TORSDOF 6
ENDMDL
