MODEL 1
REMARK VINA RESULT: -7.201886772      0.000      0.000
REMARK  6 active torsions:
REMARK  status: ('A' for Active; 'I' for Inactive)
REMARK    1  A    between atoms: N2_14  and  C9_15 
REMARK    2  A    between atoms: C9_15  and  C10_16 
REMARK    3  A    between atoms: C10_16  and  C11_17 
REMARK    4  A    between atoms: C11_17  and  C12_18 
REMARK    5  A    between atoms: C12_18  and  N3_19 
REMARK    6  A    between atoms: N3_19  and  C13_22 
ROOT
HETATM    1  C9  UNL     1      -2.683   3.826  12.771  1.00  0.00     0.127 C 
ENDROOT
BRANCH   1   2
HETATM    2  N2  UNL     1      -3.578   3.038  13.571  1.00  0.00    -0.342 N 
HETATM    3  C1  UNL     1      -3.337   2.618  14.896  1.00  0.00     0.225 C 
HETATM    4  O1  UNL     1      -2.336   2.870  15.589  1.00  0.00    -0.273 OA
HETATM    5  C2  UNL     1      -4.499   1.808  15.337  1.00  0.00     0.085 C 
HETATM    6  C3  UNL     1      -4.211   0.391  14.940  1.00  0.00     0.062 C 
HETATM    7  C8  UNL     1      -5.625   2.387  14.466  1.00  0.00     0.046 C 
HETATM    8  C4  UNL     1      -4.458   0.175  13.465  1.00  0.00     0.013 A 
HETATM    9  S1  UNL     1      -4.428  -1.231  12.479  1.00  0.00    -0.032 SA
HETATM   10  C6  UNL     1      -4.775   1.152  12.570  1.00  0.00     0.049 A 
HETATM   11  C5  UNL     1      -4.818  -0.499  10.998  1.00  0.00     0.288 A 
HETATM   12  O2  UNL     1      -4.957  -1.026   9.829  1.00  0.00    -0.260 OA
HETATM   13  N1  UNL     1      -4.954   0.787  11.315  1.00  0.00    -0.318 N 
ATOM     14  H1  UNL     1      -5.192   1.475  10.602  1.00  0.00     0.169 HD
HETATM   15  C7  UNL     1      -4.881   2.556  13.158  1.00  0.00     0.139 C 
ENDBRANCH   1   2
BRANCH   1  16
HETATM   16  C10 UNL     1      -2.066   3.053  11.611  1.00  0.00     0.022 C 
BRANCH  16  17
HETATM   17  C11 UNL     1      -2.185   3.740  10.300  1.00  0.00     0.029 C 
BRANCH  17  18
HETATM   18  C12 UNL     1      -3.595   3.768   9.815  1.00  0.00     0.233 C 
BRANCH  18  19
HETATM   19  N3  UNL     1      -4.048   5.100   9.593  1.00  0.00    -0.070 N 
ATOM     20  H32 UNL     1      -3.336   5.787   9.842  1.00  0.00     0.277 HD
ATOM     21  H31 UNL     1      -4.125   5.312   8.599  1.00  0.00     0.277 HD
BRANCH  19  22
HETATM   22  C13 UNL     1      -5.319   5.347  10.307  1.00  0.00     0.190 C 
HETATM   23  C14 UNL     1      -6.390   5.847   9.382  1.00  0.00     0.034 C 
HETATM   24  C15 UNL     1      -7.540   6.505  10.053  1.00  0.00     0.007 C 
HETATM   25  C16 UNL     1      -7.331   6.960  11.443  1.00  0.00    -0.014 C 
HETATM   26  C17 UNL     1      -6.529   8.270  11.370  1.00  0.00     0.005 C 
HETATM   27  C20 UNL     1      -6.408   6.129  12.286  1.00  0.00     0.011 C 
HETATM   28  C18 UNL     1      -5.158   7.748  11.017  1.00  0.00     0.007 C 
HETATM   29  C19 UNL     1      -5.112   6.288  11.472  1.00  0.00     0.016 C 
ENDBRANCH  19  22
ENDBRANCH  18  19
ENDBRANCH  17  18
ENDBRANCH  16  17
ENDBRANCH   1  16
TORSDOF 6
ENDMDL
MODEL 2
REMARK VINA RESULT: -6.947658712      0.950      1.794
REMARK  6 active torsions:
REMARK  status: ('A' for Active; 'I' for Inactive)
REMARK    1  A    between atoms: N2_14  and  C9_15 
REMARK    2  A    between atoms: C9_15  and  C10_16 
REMARK    3  A    between atoms: C10_16  and  C11_17 
REMARK    4  A    between atoms: C11_17  and  C12_18 
REMARK    5  A    between atoms: C12_18  and  N3_19 
REMARK    6  A    between atoms: N3_19  and  C13_22 
ROOT
HETATM    1  C9  UNL     1      -2.516   3.725  12.746  1.00  0.00     0.127 C 
ENDROOT
BRANCH   1   2
HETATM    2  N2  UNL     1      -3.458   2.982  13.534  1.00  0.00    -0.342 N 
HETATM    3  C1  UNL     1      -3.261   2.561  14.866  1.00  0.00     0.225 C 
HETATM    4  O1  UNL     1      -2.262   2.774  15.575  1.00  0.00    -0.273 OA
HETATM    5  C2  UNL     1      -4.464   1.804  15.289  1.00  0.00     0.085 C 
HETATM    6  C3  UNL     1      -4.231   0.374  14.907  1.00  0.00     0.062 C 
HETATM    7  C8  UNL     1      -5.548   2.426  14.394  1.00  0.00     0.046 C 
HETATM    8  C4  UNL     1      -4.460   0.159  13.429  1.00  0.00     0.013 A 
HETATM    9  S1  UNL     1      -4.474  -1.253  12.452  1.00  0.00    -0.032 SA
HETATM   10  C6  UNL     1      -4.718   1.143  12.521  1.00  0.00     0.049 A 
HETATM   11  C5  UNL     1      -4.804  -0.515  10.959  1.00  0.00     0.288 A 
HETATM   12  O2  UNL     1      -4.945  -1.044   9.791  1.00  0.00    -0.260 OA
HETATM   13  N1  UNL     1      -4.890   0.777  11.266  1.00  0.00    -0.318 N 
ATOM     14  H1  UNL     1      -5.085   1.471  10.545  1.00  0.00     0.169 HD
HETATM   15  C7  UNL     1      -4.774   2.554  13.099  1.00  0.00     0.139 C 
ENDBRANCH   1   2
BRANCH   1  16
HETATM   16  C10 UNL     1      -3.145   4.414  11.539  1.00  0.00     0.022 C 
BRANCH  16  17
HETATM   17  C11 UNL     1      -2.904   3.711  10.254  1.00  0.00     0.029 C 
BRANCH  17  18
HETATM   18  C12 UNL     1      -3.766   4.246   9.161  1.00  0.00     0.233 C 
BRANCH  18  19
HETATM   19  N3  UNL     1      -5.131   4.329   9.561  1.00  0.00    -0.070 N 
ATOM     20  H32 UNL     1      -5.713   3.661   9.056  1.00  0.00     0.277 HD
ATOM     21  H31 UNL     1      -5.270   3.970  10.506  1.00  0.00     0.277 HD
BRANCH  19  22
HETATM   22  C13 UNL     1      -5.635   5.712   9.421  1.00  0.00     0.190 C 
HETATM   23  C14 UNL     1      -6.387   6.158  10.640  1.00  0.00     0.034 C 
HETATM   24  C15 UNL     1      -7.266   7.339  10.437  1.00  0.00     0.007 C 
HETATM   25  C16 UNL     1      -7.623   7.673   9.043  1.00  0.00    -0.014 C 
HETATM   26  C17 UNL     1      -8.722   6.688   8.614  1.00  0.00     0.005 C 
HETATM   27  C20 UNL     1      -6.583   7.383   8.000  1.00  0.00     0.011 C 
HETATM   28  C18 UNL     1      -7.919   5.425   8.422  1.00  0.00     0.007 C 
HETATM   29  C19 UNL     1      -6.472   5.858   8.171  1.00  0.00     0.016 C 
ENDBRANCH  19  22
ENDBRANCH  18  19
ENDBRANCH  17  18
ENDBRANCH  16  17
ENDBRANCH   1  16
TORSDOF 6
ENDMDL
MODEL 3
REMARK VINA RESULT: -6.935518074      2.756      6.104
REMARK  6 active torsions:
REMARK  status: ('A' for Active; 'I' for Inactive)
REMARK    1  A    between atoms: N2_14  and  C9_15 
REMARK    2  A    between atoms: C9_15  and  C10_16 
REMARK    3  A    between atoms: C10_16  and  C11_17 
REMARK    4  A    between atoms: C11_17  and  C12_18 
REMARK    5  A    between atoms: C12_18  and  N3_19 
REMARK    6  A    between atoms: N3_19  and  C13_22 
ROOT
HETATM    1  C9  UNL     1      -2.634   4.832  14.091  1.00  0.00     0.127 C 
ENDROOT
BRANCH   1   2
HETATM    2  N2  UNL     1      -2.542   4.374  12.734  1.00  0.00    -0.342 N 
HETATM    3  C1  UNL     1      -2.986   5.084  11.598  1.00  0.00     0.225 C 
HETATM    4  O1  UNL     1      -3.505   6.214  11.581  1.00  0.00    -0.273 OA
HETATM    5  C2  UNL     1      -2.728   4.243  10.404  1.00  0.00     0.085 C 
HETATM    6  C3  UNL     1      -3.938   3.380  10.215  1.00  0.00     0.062 C 
HETATM    7  C8  UNL     1      -1.536   3.396  10.878  1.00  0.00     0.046 C 
HETATM    8  C4  UNL     1      -3.941   2.222  11.186  1.00  0.00     0.013 A 
HETATM    9  S1  UNL     1      -4.971   0.859  11.361  1.00  0.00    -0.032 SA
HETATM   10  C6  UNL     1      -3.043   2.040  12.194  1.00  0.00     0.049 A 
HETATM   11  C5  UNL     1      -4.205   0.143  12.695  1.00  0.00     0.288 A 
HETATM   12  O2  UNL     1      -4.498  -0.940  13.331  1.00  0.00    -0.260 OA
HETATM   13  N1  UNL     1      -3.195   0.972  12.953  1.00  0.00    -0.318 N 
ATOM     14  H1  UNL     1      -2.553   0.785  13.722  1.00  0.00     0.169 HD
HETATM   15  C7  UNL     1      -1.966   3.116  12.302  1.00  0.00     0.139 C 
ENDBRANCH   1   2
BRANCH   1  16
HETATM   16  C10 UNL     1      -3.809   4.233  14.856  1.00  0.00     0.022 C 
BRANCH  16  17
HETATM   17  C11 UNL     1      -5.125   4.454  14.204  1.00  0.00     0.029 C 
BRANCH  17  18
HETATM   18  C12 UNL     1      -6.254   4.011  15.071  1.00  0.00     0.233 C 
BRANCH  18  19
HETATM   19  N3  UNL     1      -6.444   2.601  15.007  1.00  0.00    -0.070 N 
ATOM     20  H32 UNL     1      -7.406   2.360  14.768  1.00  0.00     0.277 HD
ATOM     21  H31 UNL     1      -5.978   2.194  14.195  1.00  0.00     0.277 HD
BRANCH  19  22
HETATM   22  C13 UNL     1      -6.014   1.956  16.265  1.00  0.00     0.190 C 
HETATM   23  C14 UNL     1      -5.202   0.720  16.010  1.00  0.00     0.034 C 
HETATM   24  C15 UNL     1      -5.084  -0.203  17.168  1.00  0.00     0.007 C 
HETATM   25  C16 UNL     1      -6.071  -0.039  18.256  1.00  0.00    -0.014 C 
HETATM   26  C17 UNL     1      -7.379  -0.689  17.775  1.00  0.00     0.005 C 
HETATM   27  C20 UNL     1      -6.549   1.360  18.518  1.00  0.00     0.011 C 
HETATM   28  C18 UNL     1      -7.860   0.336  16.778  1.00  0.00     0.007 C 
HETATM   29  C19 UNL     1      -7.199   1.663  17.156  1.00  0.00     0.016 C 
ENDBRANCH  19  22
ENDBRANCH  18  19
ENDBRANCH  17  18
ENDBRANCH  16  17
ENDBRANCH   1  16
TORSDOF 6
ENDMDL
MODEL 4
REMARK VINA RESULT: -6.831601388      2.227      2.551
REMARK  6 active torsions:
REMARK  status: ('A' for Active; 'I' for Inactive)
REMARK    1  A    between atoms: N2_14  and  C9_15 
REMARK    2  A    between atoms: C9_15  and  C10_16 
REMARK    3  A    between atoms: C10_16  and  C11_17 
REMARK    4  A    between atoms: C11_17  and  C12_18 
REMARK    5  A    between atoms: C12_18  and  N3_19 
REMARK    6  A    between atoms: N3_19  and  C13_22 
ROOT
HETATM    1  C9  UNL     1      -2.091   3.503  14.373  1.00  0.00     0.127 C 
ENDROOT
BRANCH   1   2
HETATM    2  N2  UNL     1      -3.524   3.474  14.300  1.00  0.00    -0.342 N 
HETATM    3  C1  UNL     1      -4.391   4.459  14.816  1.00  0.00     0.225 C 
HETATM    4  O1  UNL     1      -4.065   5.509  15.397  1.00  0.00    -0.273 OA
HETATM    5  C2  UNL     1      -5.785   4.027  14.549  1.00  0.00     0.085 C 
HETATM    6  C3  UNL     1      -6.206   3.186  15.716  1.00  0.00     0.062 C 
HETATM    7  C8  UNL     1      -5.601   3.153  13.300  1.00  0.00     0.046 C 
HETATM    8  C4  UNL     1      -5.623   1.795  15.626  1.00  0.00     0.013 A 
HETATM    9  S1  UNL     1      -5.848   0.381  16.574  1.00  0.00    -0.032 SA
HETATM   10  C6  UNL     1      -4.727   1.377  14.688  1.00  0.00     0.049 A 
HETATM   11  C5  UNL     1      -4.797  -0.650  15.729  1.00  0.00     0.288 A 
HETATM   12  O2  UNL     1      -4.508  -1.889  15.943  1.00  0.00    -0.260 OA
HETATM   13  N1  UNL     1      -4.318   0.125  14.759  1.00  0.00    -0.318 N 
ATOM     14  H1  UNL     1      -3.648  -0.242  14.084  1.00  0.00     0.169 HD
HETATM   15  C7  UNL     1      -4.319   2.437  13.669  1.00  0.00     0.139 C 
ENDBRANCH   1   2
BRANCH   1  16
HETATM   16  C10 UNL     1      -1.456   4.522  13.433  1.00  0.00     0.022 C 
BRANCH  16  17
HETATM   17  C11 UNL     1      -1.973   4.460  12.043  1.00  0.00     0.029 C 
BRANCH  17  18
HETATM   18  C12 UNL     1      -2.781   5.665  11.698  1.00  0.00     0.233 C 
BRANCH  18  19
HETATM   19  N3  UNL     1      -3.528   5.472  10.501  1.00  0.00    -0.070 N 
ATOM     20  H32 UNL     1      -3.212   6.092   9.755  1.00  0.00     0.277 HD
ATOM     21  H31 UNL     1      -3.309   4.578  10.059  1.00  0.00     0.277 HD
BRANCH  19  22
HETATM   22  C13 UNL     1      -4.977   5.616  10.757  1.00  0.00     0.190 C 
HETATM   23  C14 UNL     1      -5.749   5.830   9.489  1.00  0.00     0.034 C 
HETATM   24  C15 UNL     1      -7.113   6.390   9.672  1.00  0.00     0.007 C 
HETATM   25  C16 UNL     1      -7.397   7.044  10.966  1.00  0.00    -0.014 C 
HETATM   26  C17 UNL     1      -6.751   8.438  10.915  1.00  0.00     0.005 C 
HETATM   27  C20 UNL     1      -6.705   6.473  12.169  1.00  0.00     0.011 C 
HETATM   28  C18 UNL     1      -5.292   8.085  11.073  1.00  0.00     0.007 C 
HETATM   29  C19 UNL     1      -5.242   6.718  11.757  1.00  0.00     0.016 C 
ENDBRANCH  19  22
ENDBRANCH  18  19
ENDBRANCH  17  18
ENDBRANCH  16  17
ENDBRANCH   1  16
TORSDOF 6
ENDMDL
MODEL 5
REMARK VINA RESULT: -6.754960427      0.812      1.352
REMARK  6 active torsions:
REMARK  status: ('A' for Active; 'I' for Inactive)
REMARK    1  A    between atoms: N2_14  and  C9_15 
REMARK    2  A    between atoms: C9_15  and  C10_16 
REMARK    3  A    between atoms: C10_16  and  C11_17 
REMARK    4  A    between atoms: C11_17  and  C12_18 
REMARK    5  A    between atoms: C12_18  and  N3_19 
REMARK    6  A    between atoms: N3_19  and  C13_22 
ROOT
HETATM    1  C9  UNL     1      -2.682   3.805  12.753  1.00  0.00     0.127 C 
ENDROOT
BRANCH   1   2
HETATM    2  N2  UNL     1      -3.572   3.037  13.577  1.00  0.00    -0.342 N 
HETATM    3  C1  UNL     1      -3.319   2.638  14.906  1.00  0.00     0.225 C 
HETATM    4  O1  UNL     1      -2.308   2.895  15.582  1.00  0.00    -0.273 OA
HETATM    5  C2  UNL     1      -4.481   1.843  15.374  1.00  0.00     0.085 C 
HETATM    6  C3  UNL     1      -4.207   0.418  14.999  1.00  0.00     0.062 C 
HETATM    7  C8  UNL     1      -5.613   2.415  14.507  1.00  0.00     0.046 C 
HETATM    8  C4  UNL     1      -4.473   0.178  13.531  1.00  0.00     0.013 A 
HETATM    9  S1  UNL     1      -4.465  -1.244  12.569  1.00  0.00    -0.032 SA
HETATM   10  C6  UNL     1      -4.794   1.143  12.622  1.00  0.00     0.049 A 
HETATM   11  C5  UNL     1      -4.867  -0.535  11.080  1.00  0.00     0.288 A 
HETATM   12  O2  UNL     1      -5.024  -1.081   9.922  1.00  0.00    -0.260 OA
HETATM   13  N1  UNL     1      -4.991   0.757  11.376  1.00  0.00    -0.318 N 
ATOM     14  H1  UNL     1      -5.233   1.435  10.655  1.00  0.00     0.169 HD
HETATM   15  C7  UNL     1      -4.884   2.557  13.188  1.00  0.00     0.139 C 
ENDBRANCH   1   2
BRANCH   1  16
HETATM   16  C10 UNL     1      -3.382   4.501  11.590  1.00  0.00     0.022 C 
BRANCH  16  17
HETATM   17  C11 UNL     1      -3.197   3.820  10.284  1.00  0.00     0.029 C 
BRANCH  17  18
HETATM   18  C12 UNL     1      -3.813   4.591   9.166  1.00  0.00     0.233 C 
BRANCH  18  19
HETATM   19  N3  UNL     1      -5.234   4.506   9.191  1.00  0.00    -0.070 N 
ATOM     20  H32 UNL     1      -5.586   3.851   8.493  1.00  0.00     0.277 HD
ATOM     21  H31 UNL     1      -5.570   4.033  10.029  1.00  0.00     0.277 HD
BRANCH  19  22
HETATM   22  C13 UNL     1      -5.842   5.846   9.038  1.00  0.00     0.190 C 
HETATM   23  C14 UNL     1      -4.837   6.941   9.247  1.00  0.00     0.034 C 
HETATM   24  C15 UNL     1      -5.418   8.280   9.523  1.00  0.00     0.007 C 
HETATM   25  C16 UNL     1      -6.827   8.317   9.966  1.00  0.00    -0.014 C 
HETATM   26  C17 UNL     1      -6.840   7.922  11.452  1.00  0.00     0.005 C 
HETATM   27  C20 UNL     1      -7.733   7.262   9.402  1.00  0.00     0.011 C 
HETATM   28  C18 UNL     1      -6.597   6.436  11.357  1.00  0.00     0.007 C 
HETATM   29  C19 UNL     1      -7.033   6.008   9.954  1.00  0.00     0.016 C 
ENDBRANCH  19  22
ENDBRANCH  18  19
ENDBRANCH  17  18
ENDBRANCH  16  17
ENDBRANCH   1  16
TORSDOF 6
ENDMDL
