MODEL 1
REMARK VINA RESULT: -7.182675994      0.000      0.000
REMARK  10 active torsions:
REMARK  status: ('A' for Active; 'I' for Inactive)
REMARK    1  A    between atoms: C2_2  and  C5_5 
REMARK    2  A    between atoms: C5_5  and  C6_6 
REMARK       I    between atoms: C6_6  and  N1_8 
REMARK    3  A    between atoms: N1_8  and  C7_10 
REMARK    4  A    between atoms: C7_10  and  C8_11 
REMARK    5  A    between atoms: C7_10  and  C17_26 
REMARK    6  A    between atoms: C8_11  and  O2_12 
REMARK    7  A    between atoms: C8_11  and  N2_14 
REMARK    8  A    between atoms: N3_17  and  C11_18 
REMARK    9  A    between atoms: C11_18  and  C12_19 
REMARK   10  A    between atoms: C12_19  and  O3_20 
ROOT
HETATM    1  C8  UNL     1      -4.226   2.491  13.489  1.00  0.00     0.137 C 
ENDROOT
BRANCH   1   2
HETATM    2  C7  UNL     1      -4.108   1.078  13.631  1.00  0.00     0.166 C 
BRANCH   2   3
HETATM    3  N1  UNL     1      -5.013   0.591  14.710  1.00  0.00    -0.348 N 
HETATM    4  C6  UNL     1      -4.696   0.572  16.059  1.00  0.00     0.218 C 
HETATM    5  O1  UNL     1      -3.584   0.980  16.455  1.00  0.00    -0.274 OA
ATOM      6  H1  UNL     1      -5.933   0.247  14.436  1.00  0.00     0.163 HD
BRANCH   4   7
HETATM    7  C5  UNL     1      -5.665   0.069  17.051  1.00  0.00     0.111 C 
BRANCH   7   8
HETATM    8  C2  UNL     1      -6.611   1.142  17.535  1.00  0.00    -0.043 C 
HETATM    9  C1  UNL     1      -6.502   2.403  16.707  1.00  0.00     0.015 C 
HETATM   10  C3  UNL     1      -8.017   0.595  17.391  1.00  0.00     0.015 C 
HETATM   11  C4  UNL     1      -6.386   1.421  19.005  1.00  0.00     0.015 C 
ENDBRANCH   7   8
ENDBRANCH   4   7
ENDBRANCH   2   3
BRANCH   2  12
HETATM   12  C17 UNL     1      -4.140   0.108  12.514  1.00  0.00    -0.023 C 
HETATM   13  C18 UNL     1      -4.266  -1.335  12.897  1.00  0.00     0.017 C 
HETATM   14  C19 UNL     1      -2.660   0.124  11.888  1.00  0.00     0.017 C 
HETATM   15  C20 UNL     1      -4.963   0.511  11.328  1.00  0.00     0.017 C 
ENDBRANCH   2  12
ENDBRANCH   1   2
BRANCH   1  16
HETATM   16  O2  UNL     1      -5.518   2.890  13.622  1.00  0.00    -0.348 OA
ATOM     17  H2  UNL     1      -5.709   3.625  13.050  1.00  0.00     0.219 HD
ENDBRANCH   1  16
BRANCH   1  18
HETATM   18  N2  UNL     1      -3.424   3.606  13.252  1.00  0.00    -0.361 N 
HETATM   19  C9  UNL     1      -2.407   3.957  14.329  1.00  0.00     0.144 C 
HETATM   20  C10 UNL     1      -1.822   5.300  14.045  1.00  0.00     0.136 C 
HETATM   21  N3  UNL     1      -2.809   6.291  13.773  1.00  0.00    -0.406 N 
HETATM   22  C15 UNL     1      -3.693   5.978  12.711  1.00  0.00     0.136 C 
HETATM   23  C16 UNL     1      -3.365   4.546  12.190  1.00  0.00     0.144 C 
BRANCH  21  24
HETATM   24  C11 UNL     1      -2.416   7.641  13.931  1.00  0.00     0.154 C 
BRANCH  24  25
HETATM   25  C12 UNL     1      -2.251   8.117  15.353  1.00  0.00     0.074 A 
HETATM   26  C13 UNL     1      -1.909   9.602  15.464  1.00  0.00     0.042 A 
HETATM   27  C14 UNL     1      -0.881   8.607  15.782  1.00  0.00     0.042 A 
BRANCH  25  28
HETATM   28  O3  UNL     1      -3.181   7.728  16.308  1.00  0.00    -0.388 OA
ATOM     29  H3  UNL     1      -3.726   8.389  16.719  1.00  0.00     0.210 HD
ENDBRANCH  25  28
ENDBRANCH  24  25
ENDBRANCH  21  24
ENDBRANCH   1  18
TORSDOF 10
ENDMDL
MODEL 2
REMARK VINA RESULT: -7.176284268      2.075      3.293
REMARK  10 active torsions:
REMARK  status: ('A' for Active; 'I' for Inactive)
REMARK    1  A    between atoms: C2_2  and  C5_5 
REMARK    2  A    between atoms: C5_5  and  C6_6 
REMARK       I    between atoms: C6_6  and  N1_8 
REMARK    3  A    between atoms: N1_8  and  C7_10 
REMARK    4  A    between atoms: C7_10  and  C8_11 
REMARK    5  A    between atoms: C7_10  and  C17_26 
REMARK    6  A    between atoms: C8_11  and  O2_12 
REMARK    7  A    between atoms: C8_11  and  N2_14 
REMARK    8  A    between atoms: N3_17  and  C11_18 
REMARK    9  A    between atoms: C11_18  and  C12_19 
REMARK   10  A    between atoms: C12_19  and  O3_20 
ROOT
HETATM    1  C8  UNL     1      -3.512   2.906  14.233  1.00  0.00     0.137 C 
ENDROOT
BRANCH   1   2
HETATM    2  C7  UNL     1      -3.728   1.524  13.960  1.00  0.00     0.166 C 
BRANCH   2   3
HETATM    3  N1  UNL     1      -4.804   0.987  14.840  1.00  0.00    -0.348 N 
HETATM    4  C6  UNL     1      -4.625   0.587  16.155  1.00  0.00     0.218 C 
HETATM    5  O1  UNL     1      -3.500   0.660  16.693  1.00  0.00    -0.274 OA
ATOM      6  H1  UNL     1      -5.741   0.907  14.446  1.00  0.00     0.163 HD
BRANCH   4   7
HETATM    7  C5  UNL     1      -5.758   0.068  16.943  1.00  0.00     0.111 C 
BRANCH   7   8
HETATM    8  C2  UNL     1      -6.657   1.165  17.460  1.00  0.00    -0.043 C 
HETATM    9  C1  UNL     1      -6.560   2.416  16.616  1.00  0.00     0.015 C 
HETATM   10  C3  UNL     1      -8.080   0.647  17.386  1.00  0.00     0.015 C 
HETATM   11  C4  UNL     1      -6.359   1.451  18.915  1.00  0.00     0.015 C 
ENDBRANCH   7   8
ENDBRANCH   4   7
ENDBRANCH   2   3
BRANCH   2  12
HETATM   12  C17 UNL     1      -3.886   0.941  12.609  1.00  0.00    -0.023 C 
HETATM   13  C18 UNL     1      -5.078   1.404  11.828  1.00  0.00     0.017 C 
HETATM   14  C19 UNL     1      -4.266  -0.602  12.849  1.00  0.00     0.017 C 
HETATM   15  C20 UNL     1      -2.628   0.811  11.807  1.00  0.00     0.017 C 
ENDBRANCH   2  12
ENDBRANCH   1   2
BRANCH   1  16
HETATM   16  O2  UNL     1      -3.295   3.115  15.557  1.00  0.00    -0.348 OA
ATOM     17  H2  UNL     1      -2.618   2.537  15.889  1.00  0.00     0.219 HD
ENDBRANCH   1  16
BRANCH   1  18
HETATM   18  N2  UNL     1      -3.455   4.125  13.561  1.00  0.00    -0.361 N 
HETATM   19  C9  UNL     1      -4.165   5.302  14.217  1.00  0.00     0.144 C 
HETATM   20  C10 UNL     1      -4.229   6.444  13.259  1.00  0.00     0.136 C 
HETATM   21  N3  UNL     1      -4.709   6.065  11.972  1.00  0.00    -0.406 N 
HETATM   22  C15 UNL     1      -3.982   5.024  11.345  1.00  0.00     0.136 C 
HETATM   23  C16 UNL     1      -2.879   4.521  12.325  1.00  0.00     0.144 C 
BRANCH  21  24
HETATM   24  C11 UNL     1      -5.222   7.100  11.155  1.00  0.00     0.154 C 
BRANCH  24  25
HETATM   25  C12 UNL     1      -6.710   7.073  10.913  1.00  0.00     0.074 A 
HETATM   26  C13 UNL     1      -7.360   8.456  10.939  1.00  0.00     0.042 A 
HETATM   27  C14 UNL     1      -7.621   7.524  12.039  1.00  0.00     0.042 A 
BRANCH  25  28
HETATM   28  O3  UNL     1      -7.213   6.285   9.886  1.00  0.00    -0.388 OA
ATOM     29  H3  UNL     1      -6.834   6.361   9.017  1.00  0.00     0.210 HD
ENDBRANCH  25  28
ENDBRANCH  24  25
ENDBRANCH  21  24
ENDBRANCH   1  18
TORSDOF 10
ENDMDL
MODEL 3
REMARK VINA RESULT: -7.055429752      2.616      4.129
REMARK  10 active torsions:
REMARK  status: ('A' for Active; 'I' for Inactive)
REMARK    1  A    between atoms: C2_2  and  C5_5 
REMARK    2  A    between atoms: C5_5  and  C6_6 
REMARK       I    between atoms: C6_6  and  N1_8 
REMARK    3  A    between atoms: N1_8  and  C7_10 
REMARK    4  A    between atoms: C7_10  and  C8_11 
REMARK    5  A    between atoms: C7_10  and  C17_26 
REMARK    6  A    between atoms: C8_11  and  O2_12 
REMARK    7  A    between atoms: C8_11  and  N2_14 
REMARK    8  A    between atoms: N3_17  and  C11_18 
REMARK    9  A    between atoms: C11_18  and  C12_19 
REMARK   10  A    between atoms: C12_19  and  O3_20 
ROOT
HETATM    1  C8  UNL     1      -3.249   3.084  13.102  1.00  0.00     0.137 C 
ENDROOT
BRANCH   1   2
HETATM    2  C7  UNL     1      -3.864   1.827  13.375  1.00  0.00     0.166 C 
BRANCH   2   3
HETATM    3  N1  UNL     1      -5.043   2.013  14.267  1.00  0.00    -0.348 N 
HETATM    4  C6  UNL     1      -4.989   2.054  15.651  1.00  0.00     0.218 C 
HETATM    5  O1  UNL     1      -3.898   1.930  16.247  1.00  0.00    -0.274 OA
ATOM      6  H1  UNL     1      -5.957   2.119  13.827  1.00  0.00     0.163 HD
BRANCH   4   7
HETATM    7  C5  UNL     1      -6.217   2.243  16.446  1.00  0.00     0.111 C 
BRANCH   7   8
HETATM    8  C2  UNL     1      -6.527   1.057  17.326  1.00  0.00    -0.043 C 
HETATM    9  C1  UNL     1      -5.630  -0.122  17.019  1.00  0.00     0.015 C 
HETATM   10  C3  UNL     1      -6.278   1.488  18.758  1.00  0.00     0.015 C 
HETATM   11  C4  UNL     1      -7.990   0.686  17.218  1.00  0.00     0.015 C 
ENDBRANCH   7   8
ENDBRANCH   4   7
ENDBRANCH   2   3
BRANCH   2  12
HETATM   12  C17 UNL     1      -4.199   0.808  12.355  1.00  0.00    -0.023 C 
HETATM   13  C18 UNL     1      -4.385  -0.591  12.858  1.00  0.00     0.017 C 
HETATM   14  C19 UNL     1      -2.870   0.634  11.469  1.00  0.00     0.017 C 
HETATM   15  C20 UNL     1      -5.190   1.232  11.315  1.00  0.00     0.017 C 
ENDBRANCH   2  12
ENDBRANCH   1   2
BRANCH   1  16
HETATM   16  O2  UNL     1      -2.262   3.350  13.995  1.00  0.00    -0.348 OA
ATOM     17  H2  UNL     1      -1.935   2.551  14.392  1.00  0.00     0.219 HD
ENDBRANCH   1  16
BRANCH   1  18
HETATM   18  N2  UNL     1      -3.346   4.139  12.196  1.00  0.00    -0.361 N 
HETATM   19  C9  UNL     1      -4.302   5.267  12.560  1.00  0.00     0.144 C 
HETATM   20  C10 UNL     1      -4.479   6.170  11.386  1.00  0.00     0.136 C 
HETATM   21  N3  UNL     1      -4.774   5.467  10.181  1.00  0.00    -0.406 N 
HETATM   22  C15 UNL     1      -3.826   4.478   9.819  1.00  0.00     0.136 C 
HETATM   23  C16 UNL     1      -2.742   4.389  10.936  1.00  0.00     0.144 C 
BRANCH  21  24
HETATM   24  C11 UNL     1      -5.384   6.210   9.144  1.00  0.00     0.154 C 
BRANCH  24  25
HETATM   25  C12 UNL     1      -6.892   6.248   9.160  1.00  0.00     0.074 A 
HETATM   26  C13 UNL     1      -7.477   7.532   8.572  1.00  0.00     0.042 A 
HETATM   27  C14 UNL     1      -7.566   7.303  10.017  1.00  0.00     0.042 A 
BRANCH  25  28
HETATM   28  O3  UNL     1      -7.600   5.124   8.756  1.00  0.00    -0.388 OA
ATOM     29  H3  UNL     1      -7.135   4.411   8.334  1.00  0.00     0.210 HD
ENDBRANCH  25  28
ENDBRANCH  24  25
ENDBRANCH  21  24
ENDBRANCH   1  18
TORSDOF 10
ENDMDL
MODEL 4
REMARK VINA RESULT: -6.966079993      2.963      5.329
REMARK  10 active torsions:
REMARK  status: ('A' for Active; 'I' for Inactive)
REMARK    1  A    between atoms: C2_2  and  C5_5 
REMARK    2  A    between atoms: C5_5  and  C6_6 
REMARK       I    between atoms: C6_6  and  N1_8 
REMARK    3  A    between atoms: N1_8  and  C7_10 
REMARK    4  A    between atoms: C7_10  and  C8_11 
REMARK    5  A    between atoms: C7_10  and  C17_26 
REMARK    6  A    between atoms: C8_11  and  O2_12 
REMARK    7  A    between atoms: C8_11  and  N2_14 
REMARK    8  A    between atoms: N3_17  and  C11_18 
REMARK    9  A    between atoms: C11_18  and  C12_19 
REMARK   10  A    between atoms: C12_19  and  O3_20 
ROOT
HETATM    1  C8  UNL     1      -3.991   4.128  12.163  1.00  0.00     0.137 C 
ENDROOT
BRANCH   1   2
HETATM    2  C7  UNL     1      -4.607   3.446  13.253  1.00  0.00     0.166 C 
BRANCH   2   3
HETATM    3  N1  UNL     1      -4.231   2.004  13.237  1.00  0.00    -0.348 N 
HETATM    4  C6  UNL     1      -4.848   1.035  12.463  1.00  0.00     0.218 C 
HETATM    5  O1  UNL     1      -5.795   1.335  11.706  1.00  0.00    -0.274 OA
ATOM      6  H1  UNL     1      -3.463   1.709  13.840  1.00  0.00     0.163 HD
BRANCH   4   7
HETATM    7  C5  UNL     1      -4.400  -0.370  12.520  1.00  0.00     0.111 C 
BRANCH   7   8
HETATM    8  C2  UNL     1      -3.394  -0.702  11.445  1.00  0.00    -0.043 C 
HETATM    9  C1  UNL     1      -2.207   0.236  11.476  1.00  0.00     0.015 C 
HETATM   10  C3  UNL     1      -2.898  -2.108  11.717  1.00  0.00     0.015 C 
HETATM   11  C4  UNL     1      -4.057  -0.715  10.086  1.00  0.00     0.015 C 
ENDBRANCH   7   8
ENDBRANCH   4   7
ENDBRANCH   2   3
BRANCH   2  12
HETATM   12  C17 UNL     1      -4.610   3.918  14.656  1.00  0.00    -0.023 C 
HETATM   13  C18 UNL     1      -3.381   3.615  15.456  1.00  0.00     0.017 C 
HETATM   14  C19 UNL     1      -5.694   3.006  15.414  1.00  0.00     0.017 C 
HETATM   15  C20 UNL     1      -5.175   5.288  14.877  1.00  0.00     0.017 C 
ENDBRANCH   2  12
ENDBRANCH   1   2
BRANCH   1  16
HETATM   16  O2  UNL     1      -4.689   3.944  11.013  1.00  0.00    -0.348 OA
ATOM     17  H2  UNL     1      -4.281   4.402  10.288  1.00  0.00     0.219 HD
ENDBRANCH   1  16
BRANCH   1  18
HETATM   18  N2  UNL     1      -2.882   4.932  11.904  1.00  0.00    -0.361 N 
HETATM   19  C9  UNL     1      -1.893   4.418  10.866  1.00  0.00     0.144 C 
HETATM   20  C10 UNL     1      -0.658   5.254  10.897  1.00  0.00     0.136 C 
HETATM   21  N3  UNL     1      -0.142   5.437  12.213  1.00  0.00    -0.406 N 
HETATM   22  C15 UNL     1      -1.056   5.994  13.141  1.00  0.00     0.136 C 
HETATM   23  C16 UNL     1      -2.438   6.168  12.442  1.00  0.00     0.144 C 
BRANCH  21  24
HETATM   24  C11 UNL     1       1.217   5.812  12.317  1.00  0.00     0.154 C 
BRANCH  24  25
HETATM   25  C12 UNL     1       2.223   4.699  12.162  1.00  0.00     0.074 A 
HETATM   26  C13 UNL     1       3.530   4.945  12.915  1.00  0.00     0.042 A 
HETATM   27  C14 UNL     1       3.526   5.013  11.451  1.00  0.00     0.042 A 
BRANCH  25  28
HETATM   28  O3  UNL     1       1.797   3.383  12.282  1.00  0.00    -0.388 OA
ATOM     29  H3  UNL     1       2.442   2.685  12.273  1.00  0.00     0.210 HD
ENDBRANCH  25  28
ENDBRANCH  24  25
ENDBRANCH  21  24
ENDBRANCH   1  18
TORSDOF 10
ENDMDL
MODEL 5
REMARK VINA RESULT: -6.938297338      2.169      2.831
REMARK  10 active torsions:
REMARK  status: ('A' for Active; 'I' for Inactive)
REMARK    1  A    between atoms: C2_2  and  C5_5 
REMARK    2  A    between atoms: C5_5  and  C6_6 
REMARK       I    between atoms: C6_6  and  N1_8 
REMARK    3  A    between atoms: N1_8  and  C7_10 
REMARK    4  A    between atoms: C7_10  and  C8_11 
REMARK    5  A    between atoms: C7_10  and  C17_26 
REMARK    6  A    between atoms: C8_11  and  O2_12 
REMARK    7  A    between atoms: C8_11  and  N2_14 
REMARK    8  A    between atoms: N3_17  and  C11_18 
REMARK    9  A    between atoms: C11_18  and  C12_19 
REMARK   10  A    between atoms: C12_19  and  O3_20 
ROOT
HETATM    1  C8  UNL     1      -4.351   2.540  13.323  1.00  0.00     0.137 C 
ENDROOT
BRANCH   1   2
HETATM    2  C7  UNL     1      -4.119   1.141  13.471  1.00  0.00     0.166 C 
BRANCH   2   3
HETATM    3  N1  UNL     1      -4.931   0.601  14.598  1.00  0.00    -0.348 N 
HETATM    4  C6  UNL     1      -4.647   0.794  15.941  1.00  0.00     0.218 C 
HETATM    5  O1  UNL     1      -3.651   1.462  16.289  1.00  0.00    -0.274 OA
ATOM      6  H1  UNL     1      -5.756   0.048  14.364  1.00  0.00     0.163 HD
BRANCH   4   7
HETATM    7  C5  UNL     1      -5.516   0.216  16.983  1.00  0.00     0.111 C 
BRANCH   7   8
HETATM    8  C2  UNL     1      -6.555   1.191  17.480  1.00  0.00    -0.043 C 
HETATM    9  C1  UNL     1      -6.596   2.448  16.638  1.00  0.00     0.015 C 
HETATM   10  C3  UNL     1      -7.901   0.501  17.375  1.00  0.00     0.015 C 
HETATM   11  C4  UNL     1      -6.326   1.508  18.942  1.00  0.00     0.015 C 
ENDBRANCH   7   8
ENDBRANCH   4   7
ENDBRANCH   2   3
BRANCH   2  12
HETATM   12  C17 UNL     1      -4.133   0.158  12.365  1.00  0.00    -0.023 C 
HETATM   13  C18 UNL     1      -4.254  -1.281  12.764  1.00  0.00     0.017 C 
HETATM   14  C19 UNL     1      -2.646   0.176  11.756  1.00  0.00     0.017 C 
HETATM   15  C20 UNL     1      -4.944   0.542  11.166  1.00  0.00     0.017 C 
ENDBRANCH   2  12
ENDBRANCH   1   2
BRANCH   1  16
HETATM   16  O2  UNL     1      -5.678   2.824  13.368  1.00  0.00    -0.348 OA
ATOM     17  H2  UNL     1      -5.825   3.756  13.478  1.00  0.00     0.219 HD
ENDBRANCH   1  16
BRANCH   1  18
HETATM   18  N2  UNL     1      -3.634   3.722  13.144  1.00  0.00    -0.361 N 
HETATM   19  C9  UNL     1      -3.150   4.020  11.731  1.00  0.00     0.144 C 
HETATM   20  C10 UNL     1      -2.196   5.166  11.762  1.00  0.00     0.136 C 
HETATM   21  N3  UNL     1      -1.180   5.020  12.752  1.00  0.00    -0.406 N 
HETATM   22  C15 UNL     1      -1.656   4.826  14.072  1.00  0.00     0.136 C 
HETATM   23  C16 UNL     1      -3.212   4.741  14.038  1.00  0.00     0.144 C 
BRANCH  21  24
HETATM   24  C11 UNL     1      -0.007   5.790  12.577  1.00  0.00     0.154 C 
BRANCH  24  25
HETATM   25  C12 UNL     1       1.207   5.040  12.087  1.00  0.00     0.074 A 
HETATM   26  C13 UNL     1       2.527   5.598  12.620  1.00  0.00     0.042 A 
HETATM   27  C14 UNL     1       2.192   5.783  11.205  1.00  0.00     0.042 A 
BRANCH  25  28
HETATM   28  O3  UNL     1       1.192   3.651  12.096  1.00  0.00    -0.388 OA
ATOM     29  H3  UNL     1       2.016   3.180  12.142  1.00  0.00     0.210 HD
ENDBRANCH  25  28
ENDBRANCH  24  25
ENDBRANCH  21  24
ENDBRANCH   1  18
TORSDOF 10
ENDMDL
