MODEL 1
REMARK VINA RESULT: -10.111615414      0.000      0.000
REMARK  7 active torsions:
REMARK  status: ('A' for Active; 'I' for Inactive)
REMARK    1  A    between atoms: N1_1  and  C1_4 
REMARK    2  A    between atoms: C1_4  and  C2_6 
REMARK    3  A    between atoms: C2_6  and  C3_7 
REMARK    4  A    between atoms: N4_15  and  C8_16 
REMARK    5  A    between atoms: C8_16  and  O1_17 
REMARK    6  A    between atoms: N5_19  and  C9_21 
REMARK    7  A    between atoms: C11_23  and  C12_24 
ROOT
HETATM    1  C3  UNL     1     -15.730  24.373  30.873  1.00  0.00     0.030 A 
HETATM    2  N3  UNL     1     -15.550  23.046  31.011  1.00  0.00    -0.329 N 
ATOM      3  H3  UNL     1     -16.026  22.422  31.663  1.00  0.00     0.174 HD
HETATM    4  S1  UNL     1     -14.381  22.635  29.885  1.00  0.00    -0.013 SA
HETATM    5  C4  UNL     1     -14.090  24.196  29.225  1.00  0.00     0.044 A 
HETATM    6  C5  UNL     1     -14.974  24.986  29.933  1.00  0.00    -0.014 A 
HETATM    7  C6  UNL     1     -15.121  26.453  29.577  1.00  0.00     0.062 C 
HETATM    8  C7  UNL     1     -13.867  27.242  29.748  1.00  0.00     0.139 C 
HETATM    9  N4  UNL     1     -12.737  26.990  28.861  1.00  0.00    -0.298 N 
HETATM   10  C16 UNL     1     -12.415  25.746  28.188  1.00  0.00     0.122 A 
HETATM   11  N9  UNL     1     -11.336  25.838  27.412  1.00  0.00    -0.341 N 
ATOM     12  H9  UNL     1     -10.831  26.721  27.331  1.00  0.00     0.167 HD
HETATM   13  C17 UNL     1     -10.913  24.739  26.727  1.00  0.00     0.044 A 
HETATM   14  C18 UNL     1      -9.752  24.877  25.964  1.00  0.00     0.030 A 
HETATM   15  C19 UNL     1      -9.269  23.779  25.291  1.00  0.00     0.002 A 
HETATM   16  C20 UNL     1      -9.884  22.524  25.337  1.00  0.00     0.001 A 
HETATM   17  C21 UNL     1     -11.030  22.399  26.093  1.00  0.00     0.014 A 
HETATM   18  C22 UNL     1     -11.527  23.509  26.779  1.00  0.00    -0.009 A 
HETATM   19  C23 UNL     1     -12.659  23.398  27.583  1.00  0.00     0.030 A 
HETATM   20  C24 UNL     1     -13.049  24.532  28.254  1.00  0.00     0.028 A 
ENDROOT
BRANCH   9  21
HETATM   21  C8  UNL     1     -11.844  28.011  28.703  1.00  0.00     0.226 C 
HETATM   22  N5  UNL     1     -10.984  29.004  28.554  1.00  0.00    -0.308 N 
ATOM     23  H5  UNL     1     -10.763  29.486  29.425  1.00  0.00     0.171 HD
BRANCH  21  24
HETATM   24  O1  UNL     1     -12.975  29.053  29.176  1.00  0.00    -0.332 OA
ATOM     25  H1  UNL     1     -12.370  29.767  29.017  1.00  0.00     0.221 HD
ENDBRANCH  21  24
BRANCH  22  26
HETATM   26  C9  UNL     1     -10.384  29.472  27.558  1.00  0.00     0.108 A 
HETATM   27  C10 UNL     1     -10.901  30.618  26.953  1.00  0.00     0.064 A 
HETATM   28  C11 UNL     1     -10.317  31.123  25.800  1.00  0.00     0.015 A 
HETATM   29  C14 UNL     1      -9.224  30.494  25.279  1.00  0.00     0.032 A 
HETATM   30  C15 UNL     1      -8.743  29.378  25.909  1.00  0.00     0.090 A 
HETATM   31  N8  UNL     1      -9.326  28.877  27.033  1.00  0.00    -0.352 N 
ATOM     32  H8  UNL     1      -8.946  28.038  27.472  1.00  0.00     0.166 HD
BRANCH  28  33
HETATM   33  C12 UNL     1     -10.864  32.341  25.214  1.00  0.00     0.140 A 
HETATM   34  N6  UNL     1     -10.870  32.500  23.873  1.00  0.00    -0.285 N 
HETATM   35  C13 UNL     1     -11.608  33.601  23.620  1.00  0.00     0.388 A 
ATOM     36  H6  UNL     1     -10.408  31.905  23.185  1.00  0.00     0.172 HD
HETATM   37  O2  UNL     1     -11.883  34.101  22.506  1.00  0.00    -0.236 OA
HETATM   38  O3  UNL     1     -12.017  34.085  24.815  1.00  0.00    -0.179 OA
HETATM   39  N7  UNL     1     -11.558  33.315  25.770  1.00  0.00    -0.239 N 
ATOM     40  H7  UNL     1     -11.711  33.445  26.770  1.00  0.00     0.196 HD
ENDBRANCH  28  33
ENDBRANCH  22  26
ENDBRANCH   9  21
BRANCH   1  41
HETATM   41  C2  UNL     1     -16.674  25.053  31.851  1.00  0.00     0.130 C 
BRANCH  41  42
HETATM   42  C1  UNL     1     -17.722  24.203  32.324  1.00  0.00     0.092 C 
HETATM   43  N2  UNL     1     -17.594  23.384  33.485  1.00  0.00    -0.088 NA
BRANCH  42  44
HETATM   44  N1  UNL     1     -18.898  24.178  31.717  1.00  0.00    -0.391 N 
ATOM     45  H12 UNL     1     -19.625  24.850  31.961  1.00  0.00     0.157 HD
ATOM     46  H11 UNL     1     -19.035  23.435  31.032  1.00  0.00     0.157 HD
ENDBRANCH  42  44
ENDBRANCH  41  42
ENDBRANCH   1  41
TORSDOF 7
ENDMDL
MODEL 2
REMARK VINA RESULT: -10.043238498      1.382      1.800
REMARK  7 active torsions:
REMARK  status: ('A' for Active; 'I' for Inactive)
REMARK    1  A    between atoms: N1_1  and  C1_4 
REMARK    2  A    between atoms: C1_4  and  C2_6 
REMARK    3  A    between atoms: C2_6  and  C3_7 
REMARK    4  A    between atoms: N4_15  and  C8_16 
REMARK    5  A    between atoms: C8_16  and  O1_17 
REMARK    6  A    between atoms: N5_19  and  C9_21 
REMARK    7  A    between atoms: C11_23  and  C12_24 
ROOT
HETATM    1  C3  UNL     1     -15.996  24.292  31.067  1.00  0.00     0.030 A 
HETATM    2  N3  UNL     1     -15.844  22.954  31.086  1.00  0.00    -0.329 N 
ATOM      3  H3  UNL     1     -16.338  22.284  31.675  1.00  0.00     0.174 HD
HETATM    4  S1  UNL     1     -14.671  22.624  29.938  1.00  0.00    -0.013 SA
HETATM    5  C4  UNL     1     -14.343  24.231  29.425  1.00  0.00     0.044 A 
HETATM    6  C5  UNL     1     -15.219  24.972  30.194  1.00  0.00    -0.014 A 
HETATM    7  C6  UNL     1     -15.333  26.467  29.972  1.00  0.00     0.062 C 
HETATM    8  C7  UNL     1     -14.066  27.212  30.226  1.00  0.00     0.139 C 
HETATM    9  N4  UNL     1     -12.932  27.019  29.329  1.00  0.00    -0.298 N 
HETATM   10  C16 UNL     1     -12.627  25.835  28.549  1.00  0.00     0.122 A 
HETATM   11  N9  UNL     1     -11.537  25.975  27.794  1.00  0.00    -0.341 N 
ATOM     12  H9  UNL     1     -11.015  26.851  27.798  1.00  0.00     0.167 HD
HETATM   13  C17 UNL     1     -11.129  24.934  27.016  1.00  0.00     0.044 A 
HETATM   14  C18 UNL     1      -9.957  25.117  26.279  1.00  0.00     0.030 A 
HETATM   15  C19 UNL     1      -9.489  24.075  25.513  1.00  0.00     0.002 A 
HETATM   16  C20 UNL     1     -10.128  22.834  25.439  1.00  0.00     0.001 A 
HETATM   17  C21 UNL     1     -11.284  22.664  26.171  1.00  0.00     0.014 A 
HETATM   18  C22 UNL     1     -11.768  23.717  26.950  1.00  0.00    -0.009 A 
HETATM   19  C23 UNL     1     -12.910  23.557  27.731  1.00  0.00     0.030 A 
HETATM   20  C24 UNL     1     -13.285  24.633  28.499  1.00  0.00     0.028 A 
ENDROOT
BRANCH   9  21
HETATM   21  C8  UNL     1     -12.017  28.031  29.273  1.00  0.00     0.226 C 
HETATM   22  N5  UNL     1     -11.131  29.012  29.225  1.00  0.00    -0.308 N 
ATOM     23  H5  UNL     1     -10.269  28.805  29.728  1.00  0.00     0.171 HD
BRANCH  21  24
HETATM   24  O1  UNL     1     -12.135  28.206  30.868  1.00  0.00    -0.332 OA
ATOM     25  H1  UNL     1     -12.821  28.849  30.738  1.00  0.00     0.221 HD
ENDBRANCH  21  24
BRANCH  22  26
HETATM   26  C9  UNL     1     -11.138  30.144  28.687  1.00  0.00     0.108 A 
HETATM   27  C10 UNL     1     -10.819  30.234  27.332  1.00  0.00     0.064 A 
HETATM   28  C11 UNL     1     -10.734  31.474  26.716  1.00  0.00     0.015 A 
HETATM   29  C14 UNL     1     -10.982  32.598  27.449  1.00  0.00     0.032 A 
HETATM   30  C15 UNL     1     -11.301  32.464  28.774  1.00  0.00     0.090 A 
HETATM   31  N8  UNL     1     -11.371  31.247  29.379  1.00  0.00    -0.352 N 
ATOM     32  H8  UNL     1     -11.603  31.185  30.370  1.00  0.00     0.166 HD
BRANCH  28  33
HETATM   33  C12 UNL     1     -10.431  31.529  25.290  1.00  0.00     0.140 A 
HETATM   34  N6  UNL     1      -9.628  30.595  24.735  1.00  0.00    -0.285 N 
HETATM   35  C13 UNL     1      -9.696  30.776  23.400  1.00  0.00     0.388 A 
ATOM     36  H6  UNL     1      -9.077  29.892  25.229  1.00  0.00     0.172 HD
HETATM   37  O2  UNL     1      -9.117  30.118  22.507  1.00  0.00    -0.236 OA
HETATM   38  O3  UNL     1     -10.527  31.821  23.184  1.00  0.00    -0.179 OA
HETATM   39  N7  UNL     1     -10.963  32.268  24.336  1.00  0.00    -0.239 N 
ATOM     40  H7  UNL     1     -11.602  33.051  24.472  1.00  0.00     0.196 HD
ENDBRANCH  28  33
ENDBRANCH  22  26
ENDBRANCH   9  21
BRANCH   1  41
HETATM   41  C2  UNL     1     -16.937  24.899  32.096  1.00  0.00     0.130 C 
BRANCH  41  42
HETATM   42  C1  UNL     1     -18.098  24.105  32.353  1.00  0.00     0.092 C 
HETATM   43  N2  UNL     1     -18.115  23.038  33.299  1.00  0.00    -0.088 NA
BRANCH  42  44
HETATM   44  N1  UNL     1     -19.244  24.364  31.744  1.00  0.00    -0.391 N 
ATOM     45  H12 UNL     1     -20.060  24.667  32.276  1.00  0.00     0.157 HD
ATOM     46  H11 UNL     1     -19.263  24.209  30.736  1.00  0.00     0.157 HD
ENDBRANCH  42  44
ENDBRANCH  41  42
ENDBRANCH   1  41
TORSDOF 7
ENDMDL
MODEL 3
REMARK VINA RESULT: -9.984594679      3.010      5.606
REMARK  7 active torsions:
REMARK  status: ('A' for Active; 'I' for Inactive)
REMARK    1  A    between atoms: N1_1  and  C1_4 
REMARK    2  A    between atoms: C1_4  and  C2_6 
REMARK    3  A    between atoms: C2_6  and  C3_7 
REMARK    4  A    between atoms: N4_15  and  C8_16 
REMARK    5  A    between atoms: C8_16  and  O1_17 
REMARK    6  A    between atoms: N5_19  and  C9_21 
REMARK    7  A    between atoms: C11_23  and  C12_24 
ROOT
HETATM    1  C3  UNL     1     -18.265  25.468  32.407  1.00  0.00     0.030 A 
HETATM    2  N3  UNL     1     -18.600  26.730  32.739  1.00  0.00    -0.329 N 
ATOM      3  H3  UNL     1     -19.507  27.063  33.065  1.00  0.00     0.174 HD
HETATM    4  S1  UNL     1     -17.211  27.635  32.504  1.00  0.00    -0.013 SA
HETATM    5  C4  UNL     1     -16.171  26.385  31.948  1.00  0.00     0.044 A 
HETATM    6  C5  UNL     1     -16.991  25.274  31.997  1.00  0.00    -0.014 A 
HETATM    7  C6  UNL     1     -16.420  23.905  31.683  1.00  0.00     0.062 C 
HETATM    8  C7  UNL     1     -15.888  23.779  30.296  1.00  0.00     0.139 C 
HETATM    9  N4  UNL     1     -14.693  24.524  29.918  1.00  0.00    -0.298 N 
HETATM   10  C16 UNL     1     -14.233  25.780  30.479  1.00  0.00     0.122 A 
HETATM   11  N9  UNL     1     -13.082  26.197  29.950  1.00  0.00    -0.341 N 
ATOM     12  H9  UNL     1     -12.614  25.644  29.232  1.00  0.00     0.167 HD
HETATM   13  C17 UNL     1     -12.538  27.370  30.379  1.00  0.00     0.044 A 
HETATM   14  C18 UNL     1     -11.357  27.782  29.760  1.00  0.00     0.030 A 
HETATM   15  C19 UNL     1     -10.799  28.982  30.136  1.00  0.00     0.002 A 
HETATM   16  C20 UNL     1     -11.362  29.815  31.108  1.00  0.00     0.001 A 
HETATM   17  C21 UNL     1     -12.529  29.398  31.712  1.00  0.00     0.014 A 
HETATM   18  C22 UNL     1     -13.101  28.181  31.338  1.00  0.00    -0.009 A 
HETATM   19  C23 UNL     1     -14.302  27.757  31.902  1.00  0.00     0.030 A 
HETATM   20  C24 UNL     1     -14.812  26.568  31.440  1.00  0.00     0.028 A 
ENDROOT
BRANCH   9  21
HETATM   21  C8  UNL     1     -13.967  24.028  28.873  1.00  0.00     0.226 C 
HETATM   22  N5  UNL     1     -13.267  23.540  27.862  1.00  0.00    -0.308 N 
ATOM     23  H5  UNL     1     -13.823  22.983  27.214  1.00  0.00     0.171 HD
BRANCH  21  24
HETATM   24  O1  UNL     1     -14.272  22.535  29.390  1.00  0.00    -0.332 OA
ATOM     25  H1  UNL     1     -13.568  22.620  30.022  1.00  0.00     0.221 HD
ENDBRANCH  21  24
BRANCH  22  26
HETATM   26  C9  UNL     1     -12.059  23.624  27.541  1.00  0.00     0.108 A 
HETATM   27  C10 UNL     1     -11.481  24.892  27.464  1.00  0.00     0.064 A 
HETATM   28  C11 UNL     1     -10.170  25.037  27.034  1.00  0.00     0.015 A 
HETATM   29  C14 UNL     1      -9.453  23.925  26.703  1.00  0.00     0.032 A 
HETATM   30  C15 UNL     1     -10.055  22.699  26.802  1.00  0.00     0.090 A 
HETATM   31  N8  UNL     1     -11.345  22.560  27.213  1.00  0.00    -0.352 N 
ATOM     32  H8  UNL     1     -11.764  21.631  27.267  1.00  0.00     0.166 HD
BRANCH  28  33
HETATM   33  C12 UNL     1      -9.589  26.374  26.997  1.00  0.00     0.140 A 
HETATM   34  N6  UNL     1     -10.172  27.343  26.258  1.00  0.00    -0.285 N 
HETATM   35  C13 UNL     1      -9.547  28.496  26.577  1.00  0.00     0.388 A 
ATOM     36  H6  UNL     1     -10.934  27.226  25.590  1.00  0.00     0.172 HD
HETATM   37  O2  UNL     1      -9.782  29.643  26.134  1.00  0.00    -0.236 OA
HETATM   38  O3  UNL     1      -8.596  28.192  27.488  1.00  0.00    -0.179 OA
HETATM   39  N7  UNL     1      -8.631  26.905  27.732  1.00  0.00    -0.239 N 
ATOM     40  H7  UNL     1      -8.024  26.401  28.378  1.00  0.00     0.196 HD
ENDBRANCH  28  33
ENDBRANCH  22  26
ENDBRANCH   9  21
BRANCH   1  41
HETATM   41  C2  UNL     1     -19.373  24.427  32.423  1.00  0.00     0.130 C 
BRANCH  41  42
HETATM   42  C1  UNL     1     -19.485  23.725  33.664  1.00  0.00     0.092 C 
HETATM   43  N2  UNL     1     -19.074  24.282  34.911  1.00  0.00    -0.088 NA
BRANCH  42  44
HETATM   44  N1  UNL     1     -20.029  22.520  33.712  1.00  0.00    -0.391 N 
ATOM     45  H12 UNL     1     -20.712  22.286  34.433  1.00  0.00     0.157 HD
ATOM     46  H11 UNL     1     -19.700  21.849  33.019  1.00  0.00     0.157 HD
ENDBRANCH  42  44
ENDBRANCH  41  42
ENDBRANCH   1  41
TORSDOF 7
ENDMDL
MODEL 4
REMARK VINA RESULT: -9.977785355      1.687      2.009
REMARK  7 active torsions:
REMARK  status: ('A' for Active; 'I' for Inactive)
REMARK    1  A    between atoms: N1_1  and  C1_4 
REMARK    2  A    between atoms: C1_4  and  C2_6 
REMARK    3  A    between atoms: C2_6  and  C3_7 
REMARK    4  A    between atoms: N4_15  and  C8_16 
REMARK    5  A    between atoms: C8_16  and  O1_17 
REMARK    6  A    between atoms: N5_19  and  C9_21 
REMARK    7  A    between atoms: C11_23  and  C12_24 
ROOT
HETATM    1  C3  UNL     1     -15.931  26.912  30.697  1.00  0.00     0.030 A 
HETATM    2  N3  UNL     1     -15.911  25.655  31.181  1.00  0.00    -0.329 N 
ATOM      3  H3  UNL     1     -16.447  25.287  31.966  1.00  0.00     0.174 HD
HETATM    4  S1  UNL     1     -14.818  24.826  30.221  1.00  0.00    -0.013 SA
HETATM    5  C4  UNL     1     -14.352  26.112  29.180  1.00  0.00     0.044 A 
HETATM    6  C5  UNL     1     -15.122  27.161  29.642  1.00  0.00    -0.014 A 
HETATM    7  C6  UNL     1     -15.096  28.490  28.912  1.00  0.00     0.062 C 
HETATM    8  C7  UNL     1     -13.754  29.138  28.890  1.00  0.00     0.139 C 
HETATM    9  N4  UNL     1     -12.677  28.528  28.118  1.00  0.00    -0.298 N 
HETATM   10  C16 UNL     1     -12.519  27.122  27.800  1.00  0.00     0.122 A 
HETATM   11  N9  UNL     1     -11.449  26.876  27.044  1.00  0.00    -0.341 N 
ATOM     12  H9  UNL     1     -10.843  27.639  26.743  1.00  0.00     0.167 HD
HETATM   13  C17 UNL     1     -11.173  25.593  26.678  1.00  0.00     0.044 A 
HETATM   14  C18 UNL     1     -10.016  25.385  25.924  1.00  0.00     0.030 A 
HETATM   15  C19 UNL     1      -9.681  24.099  25.570  1.00  0.00     0.002 A 
HETATM   16  C20 UNL     1     -10.442  22.984  25.934  1.00  0.00     0.001 A 
HETATM   17  C21 UNL     1     -11.582  23.201  26.678  1.00  0.00     0.014 A 
HETATM   18  C22 UNL     1     -11.931  24.503  27.041  1.00  0.00    -0.009 A 
HETATM   19  C23 UNL     1     -13.054  24.745  27.828  1.00  0.00     0.030 A 
HETATM   20  C24 UNL     1     -13.293  26.053  28.172  1.00  0.00     0.028 A 
ENDROOT
BRANCH   9  21
HETATM   21  C8  UNL     1     -11.670  29.356  27.713  1.00  0.00     0.226 C 
HETATM   22  N5  UNL     1     -10.697  30.164  27.323  1.00  0.00    -0.308 N 
ATOM     23  H5  UNL     1     -10.201  30.605  28.097  1.00  0.00     0.171 HD
BRANCH  21  24
HETATM   24  O1  UNL     1     -12.452  30.602  28.364  1.00  0.00    -0.332 OA
ATOM     25  H1  UNL     1     -12.065  30.393  29.205  1.00  0.00     0.221 HD
ENDBRANCH  21  24
BRANCH  22  26
HETATM   26  C9  UNL     1     -10.262  30.496  26.196  1.00  0.00     0.108 A 
HETATM   27  C10 UNL     1     -10.797  31.632  25.589  1.00  0.00     0.064 A 
HETATM   28  C11 UNL     1     -10.404  31.990  24.308  1.00  0.00     0.015 A 
HETATM   29  C14 UNL     1      -9.477  31.226  23.660  1.00  0.00     0.032 A 
HETATM   30  C15 UNL     1      -8.970  30.124  24.296  1.00  0.00     0.090 A 
HETATM   31  N8  UNL     1      -9.368  29.768  25.548  1.00  0.00    -0.352 N 
ATOM     32  H8  UNL     1      -8.975  28.936  25.988  1.00  0.00     0.166 HD
BRANCH  28  33
HETATM   33  C12 UNL     1     -10.960  33.202  23.717  1.00  0.00     0.140 A 
HETATM   34  N6  UNL     1     -12.272  33.482  23.862  1.00  0.00    -0.285 N 
HETATM   35  C13 UNL     1     -12.450  34.738  23.401  1.00  0.00     0.388 A 
ATOM     36  H6  UNL     1     -12.989  32.866  24.245  1.00  0.00     0.172 HD
HETATM   37  O2  UNL     1     -13.513  35.398  23.363  1.00  0.00    -0.236 OA
HETATM   38  O3  UNL     1     -11.243  35.178  22.978  1.00  0.00    -0.179 OA
HETATM   39  N7  UNL     1     -10.351  34.238  23.173  1.00  0.00    -0.239 N 
ATOM     40  H7  UNL     1      -9.359  34.298  22.944  1.00  0.00     0.196 HD
ENDBRANCH  28  33
ENDBRANCH  22  26
ENDBRANCH   9  21
BRANCH   1  41
HETATM   41  C2  UNL     1     -16.769  27.934  31.448  1.00  0.00     0.130 C 
BRANCH  41  42
HETATM   42  C1  UNL     1     -18.032  27.428  31.890  1.00  0.00     0.092 C 
HETATM   43  N2  UNL     1     -18.157  26.415  32.886  1.00  0.00    -0.088 NA
BRANCH  42  44
HETATM   44  N1  UNL     1     -19.163  27.924  31.415  1.00  0.00    -0.391 N 
ATOM     45  H12 UNL     1     -20.042  27.786  31.913  1.00  0.00     0.157 HD
ATOM     46  H11 UNL     1     -19.101  28.411  30.522  1.00  0.00     0.157 HD
ENDBRANCH  42  44
ENDBRANCH  41  42
ENDBRANCH   1  41
TORSDOF 7
ENDMDL
MODEL 5
REMARK VINA RESULT: -9.963023722      4.438      7.234
REMARK  7 active torsions:
REMARK  status: ('A' for Active; 'I' for Inactive)
REMARK    1  A    between atoms: N1_1  and  C1_4 
REMARK    2  A    between atoms: C1_4  and  C2_6 
REMARK    3  A    between atoms: C2_6  and  C3_7 
REMARK    4  A    between atoms: N4_15  and  C8_16 
REMARK    5  A    between atoms: C8_16  and  O1_17 
REMARK    6  A    between atoms: N5_19  and  C9_21 
REMARK    7  A    between atoms: C11_23  and  C12_24 
ROOT
HETATM    1  C3  UNL     1     -11.009  23.852  26.470  1.00  0.00     0.030 A 
HETATM    2  N3  UNL     1     -12.251  23.357  26.309  1.00  0.00    -0.329 N 
ATOM      3  H3  UNL     1     -12.564  22.691  25.604  1.00  0.00     0.174 HD
HETATM    4  S1  UNL     1     -13.172  24.067  27.514  1.00  0.00    -0.013 SA
HETATM    5  C4  UNL     1     -11.955  25.040  28.239  1.00  0.00     0.044 A 
HETATM    6  C5  UNL     1     -10.840  24.731  27.484  1.00  0.00    -0.014 A 
HETATM    7  C6  UNL     1      -9.491  25.306  27.868  1.00  0.00     0.062 C 
HETATM    8  C7  UNL     1      -9.435  26.795  27.821  1.00  0.00     0.139 C 
HETATM    9  N4  UNL     1     -10.203  27.570  28.789  1.00  0.00    -0.298 N 
HETATM   10  C16 UNL     1     -11.431  27.171  29.450  1.00  0.00     0.122 A 
HETATM   11  N9  UNL     1     -11.878  28.084  30.313  1.00  0.00    -0.341 N 
ATOM     12  H9  UNL     1     -11.363  28.952  30.459  1.00  0.00     0.167 HD
HETATM   13  C17 UNL     1     -13.030  27.843  30.999  1.00  0.00     0.044 A 
HETATM   14  C18 UNL     1     -13.478  28.850  31.856  1.00  0.00     0.030 A 
HETATM   15  C19 UNL     1     -14.659  28.662  32.535  1.00  0.00     0.002 A 
HETATM   16  C20 UNL     1     -15.441  27.510  32.404  1.00  0.00     0.001 A 
HETATM   17  C21 UNL     1     -14.989  26.523  31.555  1.00  0.00     0.014 A 
HETATM   18  C22 UNL     1     -13.790  26.704  30.863  1.00  0.00    -0.009 A 
HETATM   19  C23 UNL     1     -13.334  25.740  29.967  1.00  0.00     0.030 A 
HETATM   20  C24 UNL     1     -12.168  26.025  29.299  1.00  0.00     0.028 A 
ENDROOT
BRANCH   9  21
HETATM   21  C8  UNL     1      -9.762  28.836  29.046  1.00  0.00     0.226 C 
HETATM   22  N5  UNL     1      -9.328  30.061  29.294  1.00  0.00    -0.308 N 
ATOM     23  H5  UNL     1      -8.932  30.525  28.476  1.00  0.00     0.171 HD
BRANCH  21  24
HETATM   24  O1  UNL     1      -8.263  28.370  28.694  1.00  0.00    -0.332 OA
ATOM     25  H1  UNL     1      -7.930  28.989  29.332  1.00  0.00     0.221 HD
ENDBRANCH  21  24
BRANCH  22  26
HETATM   26  C9  UNL     1      -9.305  30.767  30.329  1.00  0.00     0.108 A 
HETATM   27  C10 UNL     1      -8.105  31.382  30.684  1.00  0.00     0.064 A 
HETATM   28  C11 UNL     1      -8.013  32.105  31.865  1.00  0.00     0.015 A 
HETATM   29  C14 UNL     1      -9.115  32.218  32.662  1.00  0.00     0.032 A 
HETATM   30  C15 UNL     1     -10.277  31.606  32.271  1.00  0.00     0.090 A 
HETATM   31  N8  UNL     1     -10.360  30.886  31.118  1.00  0.00    -0.352 N 
ATOM     32  H8  UNL     1     -11.239  30.437  30.863  1.00  0.00     0.166 HD
BRANCH  28  33
HETATM   33  C12 UNL     1      -6.752  32.762  32.188  1.00  0.00     0.140 A 
HETATM   34  N6  UNL     1      -5.638  32.466  31.485  1.00  0.00    -0.285 N 
HETATM   35  C13 UNL     1      -4.698  33.359  31.862  1.00  0.00     0.388 A 
ATOM     36  H6  UNL     1      -5.527  31.715  30.805  1.00  0.00     0.172 HD
HETATM   37  O2  UNL     1      -3.522  33.454  31.447  1.00  0.00    -0.236 OA
HETATM   38  O3  UNL     1      -5.266  34.162  32.790  1.00  0.00    -0.179 OA
HETATM   39  N7  UNL     1      -6.508  33.789  32.979  1.00  0.00    -0.239 N 
ATOM     40  H7  UNL     1      -7.170  34.217  33.626  1.00  0.00     0.196 HD
ENDBRANCH  28  33
ENDBRANCH  22  26
ENDBRANCH   9  21
BRANCH   1  41
HETATM   41  C2  UNL     1      -9.964  23.459  25.438  1.00  0.00     0.130 C 
BRANCH  41  42
HETATM   42  C1  UNL     1      -9.472  22.125  25.597  1.00  0.00     0.092 C 
HETATM   43  N2  UNL     1     -10.241  21.079  26.188  1.00  0.00    -0.088 NA
BRANCH  42  44
HETATM   44  N1  UNL     1      -8.274  21.789  25.148  1.00  0.00    -0.391 N 
ATOM     45  H12 UNL     1      -8.146  20.950  24.580  1.00  0.00     0.157 HD
ATOM     46  H11 UNL     1      -7.501  22.390  25.433  1.00  0.00     0.157 HD
ENDBRANCH  42  44
ENDBRANCH  41  42
ENDBRANCH   1  41
TORSDOF 7
ENDMDL
