MODEL 1
REMARK VINA RESULT: -6.582647286      0.000      0.000
REMARK  5 active torsions:
REMARK  status: ('A' for Active; 'I' for Inactive)
REMARK    1  A    between atoms: C2_9  and  N5_10 
REMARK    2  A    between atoms: N5_10  and  N6_12 
REMARK    3  A    between atoms: C3_14  and  N7_15 
REMARK    4  A    between atoms: N7_15  and  N8_16 
REMARK    5  A    between atoms: N7_15  and  N9_19 
ROOT
HETATM    1  N5  UNL     1      84.590 -15.167  64.538  1.00  0.00    -0.281 N 
ATOM      2  H5  UNL     1      85.440 -15.443  64.046  1.00  0.00     0.188 HD
ENDROOT
BRANCH   1   3
HETATM    3  C2  UNL     1      84.676 -14.575  65.826  1.00  0.00     0.179 A 
HETATM    4  C1  UNL     1      84.078 -13.381  66.163  1.00  0.00     0.179 A 
HETATM    5  N1  UNL     1      83.294 -12.560  65.297  1.00  0.00    -0.077 NA
HETATM    6  N2  UNL     1      84.375 -13.132  67.468  1.00  0.00    -0.270 N 
HETATM    7  N3  UNL     1      85.115 -14.117  67.912  1.00  0.00    -0.240 N 
ATOM      8  H2  UNL     1      84.073 -12.320  68.005  1.00  0.00     0.190 HD
HETATM    9  N4  UNL     1      85.303 -14.993  66.935  1.00  0.00    -0.267 N 
ATOM     10  H3  UNL     1      85.486 -14.198  68.859  1.00  0.00     0.208 HD
ATOM     11  H4  UNL     1      85.844 -15.853  67.015  1.00  0.00     0.190 HD
ENDBRANCH   1   3
BRANCH   1  12
HETATM   12  N6  UNL     1      83.330 -15.374  63.942  1.00  0.00    -0.291 N 
HETATM   13  C3  UNL     1      82.695 -16.459  64.235  1.00  0.00     0.241 C 
ATOM     14  H6  UNL     1      82.933 -14.688  63.301  1.00  0.00     0.188 HD
BRANCH  13  15
HETATM   15  N7  UNL     1      81.428 -16.663  63.632  1.00  0.00    -0.204 N 
BRANCH  15  16
HETATM   16  N8  UNL     1      80.872 -17.960  63.791  1.00  0.00    -0.324 N 
ATOM     17  H82 UNL     1      81.343 -18.664  64.358  1.00  0.00     0.179 HD
ATOM     18  H81 UNL     1      79.991 -18.126  63.306  1.00  0.00     0.179 HD
ENDBRANCH  15  16
BRANCH  15  19
HETATM   19  N9  UNL     1      80.744 -15.672  62.921  1.00  0.00    -0.324 N 
ATOM     20  H92 UNL     1      80.952 -14.685  63.069  1.00  0.00     0.179 HD
ATOM     21  H91 UNL     1      80.018 -15.873  62.234  1.00  0.00     0.179 HD
ENDBRANCH  15  19
ENDBRANCH  13  15
ENDBRANCH   1  12
TORSDOF 5
ENDMDL
MODEL 2
REMARK VINA RESULT: -6.580541927      0.147      1.008
REMARK  5 active torsions:
REMARK  status: ('A' for Active; 'I' for Inactive)
REMARK    1  A    between atoms: C2_9  and  N5_10 
REMARK    2  A    between atoms: N5_10  and  N6_12 
REMARK    3  A    between atoms: C3_14  and  N7_15 
REMARK    4  A    between atoms: N7_15  and  N8_16 
REMARK    5  A    between atoms: N7_15  and  N9_19 
ROOT
HETATM    1  N5  UNL     1      84.563 -15.143  64.590  1.00  0.00    -0.281 N 
ATOM      2  H5  UNL     1      85.430 -15.432  64.136  1.00  0.00     0.188 HD
ENDROOT
BRANCH   1   3
HETATM    3  C2  UNL     1      84.604 -14.495  65.852  1.00  0.00     0.179 A 
HETATM    4  C1  UNL     1      84.038 -13.266  66.103  1.00  0.00     0.179 A 
HETATM    5  N1  UNL     1      83.333 -12.457  65.161  1.00  0.00    -0.077 NA
HETATM    6  N2  UNL     1      84.274 -12.968  67.411  1.00  0.00    -0.270 N 
HETATM    7  N3  UNL     1      84.950 -13.959  67.938  1.00  0.00    -0.240 N 
ATOM      8  H2  UNL     1      83.977 -12.121  67.895  1.00  0.00     0.190 HD
HETATM    9  N4  UNL     1      85.155 -14.884  67.012  1.00  0.00    -0.267 N 
ATOM     10  H3  UNL     1      85.267 -14.010  68.906  1.00  0.00     0.208 HD
ATOM     11  H4  UNL     1      85.657 -15.760  67.159  1.00  0.00     0.190 HD
ENDBRANCH   1   3
BRANCH   1  12
HETATM   12  N6  UNL     1      83.324 -15.386  63.964  1.00  0.00    -0.291 N 
HETATM   13  C3  UNL     1      82.667 -16.438  64.318  1.00  0.00     0.241 C 
ATOM     14  H6  UNL     1      82.959 -14.750  63.255  1.00  0.00     0.188 HD
BRANCH  13  15
HETATM   15  N7  UNL     1      81.420 -16.680  63.686  1.00  0.00    -0.204 N 
BRANCH  15  16
HETATM   16  N8  UNL     1      80.839 -15.566  63.024  1.00  0.00    -0.324 N 
ATOM     17  H82 UNL     1      80.119 -15.697  62.315  1.00  0.00     0.179 HD
ATOM     18  H81 UNL     1      81.190 -14.652  63.307  1.00  0.00     0.179 HD
ENDBRANCH  15  16
BRANCH  15  19
HETATM   19  N9  UNL     1      80.779 -17.922  63.697  1.00  0.00    -0.324 N 
ATOM     20  H92 UNL     1      80.325 -18.283  62.858  1.00  0.00     0.179 HD
ATOM     21  H91 UNL     1      80.729 -18.521  64.520  1.00  0.00     0.179 HD
ENDBRANCH  15  19
ENDBRANCH  13  15
ENDBRANCH   1  12
TORSDOF 5
ENDMDL
MODEL 3
REMARK VINA RESULT: -5.717568883      1.100      5.118
REMARK  5 active torsions:
REMARK  status: ('A' for Active; 'I' for Inactive)
REMARK    1  A    between atoms: C2_9  and  N5_10 
REMARK    2  A    between atoms: N5_10  and  N6_12 
REMARK    3  A    between atoms: C3_14  and  N7_15 
REMARK    4  A    between atoms: N7_15  and  N8_16 
REMARK    5  A    between atoms: N7_15  and  N9_19 
ROOT
HETATM    1  N5  UNL     1      83.428 -16.088  64.436  1.00  0.00    -0.281 N 
ATOM      2  H5  UNL     1      84.338 -16.469  64.175  1.00  0.00     0.188 HD
ENDROOT
BRANCH   1   3
HETATM    3  C2  UNL     1      82.240 -16.681  63.932  1.00  0.00     0.179 A 
HETATM    4  C1  UNL     1      81.300 -16.004  63.189  1.00  0.00     0.179 A 
HETATM    5  N1  UNL     1      81.359 -14.629  62.810  1.00  0.00    -0.077 NA
HETATM    6  N2  UNL     1      80.309 -16.887  62.886  1.00  0.00    -0.270 N 
HETATM    7  N3  UNL     1      80.620 -18.045  63.413  1.00  0.00    -0.240 N 
ATOM      8  H2  UNL     1      79.471 -16.682  62.343  1.00  0.00     0.190 HD
HETATM    9  N4  UNL     1      81.779 -17.936  64.045  1.00  0.00    -0.267 N 
ATOM     10  H3  UNL     1      80.060 -18.895  63.347  1.00  0.00     0.208 HD
ATOM     11  H4  UNL     1      82.250 -18.691  64.543  1.00  0.00     0.190 HD
ENDBRANCH   1   3
BRANCH   1  12
HETATM   12  N6  UNL     1      83.348 -14.974  65.295  1.00  0.00    -0.291 N 
HETATM   13  C3  UNL     1      84.430 -14.308  65.519  1.00  0.00     0.241 C 
ATOM     14  H6  UNL     1      82.464 -14.704  65.725  1.00  0.00     0.188 HD
BRANCH  13  15
HETATM   15  N7  UNL     1      84.346 -13.187  66.385  1.00  0.00    -0.204 N 
BRANCH  15  16
HETATM   16  N8  UNL     1      84.553 -13.457  67.763  1.00  0.00    -0.324 N 
ATOM     17  H82 UNL     1      84.818 -14.390  68.079  1.00  0.00     0.179 HD
ATOM     18  H81 UNL     1      84.419 -12.667  68.393  1.00  0.00     0.179 HD
ENDBRANCH  15  16
BRANCH  15  19
HETATM   19  N9  UNL     1      84.077 -11.889  65.941  1.00  0.00    -0.324 N 
ATOM     20  H92 UNL     1      84.624 -11.470  65.189  1.00  0.00     0.179 HD
ATOM     21  H91 UNL     1      83.340 -11.303  66.332  1.00  0.00     0.179 HD
ENDBRANCH  15  19
ENDBRANCH  13  15
ENDBRANCH   1  12
TORSDOF 5
ENDMDL
MODEL 4
REMARK VINA RESULT: -5.698894865      0.849      1.975
REMARK  5 active torsions:
REMARK  status: ('A' for Active; 'I' for Inactive)
REMARK    1  A    between atoms: C2_9  and  N5_10 
REMARK    2  A    between atoms: N5_10  and  N6_12 
REMARK    3  A    between atoms: C3_14  and  N7_15 
REMARK    4  A    between atoms: N7_15  and  N8_16 
REMARK    5  A    between atoms: N7_15  and  N9_19 
ROOT
HETATM    1  N5  UNL     1      83.605 -13.613  64.821  1.00  0.00    -0.281 N 
ATOM      2  H5  UNL     1      83.494 -12.636  64.552  1.00  0.00     0.188 HD
ENDROOT
BRANCH   1   3
HETATM    3  C2  UNL     1      84.361 -13.952  65.974  1.00  0.00     0.179 A 
HETATM    4  C1  UNL     1      85.412 -14.841  65.969  1.00  0.00     0.179 A 
HETATM    5  N1  UNL     1      85.905 -15.552  64.834  1.00  0.00    -0.077 NA
HETATM    6  N2  UNL     1      85.890 -14.913  67.242  1.00  0.00    -0.270 N 
HETATM    7  N3  UNL     1      85.172 -14.113  67.992  1.00  0.00    -0.240 N 
ATOM      8  H2  UNL     1      86.670 -15.489  67.557  1.00  0.00     0.190 HD
HETATM    9  N4  UNL     1      84.249 -13.528  67.242  1.00  0.00    -0.267 N 
ATOM     10  H3  UNL     1      85.304 -13.964  68.992  1.00  0.00     0.208 HD
ATOM     11  H4  UNL     1      83.558 -12.858  67.579  1.00  0.00     0.190 HD
ENDBRANCH   1   3
BRANCH   1  12
HETATM   12  N6  UNL     1      83.008 -14.630  64.049  1.00  0.00    -0.291 N 
HETATM   13  C3  UNL     1      82.258 -15.486  64.656  1.00  0.00     0.241 C 
ATOM     14  H6  UNL     1      83.165 -14.687  63.043  1.00  0.00     0.188 HD
BRANCH  13  15
HETATM   15  N7  UNL     1      81.659 -16.508  63.875  1.00  0.00    -0.204 N 
BRANCH  15  16
HETATM   16  N8  UNL     1      80.725 -16.071  62.901  1.00  0.00    -0.324 N 
ATOM     17  H82 UNL     1      80.600 -16.585  62.029  1.00  0.00     0.179 HD
ATOM     18  H81 UNL     1      80.203 -15.227  63.136  1.00  0.00     0.179 HD
ENDBRANCH  15  16
BRANCH  15  19
HETATM   19  N9  UNL     1      81.950 -17.867  64.032  1.00  0.00    -0.324 N 
ATOM     20  H92 UNL     1      82.048 -18.277  64.961  1.00  0.00     0.179 HD
ATOM     21  H91 UNL     1      82.077 -18.508  63.250  1.00  0.00     0.179 HD
ENDBRANCH  15  19
ENDBRANCH  13  15
ENDBRANCH   1  12
TORSDOF 5
ENDMDL
MODEL 5
REMARK VINA RESULT: -5.698679418      1.102      5.180
REMARK  5 active torsions:
REMARK  status: ('A' for Active; 'I' for Inactive)
REMARK    1  A    between atoms: C2_9  and  N5_10 
REMARK    2  A    between atoms: N5_10  and  N6_12 
REMARK    3  A    between atoms: C3_14  and  N7_15 
REMARK    4  A    between atoms: N7_15  and  N8_16 
REMARK    5  A    between atoms: N7_15  and  N9_19 
ROOT
HETATM    1  N5  UNL     1      83.475 -16.129  64.415  1.00  0.00    -0.281 N 
ATOM      2  H5  UNL     1      84.372 -16.454  64.053  1.00  0.00     0.188 HD
ENDROOT
BRANCH   1   3
HETATM    3  C2  UNL     1      82.267 -16.694  63.929  1.00  0.00     0.179 A 
HETATM    4  C1  UNL     1      81.327 -15.992  63.208  1.00  0.00     0.179 A 
HETATM    5  N1  UNL     1      81.407 -14.616  62.837  1.00  0.00    -0.077 NA
HETATM    6  N2  UNL     1      80.312 -16.853  62.917  1.00  0.00    -0.270 N 
HETATM    7  N3  UNL     1      80.609 -18.021  63.431  1.00  0.00    -0.240 N 
ATOM      8  H2  UNL     1      79.469 -16.627  62.391  1.00  0.00     0.190 HD
HETATM    9  N4  UNL     1      81.782 -17.940  64.042  1.00  0.00    -0.267 N 
ATOM     10  H3  UNL     1      80.031 -18.858  63.370  1.00  0.00     0.208 HD
ATOM     11  H4  UNL     1      82.246 -18.708  64.526  1.00  0.00     0.190 HD
ENDBRANCH   1   3
BRANCH   1  12
HETATM   12  N6  UNL     1      83.434 -15.119  65.396  1.00  0.00    -0.291 N 
HETATM   13  C3  UNL     1      84.370 -14.230  65.386  1.00  0.00     0.241 C 
ATOM     14  H6  UNL     1      82.690 -15.091  66.092  1.00  0.00     0.188 HD
BRANCH  13  15
HETATM   15  N7  UNL     1      84.326 -13.215  66.376  1.00  0.00    -0.204 N 
BRANCH  15  16
HETATM   16  N8  UNL     1      84.058 -11.904  65.902  1.00  0.00    -0.324 N 
ATOM     17  H82 UNL     1      83.889 -11.730  64.912  1.00  0.00     0.179 HD
ATOM     18  H81 UNL     1      84.049 -11.171  66.611  1.00  0.00     0.179 HD
ENDBRANCH  15  16
BRANCH  15  19
HETATM   19  N9  UNL     1      84.530 -13.458  67.737  1.00  0.00    -0.324 N 
ATOM     20  H92 UNL     1      83.748 -13.448  68.393  1.00  0.00     0.179 HD
ATOM     21  H91 UNL     1      85.444 -13.654  68.143  1.00  0.00     0.179 HD
ENDBRANCH  15  19
ENDBRANCH  13  15
ENDBRANCH   1  12
TORSDOF 5
ENDMDL
