MODEL 1
REMARK VINA RESULT: -6.044432628      0.000      0.000
REMARK  4 active torsions:
REMARK  status: ('A' for Active; 'I' for Inactive)
REMARK    1  A    between atoms: C2_3  and  N2_4 
REMARK    2  A    between atoms: C2_3  and  S1_8 
REMARK    3  A    between atoms: S1_8  and  C3_9 
REMARK    4  A    between atoms: C4_14  and  N5_15 
ROOT
HETATM    1  N1  UNL     1      84.675 -11.060  66.245  1.00  0.00    -0.194 NA
HETATM    2  C1  UNL     1      84.455 -12.187  66.455  1.00  0.00     0.103 C 
HETATM    3  C2  UNL     1      84.189 -13.582  66.717  1.00  0.00     0.358 C 
ENDROOT
BRANCH   3   4
HETATM    4  N2  UNL     1      85.034 -14.115  67.743  1.00  0.00    -0.053 N 
ATOM      5  H23 UNL     1      85.956 -13.680  67.723  1.00  0.00     0.276 HD
ATOM      6  H22 UNL     1      84.729 -13.807  68.667  1.00  0.00     0.276 HD
ATOM      7  H21 UNL     1      85.105 -15.132  67.699  1.00  0.00     0.276 HD
ENDBRANCH   3   4
BRANCH   3   8
HETATM    8  S1  UNL     1      84.557 -14.504  65.193  1.00  0.00    -0.044 SA
BRANCH   8   9
HETATM    9  C3  UNL     1      83.034 -15.190  64.510  1.00  0.00     0.177 A 
HETATM   10  N3  UNL     1      82.332 -16.206  65.036  1.00  0.00    -0.265 N 
HETATM   11  N4  UNL     1      81.291 -16.404  64.250  1.00  0.00    -0.130 N 
ATOM     12  H3  UNL     1      82.559 -16.727  65.883  1.00  0.00     0.189 HD
HETATM   13  C4  UNL     1      81.331 -15.537  63.251  1.00  0.00     0.692 A 
ATOM     14  H4  UNL     1      80.570 -17.113  64.389  1.00  0.00     0.205 HD
HETATM   15  N6  UNL     1      82.426 -14.758  63.395  1.00  0.00    -0.168 N 
ATOM     16  H6  UNL     1      82.727 -13.999  62.784  1.00  0.00     0.186 HD
BRANCH  13  17
HETATM   17  N5  UNL     1      80.491 -15.410  62.277  1.00  0.00    -0.233 N 
ATOM     18  H52 UNL     1      80.392 -16.095  61.528  1.00  0.00     0.174 HD
ATOM     19  H51 UNL     1      79.833 -14.647  62.113  1.00  0.00     0.174 HD
ENDBRANCH  13  17
ENDBRANCH   8   9
ENDBRANCH   3   8
TORSDOF 4
ENDMDL
MODEL 2
REMARK VINA RESULT: -5.773340472      0.804      1.409
REMARK  4 active torsions:
REMARK  status: ('A' for Active; 'I' for Inactive)
REMARK    1  A    between atoms: C2_3  and  N2_4 
REMARK    2  A    between atoms: C2_3  and  S1_8 
REMARK    3  A    between atoms: S1_8  and  C3_9 
REMARK    4  A    between atoms: C4_14  and  N5_15 
ROOT
HETATM    1  N1  UNL     1      84.482 -11.263  66.119  1.00  0.00    -0.194 NA
HETATM    2  C1  UNL     1      84.382 -12.399  66.366  1.00  0.00     0.103 C 
HETATM    3  C2  UNL     1      84.265 -13.806  66.671  1.00  0.00     0.358 C 
ENDROOT
BRANCH   3   4
HETATM    4  N2  UNL     1      85.171 -14.217  67.701  1.00  0.00    -0.053 N 
ATOM      5  H23 UNL     1      86.094 -13.805  67.565  1.00  0.00     0.276 HD
ATOM      6  H22 UNL     1      84.932 -13.787  68.595  1.00  0.00     0.276 HD
ATOM      7  H21 UNL     1      85.229 -15.232  67.785  1.00  0.00     0.276 HD
ENDBRANCH   3   4
BRANCH   3   8
HETATM    8  S1  UNL     1      84.710 -14.730  65.170  1.00  0.00    -0.044 SA
BRANCH   8   9
HETATM    9  C3  UNL     1      83.223 -15.419  64.413  1.00  0.00     0.177 A 
HETATM   10  N3  UNL     1      82.398 -14.766  63.581  1.00  0.00    -0.265 N 
HETATM   11  N4  UNL     1      81.439 -15.610  63.248  1.00  0.00    -0.130 N 
ATOM     12  H3  UNL     1      82.492 -13.801  63.265  1.00  0.00     0.189 HD
HETATM   13  C4  UNL     1      81.651 -16.767  63.852  1.00  0.00     0.692 A 
ATOM     14  H4  UNL     1      80.659 -15.402  62.623  1.00  0.00     0.205 HD
HETATM   15  N6  UNL     1      82.775 -16.670  64.595  1.00  0.00    -0.168 N 
ATOM     16  H6  UNL     1      83.196 -17.397  65.174  1.00  0.00     0.186 HD
BRANCH  13  17
HETATM   17  N5  UNL     1      80.938 -17.843  63.778  1.00  0.00    -0.233 N 
ATOM     18  H52 UNL     1      79.958 -17.886  64.057  1.00  0.00     0.174 HD
ATOM     19  H51 UNL     1      81.228 -18.764  63.449  1.00  0.00     0.174 HD
ENDBRANCH  13  17
ENDBRANCH   8   9
ENDBRANCH   3   8
TORSDOF 4
ENDMDL
MODEL 3
REMARK VINA RESULT: -5.582876108      1.677      5.361
REMARK  4 active torsions:
REMARK  status: ('A' for Active; 'I' for Inactive)
REMARK    1  A    between atoms: C2_3  and  N2_4 
REMARK    2  A    between atoms: C2_3  and  S1_8 
REMARK    3  A    between atoms: S1_8  and  C3_9 
REMARK    4  A    between atoms: C4_14  and  N5_15 
ROOT
HETATM    1  N1  UNL     1      81.065 -18.499  64.192  1.00  0.00    -0.194 NA
HETATM    2  C1  UNL     1      81.372 -17.389  64.002  1.00  0.00     0.103 C 
HETATM    3  C2  UNL     1      81.755 -16.017  63.762  1.00  0.00     0.358 C 
ENDROOT
BRANCH   3   4
HETATM    4  N2  UNL     1      81.689 -15.668  62.375  1.00  0.00    -0.053 N 
ATOM      5  H23 UNL     1      81.293 -16.429  61.822  1.00  0.00     0.276 HD
ATOM      6  H22 UNL     1      80.976 -14.958  62.207  1.00  0.00     0.276 HD
ATOM      7  H21 UNL     1      82.593 -15.376  62.004  1.00  0.00     0.276 HD
ENDBRANCH   3   4
BRANCH   3   8
HETATM    8  S1  UNL     1      83.490 -15.836  64.276  1.00  0.00    -0.044 SA
BRANCH   8   9
HETATM    9  C3  UNL     1      83.711 -14.267  65.141  1.00  0.00     0.177 A 
HETATM   10  N3  UNL     1      83.506 -13.051  64.613  1.00  0.00    -0.265 N 
HETATM   11  N4  UNL     1      83.772 -12.170  65.559  1.00  0.00    -0.130 N 
ATOM     12  H3  UNL     1      83.203 -12.845  63.661  1.00  0.00     0.189 HD
HETATM   13  C4  UNL     1      84.136 -12.811  66.658  1.00  0.00     0.692 A 
ATOM     14  H4  UNL     1      83.708 -11.156  65.459  1.00  0.00     0.205 HD
HETATM   15  N6  UNL     1      84.105 -14.140  66.417  1.00  0.00    -0.168 N 
ATOM     16  H6  UNL     1      84.332 -14.890  67.069  1.00  0.00     0.186 HD
BRANCH  13  17
HETATM   17  N5  UNL     1      84.472 -12.303  67.798  1.00  0.00    -0.233 N 
ATOM     18  H52 UNL     1      84.181 -11.375  68.107  1.00  0.00     0.174 HD
ATOM     19  H51 UNL     1      85.050 -12.725  68.525  1.00  0.00     0.174 HD
ENDBRANCH  13  17
ENDBRANCH   8   9
ENDBRANCH   3   8
TORSDOF 4
ENDMDL
MODEL 4
REMARK VINA RESULT: -5.435689644      1.560      5.228
REMARK  4 active torsions:
REMARK  status: ('A' for Active; 'I' for Inactive)
REMARK    1  A    between atoms: C2_3  and  N2_4 
REMARK    2  A    between atoms: C2_3  and  S1_8 
REMARK    3  A    between atoms: S1_8  and  C3_9 
REMARK    4  A    between atoms: C4_14  and  N5_15 
ROOT
HETATM    1  N1  UNL     1      81.105 -18.474  64.139  1.00  0.00    -0.194 NA
HETATM    2  C1  UNL     1      81.392 -17.344  64.104  1.00  0.00     0.103 C 
HETATM    3  C2  UNL     1      81.749 -15.945  64.055  1.00  0.00     0.358 C 
ENDROOT
BRANCH   3   4
HETATM    4  N2  UNL     1      81.328 -15.318  62.839  1.00  0.00    -0.053 N 
ATOM      5  H23 UNL     1      81.901 -15.620  62.051  1.00  0.00     0.276 HD
ATOM      6  H22 UNL     1      80.425 -15.680  62.531  1.00  0.00     0.276 HD
ATOM      7  H21 UNL     1      81.310 -14.300  62.913  1.00  0.00     0.276 HD
ENDBRANCH   3   4
BRANCH   3   8
HETATM    8  S1  UNL     1      83.564 -15.842  64.108  1.00  0.00    -0.044 SA
BRANCH   8   9
HETATM    9  C3  UNL     1      84.074 -14.684  65.394  1.00  0.00     0.177 A 
HETATM   10  N3  UNL     1      84.606 -15.020  66.580  1.00  0.00    -0.265 N 
HETATM   11  N4  UNL     1      84.843 -13.896  67.229  1.00  0.00    -0.130 N 
ATOM     12  H3  UNL     1      84.792 -15.965  66.916  1.00  0.00     0.189 HD
HETATM   13  C4  UNL     1      84.471 -12.874  66.476  1.00  0.00     0.692 A 
ATOM     14  H4  UNL     1      85.248 -13.826  68.163  1.00  0.00     0.205 HD
HETATM   15  N6  UNL     1      83.981 -13.348  65.309  1.00  0.00    -0.168 N 
ATOM     16  H6  UNL     1      83.617 -12.805  64.527  1.00  0.00     0.186 HD
BRANCH  13  17
HETATM   17  N5  UNL     1      84.544 -11.614  66.756  1.00  0.00    -0.233 N 
ATOM     18  H52 UNL     1      85.032 -11.248  67.574  1.00  0.00     0.174 HD
ATOM     19  H51 UNL     1      84.146 -10.833  66.235  1.00  0.00     0.174 HD
ENDBRANCH  13  17
ENDBRANCH   8   9
ENDBRANCH   3   8
TORSDOF 4
ENDMDL
MODEL 5
REMARK VINA RESULT: -5.224912333      1.599      2.103
REMARK  4 active torsions:
REMARK  status: ('A' for Active; 'I' for Inactive)
REMARK    1  A    between atoms: C2_3  and  N2_4 
REMARK    2  A    between atoms: C2_3  and  S1_8 
REMARK    3  A    between atoms: S1_8  and  C3_9 
REMARK    4  A    between atoms: C4_14  and  N5_15 
ROOT
HETATM    1  N1  UNL     1      86.350 -15.966  64.939  1.00  0.00    -0.194 NA
HETATM    2  C1  UNL     1      85.972 -15.052  65.557  1.00  0.00     0.103 C 
HETATM    3  C2  UNL     1      85.500 -13.924  66.326  1.00  0.00     0.358 C 
ENDROOT
BRANCH   3   4
HETATM    4  N2  UNL     1      85.164 -14.284  67.671  1.00  0.00    -0.053 N 
ATOM      5  H23 UNL     1      84.463 -13.651  68.057  1.00  0.00     0.276 HD
ATOM      6  H22 UNL     1      84.630 -15.152  67.697  1.00  0.00     0.276 HD
ATOM      7  H21 UNL     1      85.984 -14.337  68.275  1.00  0.00     0.276 HD
ENDBRANCH   3   4
BRANCH   3   8
HETATM    8  S1  UNL     1      83.975 -13.325  65.537  1.00  0.00    -0.044 SA
BRANCH   8   9
HETATM    9  C3  UNL     1      83.040 -14.720  64.874  1.00  0.00     0.177 A 
HETATM   10  N3  UNL     1      82.574 -15.756  65.588  1.00  0.00    -0.265 N 
HETATM   11  N4  UNL     1      81.948 -16.555  64.745  1.00  0.00    -0.130 N 
ATOM     12  H3  UNL     1      82.683 -15.899  66.592  1.00  0.00     0.189 HD
HETATM   13  C4  UNL     1      82.015 -16.039  63.528  1.00  0.00     0.692 A 
ATOM     14  H4  UNL     1      81.485 -17.431  64.992  1.00  0.00     0.205 HD
HETATM   15  N6  UNL     1      82.702 -14.877  63.586  1.00  0.00    -0.168 N 
ATOM     16  H6  UNL     1      82.918 -14.251  62.811  1.00  0.00     0.186 HD
BRANCH  13  17
HETATM   17  N5  UNL     1      81.522 -16.521  62.435  1.00  0.00    -0.233 N 
ATOM     18  H52 UNL     1      81.455 -15.989  61.567  1.00  0.00     0.174 HD
ATOM     19  H51 UNL     1      81.143 -17.455  62.278  1.00  0.00     0.174 HD
ENDBRANCH  13  17
ENDBRANCH   8   9
ENDBRANCH   3   8
TORSDOF 4
ENDMDL
