MODEL 1
REMARK VINA RESULT: -7.575249135      0.000      0.000
REMARK  13 active torsions:
REMARK  status: ('A' for Active; 'I' for Inactive)
REMARK    1  A    between atoms: C2_2  and  C3_3 
REMARK    2  A    between atoms: C3_3  and  C4_4 
REMARK    3  A    between atoms: C4_4  and  C5_5 
REMARK    4  A    between atoms: C5_5  and  C6_6 
REMARK    5  A    between atoms: C6_6  and  C7_7 
REMARK    6  A    between atoms: C7_7  and  C8_8 
REMARK    7  A    between atoms: C8_8  and  C9_9 
REMARK    8  A    between atoms: C9_9  and  C10_10 
REMARK    9  A    between atoms: C10_10  and  C11_11 
REMARK   10  A    between atoms: C11_11  and  C12_12 
REMARK       I    between atoms: C12_12  and  N1_14 
REMARK   11  A    between atoms: C15_17  and  O2_18 
REMARK   12  A    between atoms: O2_18  and  C16_19 
REMARK   13  A    between atoms: C16_19  and  C17_21 
ROOT
HETATM    1  C17 UNL     1      33.620  37.887  14.436  1.00  0.00     0.234 C 
HETATM    2  C18 UNL     1      33.724  39.139  15.183  1.00  0.00     0.069 C 
HETATM    3  N2  UNL     1      33.817  40.147  15.762  1.00  0.00    -0.197 NA
ENDROOT
BRANCH   1   4
HETATM    4  C16 UNL     1      32.214  37.412  14.473  1.00  0.00     0.272 C 
HETATM    5  O3  UNL     1      31.386  37.931  15.271  1.00  0.00    -0.264 OA
BRANCH   4   6
HETATM    6  O2  UNL     1      31.806  36.409  13.638  1.00  0.00    -0.315 OA
BRANCH   6   7
HETATM    7  C15 UNL     1      31.156  35.275  14.177  1.00  0.00     0.135 C 
HETATM    8  C14 UNL     1      30.612  34.355  13.100  1.00  0.00     0.052 C 
HETATM    9  C13 UNL     1      29.601  33.451  13.788  1.00  0.00     0.128 C 
HETATM   10  N1  UNL     1      30.328  32.725  14.819  1.00  0.00    -0.352 N 
HETATM   11  C12 UNL     1      29.654  31.692  15.508  1.00  0.00     0.219 C 
HETATM   12  C20 UNL     1      31.695  33.018  15.157  1.00  0.00     0.128 C 
HETATM   13  O1  UNL     1      28.462  31.440  15.207  1.00  0.00    -0.273 OA
HETATM   14  C19 UNL     1      32.030  34.490  15.100  1.00  0.00     0.052 C 
BRANCH  11  15
HETATM   15  C11 UNL     1      30.358  30.921  16.571  1.00  0.00     0.103 C 
BRANCH  15  16
HETATM   16  C10 UNL     1      29.366  29.977  17.209  1.00  0.00     0.009 C 
BRANCH  16  17
HETATM   17  C9  UNL     1      29.961  28.618  17.492  1.00  0.00     0.000 C 
BRANCH  17  18
HETATM   18  C8  UNL     1      28.915  27.535  17.400  1.00  0.00     0.000 C 
BRANCH  18  19
HETATM   19  C7  UNL     1      28.533  27.215  15.986  1.00  0.00     0.000 C 
BRANCH  19  20
HETATM   20  C6  UNL     1      29.331  26.069  15.408  1.00  0.00     0.000 C 
BRANCH  20  21
HETATM   21  C5  UNL     1      29.983  26.660  14.117  1.00  0.00     0.000 C 
BRANCH  21  22
HETATM   22  C4  UNL     1      29.382  27.972  13.801  1.00  0.00     0.000 C 
BRANCH  22  23
HETATM   23  C3  UNL     1      30.325  28.971  13.269  1.00  0.00    -0.000 C 
BRANCH  23  24
HETATM   24  C2  UNL     1      31.722  29.032  13.742  1.00  0.00    -0.005 C 
HETATM   25  C1  UNL     1      32.593  30.135  13.226  1.00  0.00     0.005 C 
ENDBRANCH  23  24
ENDBRANCH  22  23
ENDBRANCH  21  22
ENDBRANCH  20  21
ENDBRANCH  19  20
ENDBRANCH  18  19
ENDBRANCH  17  18
ENDBRANCH  16  17
ENDBRANCH  15  16
ENDBRANCH  11  15
ENDBRANCH   6   7
ENDBRANCH   4   6
ENDBRANCH   1   4
TORSDOF 13
ENDMDL
MODEL 2
REMARK VINA RESULT: -7.481898413      0.981      1.085
REMARK  13 active torsions:
REMARK  status: ('A' for Active; 'I' for Inactive)
REMARK    1  A    between atoms: C2_2  and  C3_3 
REMARK    2  A    between atoms: C3_3  and  C4_4 
REMARK    3  A    between atoms: C4_4  and  C5_5 
REMARK    4  A    between atoms: C5_5  and  C6_6 
REMARK    5  A    between atoms: C6_6  and  C7_7 
REMARK    6  A    between atoms: C7_7  and  C8_8 
REMARK    7  A    between atoms: C8_8  and  C9_9 
REMARK    8  A    between atoms: C9_9  and  C10_10 
REMARK    9  A    between atoms: C10_10  and  C11_11 
REMARK   10  A    between atoms: C11_11  and  C12_12 
REMARK       I    between atoms: C12_12  and  N1_14 
REMARK   11  A    between atoms: C15_17  and  O2_18 
REMARK   12  A    between atoms: O2_18  and  C16_19 
REMARK   13  A    between atoms: C16_19  and  C17_21 
ROOT
HETATM    1  C17 UNL     1      33.252  37.056  14.413  1.00  0.00     0.234 C 
HETATM    2  C18 UNL     1      33.286  38.501  14.195  1.00  0.00     0.069 C 
HETATM    3  N2  UNL     1      33.325  39.651  14.004  1.00  0.00    -0.197 NA
ENDROOT
BRANCH   1   4
HETATM    4  C16 UNL     1      31.849  36.629  14.639  1.00  0.00     0.272 C 
HETATM    5  O3  UNL     1      31.127  37.229  15.483  1.00  0.00    -0.264 OA
BRANCH   4   6
HETATM    6  O2  UNL     1      31.327  35.582  13.931  1.00  0.00    -0.315 OA
BRANCH   6   7
HETATM    7  C15 UNL     1      30.814  34.460  14.622  1.00  0.00     0.135 C 
HETATM    8  C14 UNL     1      30.187  33.443  13.687  1.00  0.00     0.052 C 
HETATM    9  C13 UNL     1      29.323  32.545  14.558  1.00  0.00     0.128 C 
HETATM   10  N1  UNL     1      30.215  31.926  15.528  1.00  0.00    -0.352 N 
HETATM   11  C12 UNL     1      29.692  30.915  16.364  1.00  0.00     0.219 C 
HETATM   12  C20 UNL     1      31.596  32.305  15.664  1.00  0.00     0.128 C 
HETATM   13  O1  UNL     1      28.487  30.589  16.240  1.00  0.00    -0.273 OA
HETATM   14  C19 UNL     1      31.840  33.783  15.470  1.00  0.00     0.052 C 
BRANCH  11  15
HETATM   15  C11 UNL     1      30.567  30.253  17.373  1.00  0.00     0.103 C 
BRANCH  15  16
HETATM   16  C10 UNL     1      29.695  29.737  18.492  1.00  0.00     0.009 C 
BRANCH  16  17
HETATM   17  C9  UNL     1      30.007  28.304  18.855  1.00  0.00     0.000 C 
BRANCH  17  18
HETATM   18  C8  UNL     1      30.034  27.425  17.630  1.00  0.00     0.000 C 
BRANCH  18  19
HETATM   19  C7  UNL     1      28.664  27.020  17.175  1.00  0.00     0.000 C 
BRANCH  19  20
HETATM   20  C6  UNL     1      28.513  27.045  15.672  1.00  0.00     0.000 C 
BRANCH  20  21
HETATM   21  C5  UNL     1      29.960  27.301  15.139  1.00  0.00     0.000 C 
BRANCH  21  22
HETATM   22  C4  UNL     1      29.910  27.727  13.726  1.00  0.00     0.000 C 
BRANCH  22  23
HETATM   23  C3  UNL     1      30.595  29.000  13.441  1.00  0.00    -0.000 C 
BRANCH  23  24
HETATM   24  C2  UNL     1      32.017  29.198  13.786  1.00  0.00    -0.005 C 
HETATM   25  C1  UNL     1      32.796  30.214  13.010  1.00  0.00     0.005 C 
ENDBRANCH  23  24
ENDBRANCH  22  23
ENDBRANCH  21  22
ENDBRANCH  20  21
ENDBRANCH  19  20
ENDBRANCH  18  19
ENDBRANCH  17  18
ENDBRANCH  16  17
ENDBRANCH  15  16
ENDBRANCH  11  15
ENDBRANCH   6   7
ENDBRANCH   4   6
ENDBRANCH   1   4
TORSDOF 13
ENDMDL
MODEL 3
REMARK VINA RESULT: -7.317005763      1.677      3.262
REMARK  13 active torsions:
REMARK  status: ('A' for Active; 'I' for Inactive)
REMARK    1  A    between atoms: C2_2  and  C3_3 
REMARK    2  A    between atoms: C3_3  and  C4_4 
REMARK    3  A    between atoms: C4_4  and  C5_5 
REMARK    4  A    between atoms: C5_5  and  C6_6 
REMARK    5  A    between atoms: C6_6  and  C7_7 
REMARK    6  A    between atoms: C7_7  and  C8_8 
REMARK    7  A    between atoms: C8_8  and  C9_9 
REMARK    8  A    between atoms: C9_9  and  C10_10 
REMARK    9  A    between atoms: C10_10  and  C11_11 
REMARK   10  A    between atoms: C11_11  and  C12_12 
REMARK       I    between atoms: C12_12  and  N1_14 
REMARK   11  A    between atoms: C15_17  and  O2_18 
REMARK   12  A    between atoms: O2_18  and  C16_19 
REMARK   13  A    between atoms: C16_19  and  C17_21 
ROOT
HETATM    1  C17 UNL     1      32.256  39.804  14.598  1.00  0.00     0.234 C 
HETATM    2  C18 UNL     1      33.169  40.661  15.354  1.00  0.00     0.069 C 
HETATM    3  N2  UNL     1      33.881  41.349  15.970  1.00  0.00    -0.197 NA
ENDROOT
BRANCH   1   4
HETATM    4  C16 UNL     1      32.883  38.473  14.406  1.00  0.00     0.272 C 
HETATM    5  O3  UNL     1      33.954  38.180  15.007  1.00  0.00    -0.264 OA
BRANCH   4   6
HETATM    6  O2  UNL     1      32.303  37.553  13.578  1.00  0.00    -0.315 OA
BRANCH   6   7
HETATM    7  C15 UNL     1      32.341  36.182  13.922  1.00  0.00     0.135 C 
HETATM    8  C14 UNL     1      31.244  35.800  14.897  1.00  0.00     0.052 C 
HETATM    9  C13 UNL     1      31.655  34.465  15.495  1.00  0.00     0.128 C 
HETATM   10  N1  UNL     1      31.759  33.528  14.385  1.00  0.00    -0.352 N 
HETATM   11  C12 UNL     1      31.973  32.164  14.683  1.00  0.00     0.219 C 
HETATM   12  C20 UNL     1      31.650  33.938  13.011  1.00  0.00     0.128 C 
HETATM   13  O1  UNL     1      32.067  31.812  15.884  1.00  0.00    -0.273 OA
HETATM   14  C19 UNL     1      32.277  35.284  12.730  1.00  0.00     0.052 C 
BRANCH  11  15
HETATM   15  C11 UNL     1      32.086  31.168  13.580  1.00  0.00     0.103 C 
BRANCH  15  16
HETATM   16  C10 UNL     1      31.800  29.797  14.147  1.00  0.00     0.009 C 
BRANCH  16  17
HETATM   17  C9  UNL     1      30.688  29.088  13.410  1.00  0.00     0.000 C 
BRANCH  17  18
HETATM   18  C8  UNL     1      29.457  28.960  14.272  1.00  0.00     0.000 C 
BRANCH  18  19
HETATM   19  C7  UNL     1      28.620  30.204  14.275  1.00  0.00     0.000 C 
BRANCH  19  20
HETATM   20  C6  UNL     1      28.572  30.875  15.628  1.00  0.00     0.000 C 
BRANCH  20  21
HETATM   21  C5  UNL     1      28.795  29.713  16.648  1.00  0.00     0.000 C 
BRANCH  21  22
HETATM   22  C4  UNL     1      29.688  30.161  17.737  1.00  0.00     0.000 C 
BRANCH  22  23
HETATM   23  C3  UNL     1      30.541  29.105  18.309  1.00  0.00    -0.000 C 
BRANCH  23  24
HETATM   24  C2  UNL     1      31.550  28.409  17.487  1.00  0.00    -0.005 C 
HETATM   25  C1  UNL     1      31.239  27.023  17.012  1.00  0.00     0.005 C 
ENDBRANCH  23  24
ENDBRANCH  22  23
ENDBRANCH  21  22
ENDBRANCH  20  21
ENDBRANCH  19  20
ENDBRANCH  18  19
ENDBRANCH  17  18
ENDBRANCH  16  17
ENDBRANCH  15  16
ENDBRANCH  11  15
ENDBRANCH   6   7
ENDBRANCH   4   6
ENDBRANCH   1   4
TORSDOF 13
ENDMDL
MODEL 4
REMARK VINA RESULT: -7.251848802      1.517      3.010
REMARK  13 active torsions:
REMARK  status: ('A' for Active; 'I' for Inactive)
REMARK    1  A    between atoms: C2_2  and  C3_3 
REMARK    2  A    between atoms: C3_3  and  C4_4 
REMARK    3  A    between atoms: C4_4  and  C5_5 
REMARK    4  A    between atoms: C5_5  and  C6_6 
REMARK    5  A    between atoms: C6_6  and  C7_7 
REMARK    6  A    between atoms: C7_7  and  C8_8 
REMARK    7  A    between atoms: C8_8  and  C9_9 
REMARK    8  A    between atoms: C9_9  and  C10_10 
REMARK    9  A    between atoms: C10_10  and  C11_11 
REMARK   10  A    between atoms: C11_11  and  C12_12 
REMARK       I    between atoms: C12_12  and  N1_14 
REMARK   11  A    between atoms: C15_17  and  O2_18 
REMARK   12  A    between atoms: O2_18  and  C16_19 
REMARK   13  A    between atoms: C16_19  and  C17_21 
ROOT
HETATM    1  C17 UNL     1      32.581  39.607  13.650  1.00  0.00     0.234 C 
HETATM    2  C18 UNL     1      32.597  40.039  15.046  1.00  0.00     0.069 C 
HETATM    3  N2  UNL     1      32.591  40.391  16.158  1.00  0.00    -0.197 NA
ENDROOT
BRANCH   1   4
HETATM    4  C16 UNL     1      33.016  38.191  13.572  1.00  0.00     0.272 C 
HETATM    5  O3  UNL     1      34.129  37.838  14.050  1.00  0.00    -0.264 OA
BRANCH   4   6
HETATM    6  O2  UNL     1      32.211  37.256  12.981  1.00  0.00    -0.315 OA
BRANCH   6   7
HETATM    7  C15 UNL     1      32.097  35.970  13.557  1.00  0.00     0.135 C 
HETATM    8  C14 UNL     1      31.430  36.002  14.919  1.00  0.00     0.052 C 
HETATM    9  C13 UNL     1      31.759  34.675  15.583  1.00  0.00     0.128 C 
HETATM   10  N1  UNL     1      31.211  33.635  14.724  1.00  0.00    -0.352 N 
HETATM   11  C12 UNL     1      31.238  32.302  15.192  1.00  0.00     0.219 C 
HETATM   12  C20 UNL     1      30.649  33.913  13.430  1.00  0.00     0.128 C 
HETATM   13  O1  UNL     1      31.729  32.066  16.322  1.00  0.00    -0.273 OA
HETATM   14  C19 UNL     1      31.375  35.003  12.676  1.00  0.00     0.052 C 
BRANCH  11  15
HETATM   15  C11 UNL     1      30.689  31.203  14.348  1.00  0.00     0.103 C 
BRANCH  15  16
HETATM   16  C10 UNL     1      31.837  30.330  13.900  1.00  0.00     0.009 C 
BRANCH  16  17
HETATM   17  C9  UNL     1      31.768  28.939  14.485  1.00  0.00     0.000 C 
BRANCH  17  18
HETATM   18  C8  UNL     1      30.713  28.110  13.799  1.00  0.00     0.000 C 
BRANCH  18  19
HETATM   19  C7  UNL     1      29.909  27.284  14.758  1.00  0.00     0.000 C 
BRANCH  19  20
HETATM   20  C6  UNL     1      28.668  27.995  15.246  1.00  0.00     0.000 C 
BRANCH  20  21
HETATM   21  C5  UNL     1      28.859  28.095  16.794  1.00  0.00     0.000 C 
BRANCH  21  22
HETATM   22  C4  UNL     1      28.888  29.512  17.209  1.00  0.00     0.000 C 
BRANCH  22  23
HETATM   23  C3  UNL     1      30.007  29.872  18.097  1.00  0.00    -0.000 C 
BRANCH  23  24
HETATM   24  C2  UNL     1      31.113  28.929  18.355  1.00  0.00    -0.005 C 
HETATM   25  C1  UNL     1      32.465  29.494  18.662  1.00  0.00     0.005 C 
ENDBRANCH  23  24
ENDBRANCH  22  23
ENDBRANCH  21  22
ENDBRANCH  20  21
ENDBRANCH  19  20
ENDBRANCH  18  19
ENDBRANCH  17  18
ENDBRANCH  16  17
ENDBRANCH  15  16
ENDBRANCH  11  15
ENDBRANCH   6   7
ENDBRANCH   4   6
ENDBRANCH   1   4
TORSDOF 13
ENDMDL
MODEL 5
REMARK VINA RESULT: -7.225838844      1.710      2.396
REMARK  13 active torsions:
REMARK  status: ('A' for Active; 'I' for Inactive)
REMARK    1  A    between atoms: C2_2  and  C3_3 
REMARK    2  A    between atoms: C3_3  and  C4_4 
REMARK    3  A    between atoms: C4_4  and  C5_5 
REMARK    4  A    between atoms: C5_5  and  C6_6 
REMARK    5  A    between atoms: C6_6  and  C7_7 
REMARK    6  A    between atoms: C7_7  and  C8_8 
REMARK    7  A    between atoms: C8_8  and  C9_9 
REMARK    8  A    between atoms: C9_9  and  C10_10 
REMARK    9  A    between atoms: C10_10  and  C11_11 
REMARK   10  A    between atoms: C11_11  and  C12_12 
REMARK       I    between atoms: C12_12  and  N1_14 
REMARK   11  A    between atoms: C15_17  and  O2_18 
REMARK   12  A    between atoms: O2_18  and  C16_19 
REMARK   13  A    between atoms: C16_19  and  C17_21 
ROOT
HETATM    1  C17 UNL     1      32.721  35.956  13.873  1.00  0.00     0.234 C 
HETATM    2  C18 UNL     1      31.943  36.920  14.648  1.00  0.00     0.069 C 
HETATM    3  N2  UNL     1      31.330  37.705  15.255  1.00  0.00    -0.197 NA
ENDROOT
BRANCH   1   4
HETATM    4  C16 UNL     1      31.829  34.860  13.421  1.00  0.00     0.272 C 
HETATM    5  O3  UNL     1      32.209  34.056  12.524  1.00  0.00    -0.264 OA
BRANCH   4   6
HETATM    6  O2  UNL     1      30.588  34.710  13.974  1.00  0.00    -0.315 OA
BRANCH   6   7
HETATM    7  C15 UNL     1      30.350  33.649  14.878  1.00  0.00     0.135 C 
HETATM    8  C14 UNL     1      29.664  32.469  14.217  1.00  0.00     0.052 C 
HETATM    9  C13 UNL     1      29.096  31.623  15.345  1.00  0.00     0.128 C 
HETATM   10  N1  UNL     1      30.226  31.216  16.167  1.00  0.00    -0.352 N 
HETATM   11  C12 UNL     1      29.995  30.283  17.202  1.00  0.00     0.219 C 
HETATM   12  C20 UNL     1      31.556  31.724  15.964  1.00  0.00     0.128 C 
HETATM   13  O1  UNL     1      28.832  29.843  17.373  1.00  0.00    -0.273 OA
HETATM   14  C19 UNL     1      31.593  33.179  15.560  1.00  0.00     0.052 C 
BRANCH  11  15
HETATM   15  C11 UNL     1      31.121  29.836  18.070  1.00  0.00     0.103 C 
BRANCH  15  16
HETATM   16  C10 UNL     1      30.860  28.408  18.489  1.00  0.00     0.009 C 
BRANCH  16  17
HETATM   17  C9  UNL     1      31.758  27.424  17.778  1.00  0.00     0.000 C 
BRANCH  17  18
HETATM   18  C8  UNL     1      31.198  26.026  17.846  1.00  0.00     0.000 C 
BRANCH  18  19
HETATM   19  C7  UNL     1      30.418  25.652  16.620  1.00  0.00     0.000 C 
BRANCH  19  20
HETATM   20  C6  UNL     1      28.924  25.712  16.835  1.00  0.00     0.000 C 
BRANCH  20  21
HETATM   21  C5  UNL     1      28.416  26.730  15.764  1.00  0.00     0.000 C 
BRANCH  21  22
HETATM   22  C4  UNL     1      29.467  26.965  14.752  1.00  0.00     0.000 C 
BRANCH  22  23
HETATM   23  C3  UNL     1      29.276  28.175  13.934  1.00  0.00    -0.000 C 
BRANCH  23  24
HETATM   24  C2  UNL     1      30.423  28.880  13.331  1.00  0.00    -0.005 C 
HETATM   25  C1  UNL     1      31.766  28.722  13.974  1.00  0.00     0.005 C 
ENDBRANCH  23  24
ENDBRANCH  22  23
ENDBRANCH  21  22
ENDBRANCH  20  21
ENDBRANCH  19  20
ENDBRANCH  18  19
ENDBRANCH  17  18
ENDBRANCH  16  17
ENDBRANCH  15  16
ENDBRANCH  11  15
ENDBRANCH   6   7
ENDBRANCH   4   6
ENDBRANCH   1   4
TORSDOF 13
ENDMDL
