MODEL 1
REMARK VINA RESULT: -7.263680641      0.000      0.000
REMARK  13 active torsions:
REMARK  status: ('A' for Active; 'I' for Inactive)
REMARK    1  A    between atoms: C1_2  and  C2_3 
REMARK    2  A    between atoms: C1_2  and  O2_16 
REMARK    3  A    between atoms: C2_3  and  C3_4 
REMARK    4  A    between atoms: C3_4  and  C4_5 
REMARK    5  A    between atoms: C4_5  and  C5_6 
REMARK    6  A    between atoms: C5_6  and  C6_7 
REMARK    7  A    between atoms: C6_7  and  C7_8 
REMARK    8  A    between atoms: C7_8  and  C8_9 
REMARK    9  A    between atoms: C8_9  and  C9_10 
REMARK   10  A    between atoms: C9_10  and  N1_11 
REMARK   11  A    between atoms: O2_16  and  C14_17 
REMARK   12  A    between atoms: C14_17  and  C15_18 
REMARK   13  A    between atoms: C15_18  and  N2_19 
ROOT
HETATM    1  C2  UNL     1      29.765  32.174  14.583  1.00  0.00     0.111 C 
ENDROOT
BRANCH   1   2
HETATM    2  C1  UNL     1      28.861  31.008  14.702  1.00  0.00     0.259 C 
HETATM    3  O1  UNL     1      27.945  31.058  15.554  1.00  0.00    -0.265 OA
BRANCH   2   4
HETATM    4  O2  UNL     1      29.024  29.874  13.879  1.00  0.00    -0.316 OA
BRANCH   4   5
HETATM    5  C14 UNL     1      30.202  29.150  13.943  1.00  0.00     0.223 C 
BRANCH   5   6
HETATM    6  C15 UNL     1      30.182  28.009  14.872  1.00  0.00     0.084 C 
BRANCH   6   7
HETATM    7  N2  UNL     1      30.108  28.212  16.254  1.00  0.00    -0.391 N 
HETATM    8  C16 UNL     1      31.185  28.086  17.125  1.00  0.00     0.122 C 
HETATM    9  C17 UNL     1      31.161  29.323  18.054  1.00  0.00     0.020 C 
HETATM   10  C18 UNL     1      29.713  29.719  18.190  1.00  0.00     0.002 C 
HETATM   11  C19 UNL     1      29.034  28.642  19.010  1.00  0.00     0.002 C 
HETATM   12  C20 UNL     1      28.802  27.388  18.196  1.00  0.00     0.020 C 
HETATM   13  C21 UNL     1      28.871  27.614  16.731  1.00  0.00     0.122 C 
ENDBRANCH   6   7
ENDBRANCH   5   6
ENDBRANCH   4   5
ENDBRANCH   2   4
ENDBRANCH   1   2
BRANCH   1  14
HETATM   14  C3  UNL     1      30.858  32.197  15.656  1.00  0.00     0.013 C 
BRANCH  14  15
HETATM   15  C4  UNL     1      32.205  32.430  15.047  1.00  0.00     0.027 C 
BRANCH  15  16
HETATM   16  C5  UNL     1      32.321  32.546  13.597  1.00  0.00    -0.031 C 
BRANCH  16  17
HETATM   17  C6  UNL     1      32.543  33.781  12.875  1.00  0.00    -0.031 C 
BRANCH  17  18
HETATM   18  C7  UNL     1      31.564  34.868  12.812  1.00  0.00     0.028 C 
BRANCH  18  19
HETATM   19  C8  UNL     1      31.618  35.729  14.083  1.00  0.00     0.034 C 
BRANCH  19  20
HETATM   20  C9  UNL     1      32.909  36.454  14.251  1.00  0.00     0.272 C 
BRANCH  20  21
HETATM   21  N1  UNL     1      32.589  37.887  14.112  1.00  0.00     0.088 N 
HETATM   22  C10 UNL     1      33.783  38.686  14.342  1.00  0.00     0.272 C 
HETATM   23  C11 UNL     1      33.350  39.890  15.117  1.00  0.00     0.032 C 
HETATM   24  C12 UNL     1      31.840  39.796  15.137  1.00  0.00     0.032 C 
HETATM   25  C13 UNL     1      31.639  38.282  15.108  1.00  0.00     0.272 C 
ENDBRANCH  20  21
ENDBRANCH  19  20
ENDBRANCH  18  19
ENDBRANCH  17  18
ENDBRANCH  16  17
ENDBRANCH  15  16
ENDBRANCH  14  15
ENDBRANCH   1  14
TORSDOF 13
ENDMDL
MODEL 2
REMARK VINA RESULT: -7.249568368      1.015      1.292
REMARK  13 active torsions:
REMARK  status: ('A' for Active; 'I' for Inactive)
REMARK    1  A    between atoms: C1_2  and  C2_3 
REMARK    2  A    between atoms: C1_2  and  O2_16 
REMARK    3  A    between atoms: C2_3  and  C3_4 
REMARK    4  A    between atoms: C3_4  and  C4_5 
REMARK    5  A    between atoms: C4_5  and  C5_6 
REMARK    6  A    between atoms: C5_6  and  C6_7 
REMARK    7  A    between atoms: C6_7  and  C7_8 
REMARK    8  A    between atoms: C7_8  and  C8_9 
REMARK    9  A    between atoms: C8_9  and  C9_10 
REMARK   10  A    between atoms: C9_10  and  N1_11 
REMARK   11  A    between atoms: O2_16  and  C14_17 
REMARK   12  A    between atoms: C14_17  and  C15_18 
REMARK   13  A    between atoms: C15_18  and  N2_19 
ROOT
HETATM    1  C2  UNL     1      28.470  30.649  14.853  1.00  0.00     0.111 C 
ENDROOT
BRANCH   1   2
HETATM    2  C1  UNL     1      28.694  29.730  13.714  1.00  0.00     0.259 C 
HETATM    3  O1  UNL     1      27.715  29.445  12.987  1.00  0.00    -0.265 OA
BRANCH   2   4
HETATM    4  O2  UNL     1      29.971  29.193  13.453  1.00  0.00    -0.316 OA
BRANCH   4   5
HETATM    5  C14 UNL     1      30.398  28.079  14.155  1.00  0.00     0.223 C 
BRANCH   5   6
HETATM    6  C15 UNL     1      31.324  28.360  15.264  1.00  0.00     0.084 C 
BRANCH   6   7
HETATM    7  N2  UNL     1      30.853  28.488  16.575  1.00  0.00    -0.391 N 
HETATM    8  C16 UNL     1      31.667  28.520  17.702  1.00  0.00     0.122 C 
HETATM    9  C17 UNL     1      31.173  29.693  18.582  1.00  0.00     0.020 C 
HETATM   10  C18 UNL     1      29.693  29.818  18.325  1.00  0.00     0.002 C 
HETATM   11  C19 UNL     1      29.032  28.603  18.942  1.00  0.00     0.002 C 
HETATM   12  C20 UNL     1      29.256  27.363  18.105  1.00  0.00     0.020 C 
HETATM   13  C21 UNL     1      29.665  27.660  16.710  1.00  0.00     0.122 C 
ENDBRANCH   6   7
ENDBRANCH   5   6
ENDBRANCH   4   5
ENDBRANCH   2   4
ENDBRANCH   1   2
BRANCH   1  14
HETATM   14  C3  UNL     1      29.154  32.007  14.671  1.00  0.00     0.013 C 
BRANCH  14  15
HETATM   15  C4  UNL     1      30.470  32.046  15.381  1.00  0.00     0.027 C 
BRANCH  15  16
HETATM   16  C5  UNL     1      31.359  33.183  15.174  1.00  0.00    -0.031 C 
BRANCH  16  17
HETATM   17  C6  UNL     1      31.041  34.359  14.391  1.00  0.00    -0.031 C 
BRANCH  17  18
HETATM   18  C7  UNL     1      31.662  34.663  13.101  1.00  0.00     0.028 C 
BRANCH  18  19
HETATM   19  C8  UNL     1      32.177  36.110  13.068  1.00  0.00     0.034 C 
BRANCH  19  20
HETATM   20  C9  UNL     1      32.431  36.678  14.422  1.00  0.00     0.272 C 
BRANCH  20  21
HETATM   21  N1  UNL     1      32.478  38.142  14.244  1.00  0.00     0.088 N 
HETATM   22  C10 UNL     1      33.821  38.631  14.514  1.00  0.00     0.272 C 
HETATM   23  C11 UNL     1      33.667  39.924  15.248  1.00  0.00     0.032 C 
HETATM   24  C12 UNL     1      32.181  40.203  15.204  1.00  0.00     0.032 C 
HETATM   25  C13 UNL     1      31.616  38.783  15.191  1.00  0.00     0.272 C 
ENDBRANCH  20  21
ENDBRANCH  19  20
ENDBRANCH  18  19
ENDBRANCH  17  18
ENDBRANCH  16  17
ENDBRANCH  15  16
ENDBRANCH  14  15
ENDBRANCH   1  14
TORSDOF 13
ENDMDL
MODEL 3
REMARK VINA RESULT: -7.145773824      4.708      9.769
REMARK  13 active torsions:
REMARK  status: ('A' for Active; 'I' for Inactive)
REMARK    1  A    between atoms: C1_2  and  C2_3 
REMARK    2  A    between atoms: C1_2  and  O2_16 
REMARK    3  A    between atoms: C2_3  and  C3_4 
REMARK    4  A    between atoms: C3_4  and  C4_5 
REMARK    5  A    between atoms: C4_5  and  C5_6 
REMARK    6  A    between atoms: C5_6  and  C6_7 
REMARK    7  A    between atoms: C6_7  and  C7_8 
REMARK    8  A    between atoms: C7_8  and  C8_9 
REMARK    9  A    between atoms: C8_9  and  C9_10 
REMARK   10  A    between atoms: C9_10  and  N1_11 
REMARK   11  A    between atoms: O2_16  and  C14_17 
REMARK   12  A    between atoms: C14_17  and  C15_18 
REMARK   13  A    between atoms: C15_18  and  N2_19 
ROOT
HETATM    1  C2  UNL     1      30.779  27.368  19.337  1.00  0.00     0.111 C 
ENDROOT
BRANCH   1   2
HETATM    2  C1  UNL     1      31.354  28.728  19.233  1.00  0.00     0.259 C 
HETATM    3  O1  UNL     1      32.599  28.846  19.293  1.00  0.00    -0.265 OA
BRANCH   2   4
HETATM    4  O2  UNL     1      30.526  29.857  19.070  1.00  0.00    -0.316 OA
BRANCH   4   5
HETATM    5  C14 UNL     1      29.857  30.044  17.873  1.00  0.00     0.223 C 
BRANCH   5   6
HETATM    6  C15 UNL     1      30.673  30.603  16.784  1.00  0.00     0.084 C 
BRANCH   6   7
HETATM    7  N2  UNL     1      30.560  30.112  15.479  1.00  0.00    -0.391 N 
HETATM    8  C16 UNL     1      31.096  30.734  14.357  1.00  0.00     0.122 C 
HETATM    9  C17 UNL     1      31.809  29.638  13.530  1.00  0.00     0.020 C 
HETATM   10  C18 UNL     1      31.056  28.358  13.789  1.00  0.00     0.002 C 
HETATM   11  C19 UNL     1      29.707  28.495  13.115  1.00  0.00     0.002 C 
HETATM   12  C20 UNL     1      28.785  29.407  13.894  1.00  0.00     0.020 C 
HETATM   13  C21 UNL     1      29.208  29.607  15.303  1.00  0.00     0.122 C 
ENDBRANCH   6   7
ENDBRANCH   5   6
ENDBRANCH   4   5
ENDBRANCH   2   4
ENDBRANCH   1   2
BRANCH   1  14
HETATM   14  C3  UNL     1      31.415  26.372  18.362  1.00  0.00     0.013 C 
BRANCH  14  15
HETATM   15  C4  UNL     1      30.952  26.622  16.961  1.00  0.00     0.027 C 
BRANCH  15  16
HETATM   16  C5  UNL     1      30.152  25.608  16.283  1.00  0.00    -0.031 C 
BRANCH  16  17
HETATM   17  C6  UNL     1      28.767  25.766  15.888  1.00  0.00    -0.031 C 
BRANCH  17  18
HETATM   18  C7  UNL     1      27.783  26.511  16.674  1.00  0.00     0.028 C 
BRANCH  18  19
HETATM   19  C8  UNL     1      27.559  25.851  18.043  1.00  0.00     0.034 C 
BRANCH  19  20
HETATM   20  C9  UNL     1      26.804  24.569  17.964  1.00  0.00     0.272 C 
BRANCH  20  21
HETATM   21  N1  UNL     1      25.538  24.886  17.276  1.00  0.00     0.088 N 
HETATM   22  C10 UNL     1      24.464  25.014  18.248  1.00  0.00     0.272 C 
HETATM   23  C11 UNL     1      23.253  24.387  17.635  1.00  0.00     0.032 C 
HETATM   24  C12 UNL     1      23.674  24.077  16.215  1.00  0.00     0.032 C 
HETATM   25  C13 UNL     1      25.167  23.814  16.402  1.00  0.00     0.272 C 
ENDBRANCH  20  21
ENDBRANCH  19  20
ENDBRANCH  18  19
ENDBRANCH  17  18
ENDBRANCH  16  17
ENDBRANCH  15  16
ENDBRANCH  14  15
ENDBRANCH   1  14
TORSDOF 13
ENDMDL
MODEL 4
REMARK VINA RESULT: -7.070575468      1.367      2.542
REMARK  13 active torsions:
REMARK  status: ('A' for Active; 'I' for Inactive)
REMARK    1  A    between atoms: C1_2  and  C2_3 
REMARK    2  A    between atoms: C1_2  and  O2_16 
REMARK    3  A    between atoms: C2_3  and  C3_4 
REMARK    4  A    between atoms: C3_4  and  C4_5 
REMARK    5  A    between atoms: C4_5  and  C5_6 
REMARK    6  A    between atoms: C5_6  and  C6_7 
REMARK    7  A    between atoms: C6_7  and  C7_8 
REMARK    8  A    between atoms: C7_8  and  C8_9 
REMARK    9  A    between atoms: C8_9  and  C9_10 
REMARK   10  A    between atoms: C9_10  and  N1_11 
REMARK   11  A    between atoms: O2_16  and  C14_17 
REMARK   12  A    between atoms: C14_17  and  C15_18 
REMARK   13  A    between atoms: C15_18  and  N2_19 
ROOT
HETATM    1  C2  UNL     1      31.421  32.158  15.468  1.00  0.00     0.111 C 
ENDROOT
BRANCH   1   2
HETATM    2  C1  UNL     1      29.981  31.822  15.403  1.00  0.00     0.259 C 
HETATM    3  O1  UNL     1      29.220  32.608  14.793  1.00  0.00    -0.265 OA
BRANCH   2   4
HETATM    4  O2  UNL     1      29.479  30.651  16.007  1.00  0.00    -0.316 OA
BRANCH   4   5
HETATM    5  C14 UNL     1      29.974  30.253  17.237  1.00  0.00     0.223 C 
BRANCH   5   6
HETATM    6  C15 UNL     1      29.183  29.218  17.920  1.00  0.00     0.084 C 
BRANCH   6   7
HETATM    7  N2  UNL     1      29.159  27.903  17.444  1.00  0.00    -0.391 N 
HETATM    8  C16 UNL     1      28.309  26.910  17.920  1.00  0.00     0.122 C 
HETATM    9  C17 UNL     1      27.707  26.201  16.684  1.00  0.00     0.020 C 
HETATM   10  C18 UNL     1      28.749  26.290  15.598  1.00  0.00     0.002 C 
HETATM   11  C19 UNL     1      29.893  25.387  16.008  1.00  0.00     0.002 C 
HETATM   12  C20 UNL     1      30.726  26.008  17.107  1.00  0.00     0.020 C 
HETATM   13  C21 UNL     1      30.533  27.474  17.236  1.00  0.00     0.122 C 
ENDBRANCH   6   7
ENDBRANCH   5   6
ENDBRANCH   4   5
ENDBRANCH   2   4
ENDBRANCH   1   2
BRANCH   1  14
HETATM   14  C3  UNL     1      32.191  31.740  14.211  1.00  0.00     0.013 C 
BRANCH  14  15
HETATM   15  C4  UNL     1      32.931  32.901  13.624  1.00  0.00     0.027 C 
BRANCH  15  16
HETATM   16  C5  UNL     1      32.216  33.845  12.772  1.00  0.00    -0.031 C 
BRANCH  16  17
HETATM   17  C6  UNL     1      31.711  35.134  13.196  1.00  0.00    -0.031 C 
BRANCH  17  18
HETATM   18  C7  UNL     1      32.347  35.950  14.232  1.00  0.00     0.028 C 
BRANCH  18  19
HETATM   19  C8  UNL     1      32.604  37.377  13.726  1.00  0.00     0.034 C 
BRANCH  19  20
HETATM   20  C9  UNL     1      33.698  38.075  14.458  1.00  0.00     0.272 C 
BRANCH  20  21
HETATM   21  N1  UNL     1      33.268  39.480  14.586  1.00  0.00     0.088 N 
HETATM   22  C10 UNL     1      34.067  40.153  15.598  1.00  0.00     0.272 C 
HETATM   23  C11 UNL     1      33.137  41.048  16.353  1.00  0.00     0.032 C 
HETATM   24  C12 UNL     1      31.836  40.966  15.585  1.00  0.00     0.032 C 
HETATM   25  C13 UNL     1      31.909  39.542  15.035  1.00  0.00     0.272 C 
ENDBRANCH  20  21
ENDBRANCH  19  20
ENDBRANCH  18  19
ENDBRANCH  17  18
ENDBRANCH  16  17
ENDBRANCH  15  16
ENDBRANCH  14  15
ENDBRANCH   1  14
TORSDOF 13
ENDMDL
MODEL 5
REMARK VINA RESULT: -7.063840520      1.641      2.327
REMARK  13 active torsions:
REMARK  status: ('A' for Active; 'I' for Inactive)
REMARK    1  A    between atoms: C1_2  and  C2_3 
REMARK    2  A    between atoms: C1_2  and  O2_16 
REMARK    3  A    between atoms: C2_3  and  C3_4 
REMARK    4  A    between atoms: C3_4  and  C4_5 
REMARK    5  A    between atoms: C4_5  and  C5_6 
REMARK    6  A    between atoms: C5_6  and  C6_7 
REMARK    7  A    between atoms: C6_7  and  C7_8 
REMARK    8  A    between atoms: C7_8  and  C8_9 
REMARK    9  A    between atoms: C8_9  and  C9_10 
REMARK   10  A    between atoms: C9_10  and  N1_11 
REMARK   11  A    between atoms: O2_16  and  C14_17 
REMARK   12  A    between atoms: C14_17  and  C15_18 
REMARK   13  A    between atoms: C15_18  and  N2_19 
ROOT
HETATM    1  C2  UNL     1      31.692  28.716  14.051  1.00  0.00     0.111 C 
ENDROOT
BRANCH   1   2
HETATM    2  C1  UNL     1      30.343  28.167  13.783  1.00  0.00     0.259 C 
HETATM    3  O1  UNL     1      29.657  28.704  12.884  1.00  0.00    -0.265 OA
BRANCH   2   4
HETATM    4  O2  UNL     1      29.845  27.071  14.517  1.00  0.00    -0.316 OA
BRANCH   4   5
HETATM    5  C14 UNL     1      28.615  27.172  15.144  1.00  0.00     0.223 C 
BRANCH   5   6
HETATM    6  C15 UNL     1      28.651  27.043  16.609  1.00  0.00     0.084 C 
BRANCH   6   7
HETATM    7  N2  UNL     1      29.696  27.602  17.353  1.00  0.00    -0.391 N 
HETATM    8  C16 UNL     1      30.234  27.032  18.501  1.00  0.00     0.122 C 
HETATM    9  C17 UNL     1      31.773  27.095  18.357  1.00  0.00     0.020 C 
HETATM   10  C18 UNL     1      32.069  28.319  17.528  1.00  0.00     0.002 C 
HETATM   11  C19 UNL     1      31.739  29.524  18.384  1.00  0.00     0.002 C 
HETATM   12  C20 UNL     1      30.245  29.737  18.492  1.00  0.00     0.020 C 
HETATM   13  C21 UNL     1      29.472  29.036  17.437  1.00  0.00     0.122 C 
ENDBRANCH   6   7
ENDBRANCH   5   6
ENDBRANCH   4   5
ENDBRANCH   2   4
ENDBRANCH   1   2
BRANCH   1  14
HETATM   14  C3  UNL     1      31.796  30.216  13.759  1.00  0.00     0.013 C 
BRANCH  14  15
HETATM   15  C4  UNL     1      33.047  30.530  12.999  1.00  0.00     0.027 C 
BRANCH  15  16
HETATM   16  C5  UNL     1      33.476  31.918  12.875  1.00  0.00    -0.031 C 
BRANCH  16  17
HETATM   17  C6  UNL     1      32.860  33.045  13.545  1.00  0.00    -0.031 C 
BRANCH  17  18
HETATM   18  C7  UNL     1      32.122  34.096  12.844  1.00  0.00     0.028 C 
BRANCH  18  19
HETATM   19  C8  UNL     1      31.145  34.807  13.792  1.00  0.00     0.034 C 
BRANCH  19  20
HETATM   20  C9  UNL     1      31.825  35.589  14.863  1.00  0.00     0.272 C 
BRANCH  20  21
HETATM   21  N1  UNL     1      32.141  36.901  14.268  1.00  0.00     0.088 N 
HETATM   22  C10 UNL     1      33.578  37.126  14.297  1.00  0.00     0.272 C 
HETATM   23  C11 UNL     1      33.780  38.568  14.636  1.00  0.00     0.032 C 
HETATM   24  C12 UNL     1      32.386  39.155  14.610  1.00  0.00     0.032 C 
HETATM   25  C13 UNL     1      31.552  37.951  15.044  1.00  0.00     0.272 C 
ENDBRANCH  20  21
ENDBRANCH  19  20
ENDBRANCH  18  19
ENDBRANCH  17  18
ENDBRANCH  16  17
ENDBRANCH  15  16
ENDBRANCH  14  15
ENDBRANCH   1  14
TORSDOF 13
ENDMDL
