MODEL 1
REMARK VINA RESULT: -6.475773199      0.000      0.000
REMARK  5 active torsions:
REMARK  status: ('A' for Active; 'I' for Inactive)
REMARK    1  A    between atoms: N2_6  and  C5_7 
REMARK    2  A    between atoms: C5_7  and  C6_8 
REMARK    3  A    between atoms: C6_8  and  C7_9 
REMARK    4  A    between atoms: C7_9  and  C8_10 
REMARK    5  A    between atoms: C8_10  and  N3_11 
REMARK       I    between atoms: N3_11  and  C9_13 
REMARK       I    between atoms: C9_13  and  N5_17 
ROOT
HETATM    1  N3  UNL     1       6.190 -10.404  17.884  1.00  0.00    -0.226 N 
ATOM      2  H3  UNL     1       5.841 -11.129  17.258  1.00  0.00     0.177 HD
HETATM    3  C9  UNL     1       6.940 -10.785  19.024  1.00  0.00     0.680 C 
HETATM    4  N4  UNL     1       7.934 -11.622  18.909  1.00  0.00    -0.234 N 
ATOM      5  H41 UNL     1       8.474 -11.897  19.730  1.00  0.00     0.174 HD
ATOM      6  H42 UNL     1       8.156 -11.993  17.986  1.00  0.00     0.174 HD
HETATM    7  N5  UNL     1       6.633 -10.272  20.300  1.00  0.00    -0.127 N 
ATOM      8  H5  UNL     1       7.384 -10.025  20.944  1.00  0.00     0.197 HD
HETATM    9  C10 UNL     1       5.298 -10.102  20.686  1.00  0.00     0.196 C 
HETATM   10  N6  UNL     1       4.195  -9.949  20.995  1.00  0.00    -0.171 NA
ENDROOT
BRANCH   1  11
HETATM   11  C8  UNL     1       5.902  -9.005  17.579  1.00  0.00     0.138 C 
BRANCH  11  12
HETATM   12  C7  UNL     1       4.419  -8.798  17.378  1.00  0.00     0.022 C 
BRANCH  12  13
HETATM   13  C6  UNL     1       3.981  -9.090  15.968  1.00  0.00     0.032 C 
BRANCH  13  14
HETATM   14  C5  UNL     1       5.080  -8.582  15.055  1.00  0.00     0.275 C 
BRANCH  14  15
HETATM   15  N2  UNL     1       5.114  -9.281  13.797  1.00  0.00     0.116 N 
HETATM   16  C4  UNL     1       5.590 -10.647  13.933  1.00  0.00     0.302 C 
HETATM   17  C3  UNL     1       6.109 -10.929  12.534  1.00  0.00     0.269 C 
HETATM   18  N1  UNL     1       6.165  -9.647  11.856  1.00  0.00    -0.047 N 
HETATM   19  C1  UNL     1       7.343  -9.521  11.032  1.00  0.00     0.274 C 
HETATM   20  C2  UNL     1       4.947  -9.372  11.103  1.00  0.00     0.274 C 
HETATM   21  C11 UNL     1       6.173  -8.722  12.972  1.00  0.00     0.506 C 
ENDBRANCH  14  15
ENDBRANCH  13  14
ENDBRANCH  12  13
ENDBRANCH  11  12
ENDBRANCH   1  11
TORSDOF 5
ENDMDL
MODEL 2
REMARK VINA RESULT: -6.443638513      0.853      1.428
REMARK  5 active torsions:
REMARK  status: ('A' for Active; 'I' for Inactive)
REMARK    1  A    between atoms: N2_6  and  C5_7 
REMARK    2  A    between atoms: C5_7  and  C6_8 
REMARK    3  A    between atoms: C6_8  and  C7_9 
REMARK    4  A    between atoms: C7_9  and  C8_10 
REMARK    5  A    between atoms: C8_10  and  N3_11 
REMARK       I    between atoms: N3_11  and  C9_13 
REMARK       I    between atoms: C9_13  and  N5_17 
ROOT
HETATM    1  N3  UNL     1       5.946 -10.382  17.744  1.00  0.00    -0.226 N 
ATOM      2  H3  UNL     1       5.671 -11.207  17.210  1.00  0.00     0.177 HD
HETATM    3  C9  UNL     1       6.789 -10.543  18.871  1.00  0.00     0.680 C 
HETATM    4  N4  UNL     1       7.880 -11.252  18.781  1.00  0.00    -0.234 N 
ATOM      5  H41 UNL     1       8.487 -11.368  19.593  1.00  0.00     0.174 HD
ATOM      6  H42 UNL     1       8.110 -11.684  17.887  1.00  0.00     0.174 HD
HETATM    7  N5  UNL     1       6.470  -9.946  20.107  1.00  0.00    -0.127 N 
ATOM      8  H5  UNL     1       7.208  -9.539  20.680  1.00  0.00     0.197 HD
HETATM    9  C10 UNL     1       5.142  -9.911  20.549  1.00  0.00     0.196 C 
HETATM   10  N6  UNL     1       4.043  -9.872  20.903  1.00  0.00    -0.171 NA
ENDROOT
BRANCH   1  11
HETATM   11  C8  UNL     1       5.459  -9.072  17.322  1.00  0.00     0.138 C 
BRANCH  11  12
HETATM   12  C7  UNL     1       4.112  -9.195  16.648  1.00  0.00     0.022 C 
BRANCH  12  13
HETATM   13  C6  UNL     1       4.150  -8.787  15.200  1.00  0.00     0.032 C 
BRANCH  13  14
HETATM   14  C5  UNL     1       4.722  -9.962  14.431  1.00  0.00     0.275 C 
BRANCH  14  15
HETATM   15  N2  UNL     1       5.768  -9.566  13.524  1.00  0.00     0.116 N 
HETATM   16  C4  UNL     1       6.300  -8.250  13.831  1.00  0.00     0.302 C 
HETATM   17  C3  UNL     1       6.861  -7.826  12.486  1.00  0.00     0.269 C 
HETATM   18  N1  UNL     1       6.335  -8.766  11.513  1.00  0.00    -0.047 N 
HETATM   19  C1  UNL     1       5.965  -8.118  10.278  1.00  0.00     0.274 C 
HETATM   20  C2  UNL     1       7.244  -9.884  11.285  1.00  0.00     0.274 C 
HETATM   21  C11 UNL     1       5.189  -9.308  12.215  1.00  0.00     0.506 C 
ENDBRANCH  14  15
ENDBRANCH  13  14
ENDBRANCH  12  13
ENDBRANCH  11  12
ENDBRANCH   1  11
TORSDOF 5
ENDMDL
MODEL 3
REMARK VINA RESULT: -6.319476147      0.727      1.377
REMARK  5 active torsions:
REMARK  status: ('A' for Active; 'I' for Inactive)
REMARK    1  A    between atoms: N2_6  and  C5_7 
REMARK    2  A    between atoms: C5_7  and  C6_8 
REMARK    3  A    between atoms: C6_8  and  C7_9 
REMARK    4  A    between atoms: C7_9  and  C8_10 
REMARK    5  A    between atoms: C8_10  and  N3_11 
REMARK       I    between atoms: N3_11  and  C9_13 
REMARK       I    between atoms: C9_13  and  N5_17 
ROOT
HETATM    1  N3  UNL     1       6.028 -10.386  17.886  1.00  0.00    -0.226 N 
ATOM      2  H3  UNL     1       5.740 -11.178  17.311  1.00  0.00     0.177 HD
HETATM    3  C9  UNL     1       6.859 -10.619  19.009  1.00  0.00     0.680 C 
HETATM    4  N4  UNL     1       7.936 -11.345  18.892  1.00  0.00    -0.234 N 
ATOM      5  H41 UNL     1       8.535 -11.513  19.701  1.00  0.00     0.174 HD
ATOM      6  H42 UNL     1       8.165 -11.737  17.978  1.00  0.00     0.174 HD
HETATM    7  N5  UNL     1       6.543 -10.078  20.271  1.00  0.00    -0.127 N 
ATOM      8  H5  UNL     1       7.285  -9.714  20.869  1.00  0.00     0.197 HD
HETATM    9  C10 UNL     1       5.213 -10.038  20.706  1.00  0.00     0.196 C 
HETATM   10  N6  UNL     1       4.112  -9.994  21.055  1.00  0.00    -0.171 NA
ENDROOT
BRANCH   1  11
HETATM   11  C8  UNL     1       5.570  -9.046  17.526  1.00  0.00     0.138 C 
BRANCH  11  12
HETATM   12  C7  UNL     1       4.165  -9.094  16.972  1.00  0.00     0.022 C 
BRANCH  12  13
HETATM   13  C6  UNL     1       4.105  -8.718  15.516  1.00  0.00     0.032 C 
BRANCH  13  14
HETATM   14  C5  UNL     1       5.508  -8.308  15.113  1.00  0.00     0.275 C 
BRANCH  14  15
HETATM   15  N2  UNL     1       5.946  -8.965  13.910  1.00  0.00     0.116 N 
HETATM   16  C4  UNL     1       6.678  -8.075  13.025  1.00  0.00     0.302 C 
HETATM   17  C3  UNL     1       6.478  -8.749  11.680  1.00  0.00     0.269 C 
HETATM   18  N1  UNL     1       5.433  -9.738  11.873  1.00  0.00    -0.047 N 
HETATM   19  C1  UNL     1       4.527  -9.795  10.753  1.00  0.00     0.274 C 
HETATM   20  C2  UNL     1       5.977 -11.053  12.196  1.00  0.00     0.274 C 
HETATM   21  C11 UNL     1       4.789  -9.255  13.078  1.00  0.00     0.506 C 
ENDBRANCH  14  15
ENDBRANCH  13  14
ENDBRANCH  12  13
ENDBRANCH  11  12
ENDBRANCH   1  11
TORSDOF 5
ENDMDL
MODEL 4
REMARK VINA RESULT: -6.058348209      1.135      1.162
REMARK  5 active torsions:
REMARK  status: ('A' for Active; 'I' for Inactive)
REMARK    1  A    between atoms: N2_6  and  C5_7 
REMARK    2  A    between atoms: C5_7  and  C6_8 
REMARK    3  A    between atoms: C6_8  and  C7_9 
REMARK    4  A    between atoms: C7_9  and  C8_10 
REMARK    5  A    between atoms: C8_10  and  N3_11 
REMARK       I    between atoms: N3_11  and  C9_13 
REMARK       I    between atoms: C9_13  and  N5_17 
ROOT
HETATM    1  N3  UNL     1       5.643 -11.114  18.445  1.00  0.00    -0.226 N 
ATOM      2  H3  UNL     1       5.151 -11.391  17.595  1.00  0.00     0.177 HD
HETATM    3  C9  UNL     1       5.696 -12.021  19.533  1.00  0.00     0.680 C 
HETATM    4  N4  UNL     1       6.051 -13.261  19.340  1.00  0.00    -0.234 N 
ATOM      5  H41 UNL     1       6.089 -13.914  20.123  1.00  0.00     0.174 HD
ATOM      6  H42 UNL     1       6.288 -13.560  18.394  1.00  0.00     0.174 HD
HETATM    7  N5  UNL     1       5.368 -11.607  20.839  1.00  0.00    -0.127 N 
ATOM      8  H5  UNL     1       5.908 -11.951  21.633  1.00  0.00     0.197 HD
HETATM    9  C10 UNL     1       4.301 -10.725  21.050  1.00  0.00     0.196 C 
HETATM   10  N6  UNL     1       3.429  -9.986  21.219  1.00  0.00    -0.171 NA
ENDROOT
BRANCH   1  11
HETATM   11  C8  UNL     1       6.269  -9.797  18.504  1.00  0.00     0.138 C 
BRANCH  11  12
HETATM   12  C7  UNL     1       5.339  -8.740  17.958  1.00  0.00     0.022 C 
BRANCH  12  13
HETATM   13  C6  UNL     1       4.579  -9.208  16.746  1.00  0.00     0.032 C 
BRANCH  13  14
HETATM   14  C5  UNL     1       5.178  -8.490  15.552  1.00  0.00     0.275 C 
BRANCH  14  15
HETATM   15  N2  UNL     1       5.082  -9.266  14.343  1.00  0.00     0.116 N 
HETATM   16  C4  UNL     1       5.545 -10.632  14.521  1.00  0.00     0.302 C 
HETATM   17  C3  UNL     1       5.927 -11.012  13.101  1.00  0.00     0.269 C 
HETATM   18  N1  UNL     1       5.942  -9.776  12.341  1.00  0.00    -0.047 N 
HETATM   19  C1  UNL     1       7.039  -9.729  11.406  1.00  0.00     0.274 C 
HETATM   20  C2  UNL     1       4.664  -9.520  11.686  1.00  0.00     0.274 C 
HETATM   21  C11 UNL     1       6.070  -8.785  13.390  1.00  0.00     0.506 C 
ENDBRANCH  14  15
ENDBRANCH  13  14
ENDBRANCH  12  13
ENDBRANCH  11  12
ENDBRANCH   1  11
TORSDOF 5
ENDMDL
MODEL 5
REMARK VINA RESULT: -6.034893216      1.652      6.818
REMARK  5 active torsions:
REMARK  status: ('A' for Active; 'I' for Inactive)
REMARK    1  A    between atoms: N2_6  and  C5_7 
REMARK    2  A    between atoms: C5_7  and  C6_8 
REMARK    3  A    between atoms: C6_8  and  C7_9 
REMARK    4  A    between atoms: C7_9  and  C8_10 
REMARK    5  A    between atoms: C8_10  and  N3_11 
REMARK       I    between atoms: N3_11  and  C9_13 
REMARK       I    between atoms: C9_13  and  N5_17 
ROOT
HETATM    1  N3  UNL     1       5.933  -8.965  14.394  1.00  0.00    -0.226 N 
ATOM      2  H3  UNL     1       6.776  -8.464  14.111  1.00  0.00     0.177 HD
HETATM    3  C9  UNL     1       5.711 -10.271  13.893  1.00  0.00     0.680 C 
HETATM    4  N4  UNL     1       6.657 -11.167  13.947  1.00  0.00    -0.234 N 
ATOM      5  H41 UNL     1       6.496 -12.108  13.586  1.00  0.00     0.174 HD
ATOM      6  H42 UNL     1       7.554 -10.907  14.356  1.00  0.00     0.174 HD
HETATM    7  N5  UNL     1       4.471 -10.630  13.328  1.00  0.00    -0.127 N 
ATOM      8  H5  UNL     1       4.078 -11.554  13.509  1.00  0.00     0.197 HD
HETATM    9  C10 UNL     1       3.778  -9.722  12.518  1.00  0.00     0.196 C 
HETATM   10  N6  UNL     1       3.202  -8.964  11.863  1.00  0.00    -0.171 NA
ENDROOT
BRANCH   1  11
HETATM   11  C8  UNL     1       4.995  -8.313  15.304  1.00  0.00     0.138 C 
BRANCH  11  12
HETATM   12  C7  UNL     1       4.877  -9.089  16.594  1.00  0.00     0.022 C 
BRANCH  12  13
HETATM   13  C6  UNL     1       5.978  -8.765  17.567  1.00  0.00     0.032 C 
BRANCH  13  14
HETATM   14  C5  UNL     1       5.372  -8.846  18.954  1.00  0.00     0.275 C 
BRANCH  14  15
HETATM   15  N2  UNL     1       5.306 -10.198  19.445  1.00  0.00     0.116 N 
HETATM   16  C4  UNL     1       4.579 -10.299  20.699  1.00  0.00     0.302 C 
HETATM   17  C3  UNL     1       5.157 -11.575  21.285  1.00  0.00     0.269 C 
HETATM   18  N1  UNL     1       6.331 -11.889  20.491  1.00  0.00    -0.047 N 
HETATM   19  C1  UNL     1       7.418 -12.379  21.303  1.00  0.00     0.274 C 
HETATM   20  C2  UNL     1       6.023 -12.801  19.395  1.00  0.00     0.274 C 
HETATM   21  C11 UNL     1       6.630 -10.608  19.885  1.00  0.00     0.506 C 
ENDBRANCH  14  15
ENDBRANCH  13  14
ENDBRANCH  12  13
ENDBRANCH  11  12
ENDBRANCH   1  11
TORSDOF 5
ENDMDL
