MODEL 1
REMARK VINA RESULT: -6.232286738      0.000      0.000
REMARK  6 active torsions:
REMARK  status: ('A' for Active; 'I' for Inactive)
REMARK    1  A    between atoms: C3_6  and  N3_7 
REMARK    2  A    between atoms: N3_7  and  C4_9 
REMARK    3  A    between atoms: C4_9  and  C5_10 
REMARK    4  A    between atoms: C5_10  and  S1_11 
REMARK    5  A    between atoms: S1_11  and  C6_12 
REMARK    6  A    between atoms: C6_12  and  C7_13 
ROOT
HETATM    1  C4  UNL     1       5.606  -8.619  18.650  1.00  0.00     0.148 C 
ENDROOT
BRANCH   1   2
HETATM    2  N3  UNL     1       6.898  -9.300  18.574  1.00  0.00    -0.224 N 
ATOM      3  H3  UNL     1       7.634  -8.983  17.942  1.00  0.00     0.177 HD
BRANCH   2   4
HETATM    4  C3  UNL     1       7.061 -10.324  19.346  1.00  0.00     0.693 A 
HETATM    5  N2  UNL     1       6.981 -10.374  20.707  1.00  0.00    -0.185 N 
HETATM    6  C2  UNL     1       7.215 -11.622  21.143  1.00  0.00     0.217 A 
ATOM      7  H2  UNL     1       6.774  -9.576  21.308  1.00  0.00     0.185 HD
HETATM    8  N1  UNL     1       7.442 -12.358  20.042  1.00  0.00    -0.277 N 
HETATM    9  C1  UNL     1       7.743 -13.779  20.012  1.00  0.00     0.179 C 
HETATM   10  N5  UNL     1       7.349 -11.573  18.964  1.00  0.00    -0.130 N 
ATOM     11  H5  UNL     1       7.478 -11.879  18.000  1.00  0.00     0.206 HD
ENDBRANCH   2   4
ENDBRANCH   1   2
BRANCH   1  12
HETATM   12  C5  UNL     1       4.644  -9.178  17.599  1.00  0.00     0.094 C 
BRANCH  12  13
HETATM   13  S1  UNL     1       5.234  -8.618  16.002  1.00  0.00    -0.165 SA
BRANCH  13  14
HETATM   14  C6  UNL     1       4.471  -9.430  14.606  1.00  0.00     0.106 C 
BRANCH  14  15
HETATM   15  C7  UNL     1       5.258 -10.582  14.049  1.00  0.00     0.195 C 
HETATM   16  C8  UNL     1       4.774 -11.007  12.690  1.00  0.00     0.035 C 
HETATM   17  C9  UNL     1       5.183  -9.859  11.816  1.00  0.00     0.029 C 
HETATM   18  C10 UNL     1       6.481  -9.414  12.448  1.00  0.00     0.233 C 
HETATM   19  N4  UNL     1       6.592 -10.054  13.723  1.00  0.00    -0.070 N 
ATOM     20  H42 UNL     1       6.972  -9.444  14.447  1.00  0.00     0.277 HD
ATOM     21  H41 UNL     1       7.325 -10.762  13.756  1.00  0.00     0.277 HD
ENDBRANCH  14  15
ENDBRANCH  13  14
ENDBRANCH  12  13
ENDBRANCH   1  12
TORSDOF 6
ENDMDL
MODEL 2
REMARK VINA RESULT: -6.146096175      0.578      1.094
REMARK  6 active torsions:
REMARK  status: ('A' for Active; 'I' for Inactive)
REMARK    1  A    between atoms: C3_6  and  N3_7 
REMARK    2  A    between atoms: N3_7  and  C4_9 
REMARK    3  A    between atoms: C4_9  and  C5_10 
REMARK    4  A    between atoms: C5_10  and  S1_11 
REMARK    5  A    between atoms: S1_11  and  C6_12 
REMARK    6  A    between atoms: C6_12  and  C7_13 
ROOT
HETATM    1  C4  UNL     1       5.549  -8.557  18.650  1.00  0.00     0.148 C 
ENDROOT
BRANCH   1   2
HETATM    2  N3  UNL     1       6.892  -9.137  18.654  1.00  0.00    -0.224 N 
ATOM      3  H3  UNL     1       7.690  -8.640  18.259  1.00  0.00     0.177 HD
BRANCH   2   4
HETATM    4  C3  UNL     1       7.016 -10.309  19.184  1.00  0.00     0.693 A 
HETATM    5  N2  UNL     1       7.555 -11.432  18.629  1.00  0.00    -0.185 N 
HETATM    6  C2  UNL     1       7.501 -12.455  19.496  1.00  0.00     0.217 A 
ATOM      7  H2  UNL     1       7.944 -11.487  17.687  1.00  0.00     0.185 HD
HETATM    8  N1  UNL     1       6.922 -11.964  20.606  1.00  0.00    -0.277 N 
HETATM    9  C1  UNL     1       6.649 -12.704  21.825  1.00  0.00     0.179 C 
HETATM   10  N5  UNL     1       6.631 -10.673  20.413  1.00  0.00    -0.130 N 
ATOM     11  H5  UNL     1       6.186 -10.062  21.097  1.00  0.00     0.206 HD
ENDBRANCH   2   4
ENDBRANCH   1   2
BRANCH   1  12
HETATM   12  C5  UNL     1       4.678  -9.234  17.588  1.00  0.00     0.094 C 
BRANCH  12  13
HETATM   13  S1  UNL     1       5.206  -8.600  15.998  1.00  0.00    -0.165 SA
BRANCH  13  14
HETATM   14  C6  UNL     1       4.493  -9.440  14.593  1.00  0.00     0.106 C 
BRANCH  14  15
HETATM   15  C7  UNL     1       5.320 -10.576  14.060  1.00  0.00     0.195 C 
HETATM   16  C8  UNL     1       4.853 -11.044  12.709  1.00  0.00     0.035 C 
HETATM   17  C9  UNL     1       5.225  -9.901  11.813  1.00  0.00     0.029 C 
HETATM   18  C10 UNL     1       6.506  -9.399  12.438  1.00  0.00     0.233 C 
HETATM   19  N4  UNL     1       6.636 -10.009  13.726  1.00  0.00    -0.070 N 
ATOM     20  H42 UNL     1       6.993  -9.372  14.438  1.00  0.00     0.277 HD
ATOM     21  H41 UNL     1       7.392 -10.691  13.774  1.00  0.00     0.277 HD
ENDBRANCH  14  15
ENDBRANCH  13  14
ENDBRANCH  12  13
ENDBRANCH   1  12
TORSDOF 6
ENDMDL
MODEL 3
REMARK VINA RESULT: -6.106633877      1.236      1.352
REMARK  6 active torsions:
REMARK  status: ('A' for Active; 'I' for Inactive)
REMARK    1  A    between atoms: C3_6  and  N3_7 
REMARK    2  A    between atoms: N3_7  and  C4_9 
REMARK    3  A    between atoms: C4_9  and  C5_10 
REMARK    4  A    between atoms: C5_10  and  S1_11 
REMARK    5  A    between atoms: S1_11  and  C6_12 
REMARK    6  A    between atoms: C6_12  and  C7_13 
ROOT
HETATM    1  C4  UNL     1       5.365  -8.747  17.963  1.00  0.00     0.148 C 
ENDROOT
BRANCH   1   2
HETATM    2  N3  UNL     1       6.642  -9.240  18.480  1.00  0.00    -0.224 N 
ATOM      3  H3  UNL     1       7.462  -8.637  18.542  1.00  0.00     0.177 HD
BRANCH   2   4
HETATM    4  C3  UNL     1       6.678 -10.476  18.855  1.00  0.00     0.693 A 
HETATM    5  N2  UNL     1       7.771 -11.234  19.156  1.00  0.00    -0.185 N 
HETATM    6  C2  UNL     1       7.399 -12.476  19.503  1.00  0.00     0.217 A 
ATOM      7  H2  UNL     1       8.736 -10.903  19.123  1.00  0.00     0.185 HD
HETATM    8  N1  UNL     1       6.057 -12.493  19.417  1.00  0.00    -0.277 N 
HETATM    9  C1  UNL     1       5.198 -13.629  19.699  1.00  0.00     0.179 C 
HETATM   10  N5  UNL     1       5.629 -11.288  19.026  1.00  0.00    -0.130 N 
ATOM     11  H5  UNL     1       4.653 -11.029  18.882  1.00  0.00     0.206 HD
ENDBRANCH   2   4
ENDBRANCH   1   2
BRANCH   1  12
HETATM   12  C5  UNL     1       5.503  -8.346  16.492  1.00  0.00     0.094 C 
BRANCH  12  13
HETATM   13  S1  UNL     1       4.112  -9.065  15.622  1.00  0.00    -0.165 SA
BRANCH  13  14
HETATM   14  C6  UNL     1       4.464  -9.554  13.941  1.00  0.00     0.106 C 
BRANCH  14  15
HETATM   15  C7  UNL     1       5.822 -10.167  13.742  1.00  0.00     0.195 C 
HETATM   16  C8  UNL     1       5.921 -10.943  12.457  1.00  0.00     0.035 C 
HETATM   17  C9  UNL     1       5.874  -9.868  11.413  1.00  0.00     0.029 C 
HETATM   18  C10 UNL     1       6.603  -8.727  12.085  1.00  0.00     0.233 C 
HETATM   19  N4  UNL     1       6.744  -9.052  13.472  1.00  0.00    -0.070 N 
ATOM     20  H42 UNL     1       6.600  -8.252  14.089  1.00  0.00     0.277 HD
ATOM     21  H41 UNL     1       7.707  -9.251  13.743  1.00  0.00     0.277 HD
ENDBRANCH  14  15
ENDBRANCH  13  14
ENDBRANCH  12  13
ENDBRANCH   1  12
TORSDOF 6
ENDMDL
MODEL 4
REMARK VINA RESULT: -6.104559469      1.061      1.248
REMARK  6 active torsions:
REMARK  status: ('A' for Active; 'I' for Inactive)
REMARK    1  A    between atoms: C3_6  and  N3_7 
REMARK    2  A    between atoms: N3_7  and  C4_9 
REMARK    3  A    between atoms: C4_9  and  C5_10 
REMARK    4  A    between atoms: C5_10  and  S1_11 
REMARK    5  A    between atoms: S1_11  and  C6_12 
REMARK    6  A    between atoms: C6_12  and  C7_13 
ROOT
HETATM    1  C4  UNL     1       5.284  -8.753  17.476  1.00  0.00     0.148 C 
ENDROOT
BRANCH   1   2
HETATM    2  N3  UNL     1       6.580  -8.799  18.153  1.00  0.00    -0.224 N 
ATOM      3  H3  UNL     1       7.290  -8.083  18.000  1.00  0.00     0.177 HD
BRANCH   2   4
HETATM    4  C3  UNL     1       6.781  -9.794  18.953  1.00  0.00     0.693 A 
HETATM    5  N2  UNL     1       6.737  -9.801  20.317  1.00  0.00    -0.185 N 
HETATM    6  C2  UNL     1       7.004 -11.029  20.787  1.00  0.00     0.217 A 
ATOM      7  H2  UNL     1       6.530  -8.988  20.897  1.00  0.00     0.185 HD
HETATM    8  N1  UNL     1       7.217 -11.798  19.704  1.00  0.00    -0.277 N 
HETATM    9  C1  UNL     1       7.542 -13.213  19.712  1.00  0.00     0.179 C 
HETATM   10  N5  UNL     1       7.082 -11.050  18.604  1.00  0.00    -0.130 N 
ATOM     11  H5  UNL     1       7.192 -11.386  17.647  1.00  0.00     0.206 HD
ENDBRANCH   2   4
ENDBRANCH   1   2
BRANCH   1  12
HETATM   12  C5  UNL     1       5.463  -8.378  16.002  1.00  0.00     0.094 C 
BRANCH  12  13
HETATM   13  S1  UNL     1       5.019  -9.822  15.039  1.00  0.00    -0.165 SA
BRANCH  13  14
HETATM   14  C6  UNL     1       4.263  -9.456  13.464  1.00  0.00     0.106 C 
BRANCH  14  15
HETATM   15  C7  UNL     1       4.592 -10.433  12.371  1.00  0.00     0.195 C 
HETATM   16  C8  UNL     1       4.509  -9.816  11.002  1.00  0.00     0.035 C 
HETATM   17  C9  UNL     1       5.679  -8.879  10.986  1.00  0.00     0.029 C 
HETATM   18  C10 UNL     1       6.703  -9.620  11.815  1.00  0.00     0.233 C 
HETATM   19  N4  UNL     1       6.036 -10.700  12.476  1.00  0.00    -0.070 N 
ATOM     20  H42 UNL     1       6.351 -10.840  13.436  1.00  0.00     0.277 HD
ATOM     21  H41 UNL     1       6.302 -11.617  12.119  1.00  0.00     0.277 HD
ENDBRANCH  14  15
ENDBRANCH  13  14
ENDBRANCH  12  13
ENDBRANCH   1  12
TORSDOF 6
ENDMDL
MODEL 5
REMARK VINA RESULT: -6.099756337      1.061      1.208
REMARK  6 active torsions:
REMARK  status: ('A' for Active; 'I' for Inactive)
REMARK    1  A    between atoms: C3_6  and  N3_7 
REMARK    2  A    between atoms: N3_7  and  C4_9 
REMARK    3  A    between atoms: C4_9  and  C5_10 
REMARK    4  A    between atoms: C5_10  and  S1_11 
REMARK    5  A    between atoms: S1_11  and  C6_12 
REMARK    6  A    between atoms: C6_12  and  C7_13 
ROOT
HETATM    1  C4  UNL     1       5.483  -8.795  18.065  1.00  0.00     0.148 C 
ENDROOT
BRANCH   1   2
HETATM    2  N3  UNL     1       6.743  -9.356  18.553  1.00  0.00    -0.224 N 
ATOM      3  H3  UNL     1       7.615  -8.828  18.513  1.00  0.00     0.177 HD
BRANCH   2   4
HETATM    4  C3  UNL     1       6.696 -10.554  19.037  1.00  0.00     0.693 A 
HETATM    5  N2  UNL     1       5.836 -11.561  18.712  1.00  0.00    -0.185 N 
HETATM    6  C2  UNL     1       6.107 -12.659  19.436  1.00  0.00     0.217 A 
ATOM      7  H2  UNL     1       5.093 -11.491  18.017  1.00  0.00     0.185 HD
HETATM    8  N1  UNL     1       7.148 -12.332  20.221  1.00  0.00    -0.277 N 
HETATM    9  C1  UNL     1       7.798 -13.203  21.184  1.00  0.00     0.179 C 
HETATM   10  N5  UNL     1       7.499 -11.065  19.978  1.00  0.00    -0.130 N 
ATOM     11  H5  UNL     1       8.260 -10.566  20.438  1.00  0.00     0.206 HD
ENDBRANCH   2   4
ENDBRANCH   1   2
BRANCH   1  12
HETATM   12  C5  UNL     1       5.612  -8.392  16.593  1.00  0.00     0.094 C 
BRANCH  12  13
HETATM   13  S1  UNL     1       4.163  -9.025  15.750  1.00  0.00    -0.165 SA
BRANCH  13  14
HETATM   14  C6  UNL     1       4.447  -9.503  14.053  1.00  0.00     0.106 C 
BRANCH  14  15
HETATM   15  C7  UNL     1       5.758 -10.196  13.811  1.00  0.00     0.195 C 
HETATM   16  C8  UNL     1       5.775 -10.961  12.516  1.00  0.00     0.035 C 
HETATM   17  C9  UNL     1       5.769  -9.873  11.485  1.00  0.00     0.029 C 
HETATM   18  C10 UNL     1       6.584  -8.788  12.150  1.00  0.00     0.233 C 
HETATM   19  N4  UNL     1       6.740  -9.137  13.529  1.00  0.00    -0.070 N 
ATOM     20  H42 UNL     1       6.662  -8.338  14.157  1.00  0.00     0.277 HD
ATOM     21  H41 UNL     1       7.695  -9.399  13.772  1.00  0.00     0.277 HD
ENDBRANCH  14  15
ENDBRANCH  13  14
ENDBRANCH  12  13
ENDBRANCH   1  12
TORSDOF 6
ENDMDL
