MODEL 1
REMARK VINA RESULT: -9.630775348      0.000      0.000
REMARK  17 active torsions:
REMARK  status: ('A' for Active; 'I' for Inactive)
REMARK    1  A    between atoms: O1_2  and  C2_3 
REMARK       I    between atoms: C2_3  and  N1_5 
REMARK    2  A    between atoms: N1_5  and  N2_7 
REMARK    3  A    between atoms: N2_7  and  C3_8 
REMARK    4  A    between atoms: C3_8  and  O3_9 
REMARK    5  A    between atoms: C3_8  and  N3_11 
REMARK    6  A    between atoms: N3_11  and  N4_12 
REMARK    7  A    between atoms: N3_11  and  C6_16 
REMARK       I    between atoms: N4_12  and  C4_13 
REMARK    8  A    between atoms: C7_21  and  C8_22 
REMARK    9  A    between atoms: C8_22  and  C9_23 
REMARK   10  A    between atoms: C8_22  and  C20_48 
REMARK   11  A    between atoms: C9_23  and  N7_24 
REMARK   12  A    between atoms: C11_30  and  C12_31 
REMARK   13  A    between atoms: C12_31  and  O5_32 
REMARK   14  A    between atoms: C12_31  and  N10_34 
REMARK   15  A    between atoms: N10_34  and  C13_36 
REMARK   16  A    between atoms: C15_40  and  C16_41 
REMARK   17  A    between atoms: C20_48  and  O10_50 
ROOT
HETATM    1  C8  UNL     1      11.635  21.817   4.216  1.00  0.00     0.181 C 
ENDROOT
BRANCH   1   2
HETATM    2  C7  UNL     1      10.342  21.265   4.823  1.00  0.00     0.157 A 
HETATM    3  N6  UNL     1       9.144  21.111   4.319  1.00  0.00    -0.279 N 
HETATM    4  N5  UNL     1       8.374  20.576   5.299  1.00  0.00    -0.261 N 
ATOM      5  H6  UNL     1       8.847  21.348   3.372  1.00  0.00     0.189 HD
HETATM    6  C6  UNL     1       9.129  20.407   6.413  1.00  0.00     0.277 A 
ATOM      7  H5  UNL     1       7.386  20.339   5.212  1.00  0.00     0.190 HD
HETATM    8  O11 UNL     1      10.315  20.857   6.039  1.00  0.00    -0.261 OA
BRANCH   6   9
HETATM    9  N3  UNL     1       8.843  19.894   7.693  1.00  0.00    -0.137 N 
BRANCH   9  10
HETATM   10  C3  UNL     1       8.172  20.903   8.586  1.00  0.00     0.376 C 
BRANCH  10  11
HETATM   11  N2  UNL     1       7.901  20.202   9.857  1.00  0.00    -0.081 NA
BRANCH  11  12
HETATM   12  N1  UNL     1       6.622  19.777   9.992  1.00  0.00    -0.245 N 
HETATM   13  C2  UNL     1       6.367  18.710  10.911  1.00  0.00     0.376 C 
HETATM   14  O2  UNL     1       7.290  18.188  11.559  1.00  0.00    -0.237 OA
ATOM     15  H1  UNL     1       5.866  20.204   9.456  1.00  0.00     0.188 HD
BRANCH  13  16
HETATM   16  O1  UNL     1       5.068  18.268  11.057  1.00  0.00    -0.308 OA
HETATM   17  C1  UNL     1       4.470  17.407  10.070  1.00  0.00     0.215 C 
ENDBRANCH  13  16
ENDBRANCH  11  12
ENDBRANCH  10  11
BRANCH  10  18
HETATM   18  O3  UNL     1       6.926  21.229   8.082  1.00  0.00    -0.359 OA
ATOM     19  H3  UNL     1       7.027  22.100   7.716  1.00  0.00     0.213 HD
ENDBRANCH  10  18
ENDBRANCH   9  10
BRANCH   9  20
HETATM   20  N4  UNL     1       9.031  18.695   8.215  1.00  0.00    -0.278 NA
HETATM   21  C4  UNL     1       9.224  17.481   8.748  1.00  0.00     0.309 C 
HETATM   22  C5  UNL     1       8.706  16.253   7.869  1.00  0.00     0.137 C 
HETATM   23  O4  UNL     1       9.703  17.015   9.753  1.00  0.00    -0.256 OA
ENDBRANCH   9  20
ENDBRANCH   6   9
ENDBRANCH   1   2
BRANCH   1  24
HETATM   24  C9  UNL     1      12.483  20.703   3.777  1.00  0.00     0.162 C 
BRANCH  24  25
HETATM   25  N7  UNL     1      13.458  21.156   2.774  1.00  0.00    -0.296 N 
HETATM   26  S1  UNL     1      13.539  22.675   2.013  1.00  0.00     0.071 SA
HETATM   27  N8  UNL     1      14.841  22.463   1.071  1.00  0.00    -0.299 N 
HETATM   28  C10 UNL     1      15.248  21.224   1.321  1.00  0.00     0.155 A 
ATOM     29  H8  UNL     1      15.258  23.135   0.427  1.00  0.00     0.177 HD
HETATM   30  N9  UNL     1      16.422  20.750   0.601  1.00  0.00    -0.080 NA
HETATM   31  C11 UNL     1      14.516  20.498   2.242  1.00  0.00     0.135 A 
BRANCH  31  32
HETATM   32  C12 UNL     1      14.923  19.165   2.625  1.00  0.00     0.168 C 
BRANCH  32  33
HETATM   33  O5  UNL     1      16.173  19.038   2.987  1.00  0.00    -0.344 OA
ATOM     34  H5  UNL     1      16.560  18.184   2.834  1.00  0.00     0.219 HD
ENDBRANCH  32  33
BRANCH  32  35
HETATM   35  N10 UNL     1      14.258  17.920   2.715  1.00  0.00    -0.353 N 
ATOM     36  H10 UNL     1      13.324  17.803   3.110  1.00  0.00     0.162 HD
BRANCH  35  37
HETATM   37  C13 UNL     1      15.104  16.760   2.151  1.00  0.00     0.210 C 
HETATM   38  C14 UNL     1      14.895  16.522   0.782  1.00  0.00     0.251 C 
HETATM   39  O6  UNL     1      14.954  17.194  -0.325  1.00  0.00    -0.271 OA
HETATM   40  N11 UNL     1      14.571  15.165   0.995  1.00  0.00    -0.294 N 
HETATM   41  C15 UNL     1      14.428  13.814   0.545  1.00  0.00     0.112 C 
HETATM   42  C19 UNL     1      14.236  15.497   2.383  1.00  0.00     0.187 C 
HETATM   43  C17 UNL     1      14.869  12.787   1.235  1.00  0.00     0.020 C 
HETATM   44  C18 UNL     1      15.564  12.886   2.543  1.00  0.00     0.105 C 
HETATM   45  S2  UNL     1      15.080  14.328   3.491  1.00  0.00    -0.137 SA
BRANCH  41  46
HETATM   46  C16 UNL     1      13.783  13.566  -0.731  1.00  0.00     0.226 C 
HETATM   47  O7  UNL     1      14.171  14.166  -1.769  1.00  0.00    -0.643 OA
HETATM   48  O8  UNL     1      12.738  12.677  -0.814  1.00  0.00    -0.643 OA
ENDBRANCH  41  46
ENDBRANCH  35  37
ENDBRANCH  32  35
ENDBRANCH  31  32
ENDBRANCH  24  25
ENDBRANCH   1  24
BRANCH   1  49
HETATM   49  C20 UNL     1      12.250  22.523   5.418  1.00  0.00     0.272 C 
HETATM   50  O9  UNL     1      11.730  23.504   5.900  1.00  0.00    -0.264 OA
BRANCH  49  51
HETATM   51  O10 UNL     1      13.432  22.020   5.941  1.00  0.00    -0.326 OA
HETATM   52  C21 UNL     1      13.595  22.016   7.355  1.00  0.00     0.213 C 
ENDBRANCH  49  51
ENDBRANCH   1  49
TORSDOF 17
ENDMDL
MODEL 2
REMARK VINA RESULT: -9.447072249      2.296      3.017
REMARK  17 active torsions:
REMARK  status: ('A' for Active; 'I' for Inactive)
REMARK    1  A    between atoms: O1_2  and  C2_3 
REMARK       I    between atoms: C2_3  and  N1_5 
REMARK    2  A    between atoms: N1_5  and  N2_7 
REMARK    3  A    between atoms: N2_7  and  C3_8 
REMARK    4  A    between atoms: C3_8  and  O3_9 
REMARK    5  A    between atoms: C3_8  and  N3_11 
REMARK    6  A    between atoms: N3_11  and  N4_12 
REMARK    7  A    between atoms: N3_11  and  C6_16 
REMARK       I    between atoms: N4_12  and  C4_13 
REMARK    8  A    between atoms: C7_21  and  C8_22 
REMARK    9  A    between atoms: C8_22  and  C9_23 
REMARK   10  A    between atoms: C8_22  and  C20_48 
REMARK   11  A    between atoms: C9_23  and  N7_24 
REMARK   12  A    between atoms: C11_30  and  C12_31 
REMARK   13  A    between atoms: C12_31  and  O5_32 
REMARK   14  A    between atoms: C12_31  and  N10_34 
REMARK   15  A    between atoms: N10_34  and  C13_36 
REMARK   16  A    between atoms: C15_40  and  C16_41 
REMARK   17  A    between atoms: C20_48  and  O10_50 
ROOT
HETATM    1  C8  UNL     1      11.668  21.576   4.199  1.00  0.00     0.181 C 
ENDROOT
BRANCH   1   2
HETATM    2  C7  UNL     1      10.327  21.128   4.787  1.00  0.00     0.157 A 
HETATM    3  N6  UNL     1       9.110  21.180   4.308  1.00  0.00    -0.279 N 
HETATM    4  N5  UNL     1       8.298  20.643   5.252  1.00  0.00    -0.261 N 
ATOM      5  H6  UNL     1       8.827  21.552   3.401  1.00  0.00     0.189 HD
HETATM    6  C6  UNL     1       9.045  20.262   6.317  1.00  0.00     0.277 A 
ATOM      7  H5  UNL     1       7.286  20.541   5.173  1.00  0.00     0.190 HD
HETATM    8  O11 UNL     1      10.272  20.599   5.954  1.00  0.00    -0.261 OA
BRANCH   6   9
HETATM    9  N3  UNL     1       8.721  19.655   7.545  1.00  0.00    -0.137 N 
BRANCH   9  10
HETATM   10  C3  UNL     1       8.275  20.649   8.585  1.00  0.00     0.376 C 
BRANCH  10  11
HETATM   11  N2  UNL     1       7.895  19.854   9.769  1.00  0.00    -0.081 NA
BRANCH  11  12
HETATM   12  N1  UNL     1       6.560  19.681   9.914  1.00  0.00    -0.245 N 
HETATM   13  C2  UNL     1       6.111  18.552  10.672  1.00  0.00     0.376 C 
HETATM   14  O2  UNL     1       6.921  17.756  11.176  1.00  0.00    -0.237 OA
ATOM     15  H1  UNL     1       5.896  20.333   9.496  1.00  0.00     0.188 HD
BRANCH  13  16
HETATM   16  O1  UNL     1       4.753  18.365  10.826  1.00  0.00    -0.308 OA
HETATM   17  C1  UNL     1       4.056  17.369  10.054  1.00  0.00     0.215 C 
ENDBRANCH  13  16
ENDBRANCH  11  12
ENDBRANCH  10  11
BRANCH  10  18
HETATM   18  O3  UNL     1       7.108  21.269   8.179  1.00  0.00    -0.359 OA
ATOM     19  H3  UNL     1       7.017  22.023   8.750  1.00  0.00     0.213 HD
ENDBRANCH  10  18
ENDBRANCH   9  10
BRANCH   9  20
HETATM   20  N4  UNL     1       8.712  18.387   7.917  1.00  0.00    -0.278 NA
HETATM   21  C4  UNL     1       8.699  17.101   8.293  1.00  0.00     0.309 C 
HETATM   22  C5  UNL     1       9.708  16.718   9.470  1.00  0.00     0.137 C 
HETATM   23  O4  UNL     1       8.117  16.090   7.988  1.00  0.00    -0.256 OA
ENDBRANCH   9  20
ENDBRANCH   6   9
ENDBRANCH   1   2
BRANCH   1  24
HETATM   24  C9  UNL     1      12.501  20.399   3.929  1.00  0.00     0.162 C 
BRANCH  24  25
HETATM   25  N7  UNL     1      13.430  20.663   2.819  1.00  0.00    -0.296 N 
HETATM   26  S1  UNL     1      13.641  22.117   1.963  1.00  0.00     0.071 SA
HETATM   27  N8  UNL     1      14.810  21.680   0.926  1.00  0.00    -0.299 N 
HETATM   28  C10 UNL     1      15.069  20.411   1.216  1.00  0.00     0.155 A 
ATOM     29  H8  UNL     1      15.250  22.256   0.209  1.00  0.00     0.177 HD
HETATM   30  N9  UNL     1      16.096  19.744   0.429  1.00  0.00    -0.080 NA
HETATM   31  C11 UNL     1      14.336  19.840   2.240  1.00  0.00     0.135 A 
BRANCH  31  32
HETATM   32  C12 UNL     1      14.595  18.484   2.667  1.00  0.00     0.168 C 
BRANCH  32  33
HETATM   33  O5  UNL     1      13.938  17.553   2.025  1.00  0.00    -0.344 OA
ATOM     34  H5  UNL     1      14.459  17.004   1.450  1.00  0.00     0.219 HD
ENDBRANCH  32  33
BRANCH  32  35
HETATM   35  N10 UNL     1      15.433  17.903   3.647  1.00  0.00    -0.353 N 
ATOM     36  H10 UNL     1      15.879  18.431   4.397  1.00  0.00     0.162 HD
BRANCH  35  37
HETATM   37  C13 UNL     1      15.598  16.381   3.454  1.00  0.00     0.210 C 
HETATM   38  C14 UNL     1      15.441  15.640   4.637  1.00  0.00     0.251 C 
HETATM   39  O6  UNL     1      14.546  15.496   5.564  1.00  0.00    -0.271 OA
HETATM   40  N11 UNL     1      16.701  15.018   4.498  1.00  0.00    -0.294 N 
HETATM   41  C15 UNL     1      17.628  13.966   4.778  1.00  0.00     0.112 C 
HETATM   42  C19 UNL     1      17.116  16.127   3.634  1.00  0.00     0.187 C 
HETATM   43  C17 UNL     1      18.351  13.390   3.844  1.00  0.00     0.020 C 
HETATM   44  C18 UNL     1      18.300  13.743   2.403  1.00  0.00     0.105 C 
HETATM   45  S2  UNL     1      17.843  15.450   2.110  1.00  0.00    -0.137 SA
BRANCH  41  46
HETATM   46  C16 UNL     1      17.768  13.503   6.147  1.00  0.00     0.226 C 
HETATM   47  O7  UNL     1      18.894  13.156   6.592  1.00  0.00    -0.643 OA
HETATM   48  O8  UNL     1      16.666  13.434   6.967  1.00  0.00    -0.643 OA
ENDBRANCH  41  46
ENDBRANCH  35  37
ENDBRANCH  32  35
ENDBRANCH  31  32
ENDBRANCH  24  25
ENDBRANCH   1  24
BRANCH   1  49
HETATM   49  C20 UNL     1      12.241  22.390   5.352  1.00  0.00     0.272 C 
HETATM   50  O9  UNL     1      11.698  23.402   5.733  1.00  0.00    -0.264 OA
BRANCH  49  51
HETATM   51  O10 UNL     1      13.414  21.949   5.948  1.00  0.00    -0.326 OA
HETATM   52  C21 UNL     1      13.518  22.026   7.366  1.00  0.00     0.213 C 
ENDBRANCH  49  51
ENDBRANCH   1  49
TORSDOF 17
ENDMDL
MODEL 3
REMARK VINA RESULT: -9.314655666      3.960     10.900
REMARK  17 active torsions:
REMARK  status: ('A' for Active; 'I' for Inactive)
REMARK    1  A    between atoms: O1_2  and  C2_3 
REMARK       I    between atoms: C2_3  and  N1_5 
REMARK    2  A    between atoms: N1_5  and  N2_7 
REMARK    3  A    between atoms: N2_7  and  C3_8 
REMARK    4  A    between atoms: C3_8  and  O3_9 
REMARK    5  A    between atoms: C3_8  and  N3_11 
REMARK    6  A    between atoms: N3_11  and  N4_12 
REMARK    7  A    between atoms: N3_11  and  C6_16 
REMARK       I    between atoms: N4_12  and  C4_13 
REMARK    8  A    between atoms: C7_21  and  C8_22 
REMARK    9  A    between atoms: C8_22  and  C9_23 
REMARK   10  A    between atoms: C8_22  and  C20_48 
REMARK   11  A    between atoms: C9_23  and  N7_24 
REMARK   12  A    between atoms: C11_30  and  C12_31 
REMARK   13  A    between atoms: C12_31  and  O5_32 
REMARK   14  A    between atoms: C12_31  and  N10_34 
REMARK   15  A    between atoms: N10_34  and  C13_36 
REMARK   16  A    between atoms: C15_40  and  C16_41 
REMARK   17  A    between atoms: C20_48  and  O10_50 
ROOT
HETATM    1  C8  UNL     1      15.110  18.104   2.223  1.00  0.00     0.181 C 
ENDROOT
BRANCH   1   2
HETATM    2  C7  UNL     1      16.601  17.784   2.368  1.00  0.00     0.157 A 
HETATM    3  N6  UNL     1      17.286  16.703   2.094  1.00  0.00    -0.279 N 
HETATM    4  N5  UNL     1      18.576  16.968   2.418  1.00  0.00    -0.261 N 
ATOM      5  H6  UNL     1      16.920  15.831   1.712  1.00  0.00     0.189 HD
HETATM    6  C6  UNL     1      18.663  18.234   2.896  1.00  0.00     0.277 A 
ATOM      7  H5  UNL     1      19.355  16.318   2.318  1.00  0.00     0.190 HD
HETATM    8  O11 UNL     1      17.412  18.660   2.837  1.00  0.00    -0.261 OA
BRANCH   6   9
HETATM    9  N3  UNL     1      19.743  19.008   3.361  1.00  0.00    -0.137 N 
BRANCH   9  10
HETATM   10  C3  UNL     1      19.455  20.486   3.325  1.00  0.00     0.376 C 
BRANCH  10  11
HETATM   11  N2  UNL     1      20.240  21.025   2.198  1.00  0.00    -0.081 NA
BRANCH  11  12
HETATM   12  N1  UNL     1      20.220  22.376   2.105  1.00  0.00    -0.245 N 
HETATM   13  C2  UNL     1      21.416  23.087   2.440  1.00  0.00     0.376 C 
HETATM   14  O2  UNL     1      22.438  22.483   2.808  1.00  0.00    -0.237 OA
ATOM     15  H1  UNL     1      19.379  22.870   1.806  1.00  0.00     0.188 HD
BRANCH  13  16
HETATM   16  O1  UNL     1      21.407  24.463   2.349  1.00  0.00    -0.308 OA
HETATM   17  C1  UNL     1      22.591  25.227   2.646  1.00  0.00     0.215 C 
ENDBRANCH  13  16
ENDBRANCH  11  12
ENDBRANCH  10  11
BRANCH  10  18
HETATM   18  O3  UNL     1      19.976  21.098   4.451  1.00  0.00    -0.359 OA
ATOM     19  H3  UNL     1      20.635  20.496   4.777  1.00  0.00     0.213 HD
ENDBRANCH  10  18
ENDBRANCH   9  10
BRANCH   9  20
HETATM   20  N4  UNL     1      20.924  18.662   3.840  1.00  0.00    -0.278 NA
HETATM   21  C4  UNL     1      22.121  18.307   4.327  1.00  0.00     0.309 C 
HETATM   22  C5  UNL     1      22.973  19.485   4.987  1.00  0.00     0.137 C 
HETATM   23  O4  UNL     1      22.783  17.302   4.420  1.00  0.00    -0.256 OA
ENDBRANCH   9  20
ENDBRANCH   6   9
ENDBRANCH   1   2
BRANCH   1  24
HETATM   24  C9  UNL     1      14.714  19.066   3.258  1.00  0.00     0.162 C 
BRANCH  24  25
HETATM   25  N7  UNL     1      14.060  20.238   2.655  1.00  0.00    -0.296 N 
HETATM   26  S1  UNL     1      13.401  20.373   1.093  1.00  0.00     0.071 SA
HETATM   27  N8  UNL     1      12.854  21.899   1.137  1.00  0.00    -0.299 N 
HETATM   28  C10 UNL     1      13.159  22.340   2.351  1.00  0.00     0.155 A 
ATOM     29  H8  UNL     1      12.379  22.410   0.392  1.00  0.00     0.177 HD
HETATM   30  N9  UNL     1      12.783  23.707   2.679  1.00  0.00    -0.080 NA
HETATM   31  C11 UNL     1      13.811  21.456   3.192  1.00  0.00     0.135 A 
BRANCH  31  32
HETATM   32  C12 UNL     1      14.124  21.826   4.553  1.00  0.00     0.168 C 
BRANCH  32  33
HETATM   33  O5  UNL     1      15.138  22.640   4.698  1.00  0.00    -0.344 OA
ATOM     34  H5  UNL     1      15.826  22.339   5.282  1.00  0.00     0.219 HD
ENDBRANCH  32  33
BRANCH  32  35
HETATM   35  N10 UNL     1      13.564  21.513   5.814  1.00  0.00    -0.353 N 
ATOM     36  H10 UNL     1      14.048  20.972   6.531  1.00  0.00     0.162 HD
BRANCH  35  37
HETATM   37  C13 UNL     1      12.140  22.081   5.982  1.00  0.00     0.210 C 
HETATM   38  C14 UNL     1      11.665  22.035   7.303  1.00  0.00     0.251 C 
HETATM   39  O6  UNL     1      12.044  22.453   8.471  1.00  0.00    -0.271 OA
HETATM   40  N11 UNL     1      10.507  21.317   6.937  1.00  0.00    -0.294 N 
HETATM   41  C15 UNL     1       9.165  20.877   7.171  1.00  0.00     0.112 C 
HETATM   42  C19 UNL     1      11.205  20.871   5.728  1.00  0.00     0.187 C 
HETATM   43  C17 UNL     1       8.239  20.900   6.240  1.00  0.00     0.020 C 
HETATM   44  C18 UNL     1       8.453  21.379   4.851  1.00  0.00     0.105 C 
HETATM   45  S2  UNL     1      10.140  21.171   4.285  1.00  0.00    -0.137 SA
BRANCH  41  46
HETATM   46  C16 UNL     1       8.806  20.400   8.494  1.00  0.00     0.226 C 
HETATM   47  O7  UNL     1       8.566  21.216   9.423  1.00  0.00    -0.643 OA
HETATM   48  O8  UNL     1       8.733  19.050   8.743  1.00  0.00    -0.643 OA
ENDBRANCH  41  46
ENDBRANCH  35  37
ENDBRANCH  32  35
ENDBRANCH  31  32
ENDBRANCH  24  25
ENDBRANCH   1  24
BRANCH   1  49
HETATM   49  C20 UNL     1      14.485  16.740   2.485  1.00  0.00     0.272 C 
HETATM   50  O9  UNL     1      13.884  16.151   1.617  1.00  0.00    -0.264 OA
BRANCH  49  51
HETATM   51  O10 UNL     1      14.612  16.193   3.754  1.00  0.00    -0.326 OA
HETATM   52  C21 UNL     1      14.539  14.778   3.887  1.00  0.00     0.213 C 
ENDBRANCH  49  51
ENDBRANCH   1  49
TORSDOF 17
ENDMDL
MODEL 4
REMARK VINA RESULT: -9.291498087      5.385      7.945
REMARK  17 active torsions:
REMARK  status: ('A' for Active; 'I' for Inactive)
REMARK    1  A    between atoms: O1_2  and  C2_3 
REMARK       I    between atoms: C2_3  and  N1_5 
REMARK    2  A    between atoms: N1_5  and  N2_7 
REMARK    3  A    between atoms: N2_7  and  C3_8 
REMARK    4  A    between atoms: C3_8  and  O3_9 
REMARK    5  A    between atoms: C3_8  and  N3_11 
REMARK    6  A    between atoms: N3_11  and  N4_12 
REMARK    7  A    between atoms: N3_11  and  C6_16 
REMARK       I    between atoms: N4_12  and  C4_13 
REMARK    8  A    between atoms: C7_21  and  C8_22 
REMARK    9  A    between atoms: C8_22  and  C9_23 
REMARK   10  A    between atoms: C8_22  and  C20_48 
REMARK   11  A    between atoms: C9_23  and  N7_24 
REMARK   12  A    between atoms: C11_30  and  C12_31 
REMARK   13  A    between atoms: C12_31  and  O5_32 
REMARK   14  A    between atoms: C12_31  and  N10_34 
REMARK   15  A    between atoms: N10_34  and  C13_36 
REMARK   16  A    between atoms: C15_40  and  C16_41 
REMARK   17  A    between atoms: C20_48  and  O10_50 
ROOT
HETATM    1  C8  UNL     1      18.610  20.223   2.029  1.00  0.00     0.181 C 
ENDROOT
BRANCH   1   2
HETATM    2  C7  UNL     1      17.335  21.007   1.705  1.00  0.00     0.157 A 
HETATM    3  N6  UNL     1      16.975  21.675   0.638  1.00  0.00    -0.279 N 
HETATM    4  N5  UNL     1      15.740  22.175   0.890  1.00  0.00    -0.261 N 
ATOM      5  H6  UNL     1      17.519  21.796  -0.216  1.00  0.00     0.189 HD
HETATM    6  C6  UNL     1      15.353  21.797   2.133  1.00  0.00     0.277 A 
ATOM      7  H5  UNL     1      15.190  22.743   0.246  1.00  0.00     0.190 HD
HETATM    8  O11 UNL     1      16.386  21.091   2.564  1.00  0.00    -0.261 OA
BRANCH   6   9
HETATM    9  N3  UNL     1      14.183  22.027   2.882  1.00  0.00    -0.137 N 
BRANCH   9  10
HETATM   10  C3  UNL     1      12.962  22.188   2.016  1.00  0.00     0.376 C 
BRANCH  10  11
HETATM   11  N2  UNL     1      13.051  21.130   0.990  1.00  0.00    -0.081 NA
BRANCH  11  12
HETATM   12  N1  UNL     1      12.844  19.879   1.465  1.00  0.00    -0.245 N 
HETATM   13  C2  UNL     1      13.777  18.860   1.092  1.00  0.00     0.376 C 
HETATM   14  O2  UNL     1      14.743  19.115   0.353  1.00  0.00    -0.237 OA
ATOM     15  H1  UNL     1      12.048  19.671   2.068  1.00  0.00     0.188 HD
BRANCH  13  16
HETATM   16  O1  UNL     1      13.576  17.582   1.570  1.00  0.00    -0.308 OA
HETATM   17  C1  UNL     1      14.460  17.019   2.557  1.00  0.00     0.215 C 
ENDBRANCH  13  16
ENDBRANCH  11  12
ENDBRANCH  10  11
BRANCH  10  18
HETATM   18  O3  UNL     1      13.032  23.377   1.313  1.00  0.00    -0.359 OA
ATOM     19  H3  UNL     1      12.153  23.737   1.348  1.00  0.00     0.213 HD
ENDBRANCH  10  18
ENDBRANCH   9  10
BRANCH   9  20
HETATM   20  N4  UNL     1      13.978  22.091   4.185  1.00  0.00    -0.278 NA
HETATM   21  C4  UNL     1      13.774  22.154   5.508  1.00  0.00     0.309 C 
HETATM   22  C5  UNL     1      12.308  22.599   5.958  1.00  0.00     0.137 C 
HETATM   23  O4  UNL     1      14.406  21.960   6.518  1.00  0.00    -0.256 OA
ENDBRANCH   9  20
ENDBRANCH   6   9
ENDBRANCH   1   2
BRANCH   1  24
HETATM   24  C9  UNL     1      18.255  18.970   2.705  1.00  0.00     0.162 C 
BRANCH  24  25
HETATM   25  N7  UNL     1      19.102  17.866   2.229  1.00  0.00    -0.296 N 
HETATM   26  S1  UNL     1      20.596  17.354   2.860  1.00  0.00     0.071 SA
HETATM   27  N8  UNL     1      20.923  16.112   1.870  1.00  0.00    -0.299 N 
HETATM   28  C10 UNL     1      19.892  16.057   1.035  1.00  0.00     0.155 A 
ATOM     29  H8  UNL     1      21.743  15.505   1.886  1.00  0.00     0.177 HD
HETATM   30  N9  UNL     1      19.916  15.019   0.015  1.00  0.00    -0.080 NA
HETATM   31  C11 UNL     1      18.893  16.996   1.213  1.00  0.00     0.135 A 
BRANCH  31  32
HETATM   32  C12 UNL     1      17.703  16.971   0.393  1.00  0.00     0.168 C 
BRANCH  32  33
HETATM   33  O5  UNL     1      16.938  15.921   0.538  1.00  0.00    -0.344 OA
ATOM     34  H5  UNL     1      16.161  15.899  -0.009  1.00  0.00     0.219 HD
ENDBRANCH  32  33
BRANCH  32  35
HETATM   35  N10 UNL     1      17.143  17.856  -0.558  1.00  0.00    -0.353 N 
ATOM     36  H10 UNL     1      16.745  18.765  -0.322  1.00  0.00     0.162 HD
BRANCH  35  37
HETATM   37  C13 UNL     1      17.203  17.293  -1.993  1.00  0.00     0.210 C 
HETATM   38  C14 UNL     1      17.233  18.284  -2.989  1.00  0.00     0.251 C 
HETATM   39  O6  UNL     1      17.958  19.316  -3.290  1.00  0.00    -0.271 OA
HETATM   40  N11 UNL     1      16.105  17.752  -3.650  1.00  0.00    -0.294 N 
HETATM   41  C15 UNL     1      15.278  17.591  -4.807  1.00  0.00     0.112 C 
HETATM   42  C19 UNL     1      15.720  17.097  -2.397  1.00  0.00     0.187 C 
HETATM   43  C17 UNL     1      14.811  16.424  -5.187  1.00  0.00     0.020 C 
HETATM   44  C18 UNL     1      15.077  15.141  -4.487  1.00  0.00     0.105 C 
HETATM   45  S2  UNL     1      15.368  15.344  -2.730  1.00  0.00    -0.137 SA
BRANCH  41  46
HETATM   46  C16 UNL     1      14.952  18.760  -5.602  1.00  0.00     0.226 C 
HETATM   47  O7  UNL     1      15.745  19.170  -6.491  1.00  0.00    -0.643 OA
HETATM   48  O8  UNL     1      13.773  19.434  -5.385  1.00  0.00    -0.643 OA
ENDBRANCH  41  46
ENDBRANCH  35  37
ENDBRANCH  32  35
ENDBRANCH  31  32
ENDBRANCH  24  25
ENDBRANCH   1  24
BRANCH   1  49
HETATM   49  C20 UNL     1      19.308  21.176   2.991  1.00  0.00     0.272 C 
HETATM   50  O9  UNL     1      19.392  20.923   4.171  1.00  0.00    -0.264 OA
BRANCH  49  51
HETATM   51  O10 UNL     1      19.836  22.353   2.481  1.00  0.00    -0.326 OA
HETATM   52  C21 UNL     1      21.253  22.489   2.429  1.00  0.00     0.213 C 
ENDBRANCH  49  51
ENDBRANCH   1  49
TORSDOF 17
ENDMDL
MODEL 5
REMARK VINA RESULT: -9.276304848      2.403      2.912
REMARK  17 active torsions:
REMARK  status: ('A' for Active; 'I' for Inactive)
REMARK    1  A    between atoms: O1_2  and  C2_3 
REMARK       I    between atoms: C2_3  and  N1_5 
REMARK    2  A    between atoms: N1_5  and  N2_7 
REMARK    3  A    between atoms: N2_7  and  C3_8 
REMARK    4  A    between atoms: C3_8  and  O3_9 
REMARK    5  A    between atoms: C3_8  and  N3_11 
REMARK    6  A    between atoms: N3_11  and  N4_12 
REMARK    7  A    between atoms: N3_11  and  C6_16 
REMARK       I    between atoms: N4_12  and  C4_13 
REMARK    8  A    between atoms: C7_21  and  C8_22 
REMARK    9  A    between atoms: C8_22  and  C9_23 
REMARK   10  A    between atoms: C8_22  and  C20_48 
REMARK   11  A    between atoms: C9_23  and  N7_24 
REMARK   12  A    between atoms: C11_30  and  C12_31 
REMARK   13  A    between atoms: C12_31  and  O5_32 
REMARK   14  A    between atoms: C12_31  and  N10_34 
REMARK   15  A    between atoms: N10_34  and  C13_36 
REMARK   16  A    between atoms: C15_40  and  C16_41 
REMARK   17  A    between atoms: C20_48  and  O10_50 
ROOT
HETATM    1  C8  UNL     1      11.495  21.827   4.268  1.00  0.00     0.181 C 
ENDROOT
BRANCH   1   2
HETATM    2  C7  UNL     1      10.230  21.234   4.894  1.00  0.00     0.157 A 
HETATM    3  N6  UNL     1       9.031  21.038   4.407  1.00  0.00    -0.279 N 
HETATM    4  N5  UNL     1       8.294  20.481   5.399  1.00  0.00    -0.261 N 
ATOM      5  H6  UNL     1       8.713  21.262   3.463  1.00  0.00     0.189 HD
HETATM    6  C6  UNL     1       9.069  20.340   6.503  1.00  0.00     0.277 A 
ATOM      7  H5  UNL     1       7.313  20.210   5.326  1.00  0.00     0.190 HD
HETATM    8  O11 UNL     1      10.234  20.829   6.111  1.00  0.00    -0.261 OA
BRANCH   6   9
HETATM    9  N3  UNL     1       8.818  19.822   7.787  1.00  0.00    -0.137 N 
BRANCH   9  10
HETATM   10  C3  UNL     1       8.173  20.828   8.704  1.00  0.00     0.376 C 
BRANCH  10  11
HETATM   11  N2  UNL     1       7.840  20.094   9.941  1.00  0.00    -0.081 NA
BRANCH  11  12
HETATM   12  N1  UNL     1       6.533  19.757  10.050  1.00  0.00    -0.245 N 
HETATM   13  C2  UNL     1       6.207  18.572  10.785  1.00  0.00     0.376 C 
HETATM   14  O2  UNL     1       7.096  17.875  11.302  1.00  0.00    -0.237 OA
ATOM     15  H1  UNL     1       5.804  20.329   9.622  1.00  0.00     0.188 HD
BRANCH  13  16
HETATM   16  O1  UNL     1       4.879  18.220  10.903  1.00  0.00    -0.308 OA
HETATM   17  C1  UNL     1       4.262  17.351   9.934  1.00  0.00     0.215 C 
ENDBRANCH  13  16
ENDBRANCH  11  12
ENDBRANCH  10  11
BRANCH  10  18
HETATM   18  O3  UNL     1       6.955  21.228   8.185  1.00  0.00    -0.359 OA
ATOM     19  H3  UNL     1       7.085  22.130   7.917  1.00  0.00     0.213 HD
ENDBRANCH  10  18
ENDBRANCH   9  10
BRANCH   9  20
HETATM   20  N4  UNL     1       9.020  18.621   8.300  1.00  0.00    -0.278 NA
HETATM   21  C4  UNL     1       9.228  17.404   8.821  1.00  0.00     0.309 C 
HETATM   22  C5  UNL     1       8.305  16.238   8.238  1.00  0.00     0.137 C 
HETATM   23  O4  UNL     1       9.949  16.900   9.647  1.00  0.00    -0.256 OA
ENDBRANCH   9  20
ENDBRANCH   6   9
ENDBRANCH   1   2
BRANCH   1  24
HETATM   24  C9  UNL     1      12.325  20.745   3.726  1.00  0.00     0.162 C 
BRANCH  24  25
HETATM   25  N7  UNL     1      13.308  21.274   2.768  1.00  0.00    -0.296 N 
HETATM   26  S1  UNL     1      13.367  22.833   2.092  1.00  0.00     0.071 SA
HETATM   27  N8  UNL     1      14.692  22.702   1.166  1.00  0.00    -0.299 N 
HETATM   28  C10 UNL     1      15.123  21.462   1.357  1.00  0.00     0.155 A 
ATOM     29  H8  UNL     1      15.104  23.418   0.567  1.00  0.00     0.177 HD
HETATM   30  N9  UNL     1      16.321  21.054   0.636  1.00  0.00    -0.080 NA
HETATM   31  C11 UNL     1      14.391  20.671   2.222  1.00  0.00     0.135 A 
BRANCH  31  32
HETATM   32  C12 UNL     1      14.822  19.328   2.541  1.00  0.00     0.168 C 
BRANCH  32  33
HETATM   33  O5  UNL     1      14.045  18.368   2.111  1.00  0.00    -0.344 OA
ATOM     34  H5  UNL     1      13.969  18.293   1.167  1.00  0.00     0.219 HD
ENDBRANCH  32  33
BRANCH  32  35
HETATM   35  N10 UNL     1      15.936  18.787   3.224  1.00  0.00    -0.353 N 
ATOM     36  H10 UNL     1      16.192  19.037   4.180  1.00  0.00     0.162 HD
BRANCH  35  37
HETATM   37  C13 UNL     1      16.722  17.777   2.362  1.00  0.00     0.210 C 
HETATM   38  C14 UNL     1      16.509  16.437   2.726  1.00  0.00     0.251 C 
HETATM   39  O6  UNL     1      15.501  15.634   2.872  1.00  0.00    -0.271 OA
HETATM   40  N11 UNL     1      17.887  16.192   2.901  1.00  0.00    -0.294 N 
HETATM   41  C15 UNL     1      19.014  15.314   2.984  1.00  0.00     0.112 C 
HETATM   42  C19 UNL     1      18.088  17.633   3.079  1.00  0.00     0.187 C 
HETATM   43  C17 UNL     1      20.149  15.557   2.369  1.00  0.00     0.020 C 
HETATM   44  C18 UNL     1      20.409  16.748   1.520  1.00  0.00     0.105 C 
HETATM   45  S2  UNL     1      19.445  18.180   1.999  1.00  0.00    -0.137 SA
BRANCH  41  46
HETATM   46  C16 UNL     1      18.897  14.097   3.766  1.00  0.00     0.226 C 
HETATM   47  O7  UNL     1      18.213  14.081   4.823  1.00  0.00    -0.643 OA
HETATM   48  O8  UNL     1      19.540  12.952   3.358  1.00  0.00    -0.643 OA
ENDBRANCH  41  46
ENDBRANCH  35  37
ENDBRANCH  32  35
ENDBRANCH  31  32
ENDBRANCH  24  25
ENDBRANCH   1  24
BRANCH   1  49
HETATM   49  C20 UNL     1      12.160  22.461   5.483  1.00  0.00     0.272 C 
HETATM   50  O9  UNL     1      11.721  23.474   5.977  1.00  0.00    -0.264 OA
BRANCH  49  51
HETATM   51  O10 UNL     1      13.293  21.852   6.004  1.00  0.00    -0.326 OA
HETATM   52  C21 UNL     1      13.586  22.045   7.384  1.00  0.00     0.213 C 
ENDBRANCH  49  51
ENDBRANCH   1  49
TORSDOF 17
ENDMDL
