MODEL 1
REMARK VINA RESULT: -9.674753562      0.000      0.000
REMARK  15 active torsions:
REMARK  status: ('A' for Active; 'I' for Inactive)
REMARK    1  A    between atoms: C3_7  and  N3_8 
REMARK    2  A    between atoms: N4_11  and  C6_12 
REMARK    3  A    between atoms: C8_19  and  S1_20 
REMARK    4  A    between atoms: S1_20  and  C9_22 
REMARK    5  A    between atoms: C9_22  and  C10_23 
REMARK    6  A    between atoms: C10_23  and  O3_24 
REMARK    7  A    between atoms: C10_23  and  O4_26 
REMARK    8  A    between atoms: C14_38  and  N11_39 
REMARK    9  A    between atoms: N11_39  and  C15_41 
REMARK   10  A    between atoms: C18_44  and  O5_45 
REMARK   11  A    between atoms: O5_45  and  S2_46 
REMARK   12  A    between atoms: C20_51  and  O9_52 
REMARK   13  A    between atoms: O9_52  and  C21_53 
REMARK   14  A    between atoms: C21_53  and  C22_54 
REMARK   15  A    between atoms: C22_54  and  O10_55 
ROOT
HETATM    1  C1  UNL     1      19.934  20.153   1.870  1.00  0.00     0.180 C 
HETATM    2  N1  UNL     1      18.551  20.576   1.797  1.00  0.00    -0.136 N 
HETATM    3  C2  UNL     1      17.923  21.153   2.827  1.00  0.00     0.354 A 
HETATM    4  O1  UNL     1      18.603  21.323   3.902  1.00  0.00    -0.245 OA
HETATM    5  N2  UNL     1      16.639  21.547   2.776  1.00  0.00    -0.140 N 
ATOM      6  H2  UNL     1      16.199  21.982   3.586  1.00  0.00     0.189 HD
HETATM    7  C3  UNL     1      15.927  21.354   1.615  1.00  0.00     0.700 A 
HETATM    8  N10 UNL     1      16.573  20.781   0.608  1.00  0.00    -0.022 N 
ATOM      9  H10 UNL     1      16.054  20.633  -0.257  1.00  0.00     0.203 HD
HETATM   10  C14 UNL     1      17.851  20.381   0.636  1.00  0.00     0.703 A 
ENDROOT
BRANCH   7  11
HETATM   11  N3  UNL     1      14.576  21.747   1.538  1.00  0.00    -0.199 N 
HETATM   12  C4  UNL     1      13.443  21.043   0.940  1.00  0.00     0.163 C 
HETATM   13  C5  UNL     1      12.284  21.405   1.873  1.00  0.00     0.146 C 
HETATM   14  N4  UNL     1      12.901  22.265   2.879  1.00  0.00    -0.346 N 
HETATM   15  C13 UNL     1      13.932  22.968   2.088  1.00  0.00     0.269 C 
BRANCH  14  16
HETATM   16  C6  UNL     1      12.691  22.438   4.250  1.00  0.00     0.153 A 
HETATM   17  N5  UNL     1      13.528  23.186   5.068  1.00  0.00    -0.269 N 
HETATM   18  N6  UNL     1      13.120  23.113   6.300  1.00  0.00    -0.234 N 
ATOM     19  H5  UNL     1      14.341  23.712   4.750  1.00  0.00     0.190 HD
HETATM   20  N7  UNL     1      12.031  22.348   6.378  1.00  0.00    -0.243 N 
ATOM     21  H6  UNL     1      13.567  23.575   7.092  1.00  0.00     0.209 HD
HETATM   22  C7  UNL     1      11.280  22.002   7.441  1.00  0.00     0.157 A 
HETATM   23  C12 UNL     1      11.755  21.925   5.109  1.00  0.00     0.146 A 
HETATM   24  C8  UNL     1      10.175  21.185   7.271  1.00  0.00     0.119 A 
HETATM   25  N8  UNL     1       9.905  20.775   6.031  1.00  0.00    -0.332 N 
HETATM   26  C11 UNL     1      10.661  21.119   4.935  1.00  0.00     0.133 A 
ATOM     27  H8  UNL     1       9.094  20.173   5.888  1.00  0.00     0.168 HD
HETATM   28  N9  UNL     1      10.308  20.708   3.798  1.00  0.00    -0.383 N 
ATOM     29  H92 UNL     1       9.492  20.108   3.669  1.00  0.00     0.157 HD
ATOM     30  H91 UNL     1      10.868  20.963   2.985  1.00  0.00     0.157 HD
BRANCH  24  31
HETATM   31  S1  UNL     1       9.173  20.700   8.590  1.00  0.00     0.072 S 
HETATM   32  O2  UNL     1       8.766  21.907   9.644  1.00  0.00    -0.251 OA
BRANCH  31  33
HETATM   33  C9  UNL     1       7.820  19.678   8.151  1.00  0.00     0.176 C 
BRANCH  33  34
HETATM   34  C10 UNL     1       7.200  19.183   9.466  1.00  0.00     0.265 C 
BRANCH  34  35
HETATM   35  O3  UNL     1       8.164  18.872  10.397  1.00  0.00    -0.371 OA
ATOM     36  H3  UNL     1       7.966  18.061  10.851  1.00  0.00     0.212 HD
ENDBRANCH  34  35
BRANCH  34  37
HETATM   37  O4  UNL     1       6.328  20.166   9.952  1.00  0.00    -0.371 OA
ATOM     38  H4  UNL     1       5.446  19.812   9.969  1.00  0.00     0.212 HD
ENDBRANCH  34  37
ENDBRANCH  33  34
ENDBRANCH  31  33
ENDBRANCH  24  31
ENDBRANCH  14  16
ENDBRANCH   7  11
BRANCH  10  39
HETATM   39  N11 UNL     1      18.469  19.827  -0.335  1.00  0.00    -0.188 N 
ATOM     40  H11 UNL     1      19.487  19.842  -0.274  1.00  0.00     0.184 HD
BRANCH  39  41
HETATM   41  C15 UNL     1      17.941  19.204  -1.465  1.00  0.00     0.082 A 
HETATM   42  C16 UNL     1      18.042  19.658  -2.744  1.00  0.00     0.036 A 
HETATM   43  C17 UNL     1      17.498  18.975  -3.820  1.00  0.00     0.040 A 
HETATM   44  C18 UNL     1      16.823  17.790  -3.641  1.00  0.00     0.094 A 
HETATM   45  C19 UNL     1      16.722  17.326  -2.323  1.00  0.00     0.077 A 
HETATM   46  C20 UNL     1      17.258  17.995  -1.246  1.00  0.00     0.098 A 
BRANCH  44  47
HETATM   47  O5  UNL     1      16.267  17.076  -4.690  1.00  0.00    -0.214 OA
BRANCH  47  48
HETATM   48  S2  UNL     1      14.814  17.547  -5.443  1.00  0.00     0.256 S 
HETATM   49  O6  UNL     1      13.801  17.822  -4.371  1.00  0.00    -0.572 OA
HETATM   50  O7  UNL     1      14.370  16.447  -6.374  1.00  0.00    -0.572 OA
HETATM   51  O8  UNL     1      15.037  18.937  -6.364  1.00  0.00    -0.572 OA
ENDBRANCH  47  48
ENDBRANCH  44  47
BRANCH  46  52
HETATM   52  O9  UNL     1      17.144  17.520   0.014  1.00  0.00    -0.347 OA
BRANCH  52  53
HETATM   53  C21 UNL     1      16.178  16.880   0.723  1.00  0.00     0.201 C 
BRANCH  53  54
HETATM   54  C22 UNL     1      15.160  17.715   1.436  1.00  0.00     0.190 C 
BRANCH  54  55
HETATM   55  O10 UNL     1      15.717  18.358   2.545  1.00  0.00    -0.399 OA
ATOM     56  H10 UNL     1      15.155  18.281   3.307  1.00  0.00     0.209 HD
ENDBRANCH  54  55
ENDBRANCH  53  54
ENDBRANCH  52  53
ENDBRANCH  46  52
ENDBRANCH  39  41
ENDBRANCH  10  39
TORSDOF 15
ENDMDL
MODEL 2
REMARK VINA RESULT: -9.558780234      1.867      2.801
REMARK  15 active torsions:
REMARK  status: ('A' for Active; 'I' for Inactive)
REMARK    1  A    between atoms: C3_7  and  N3_8 
REMARK    2  A    between atoms: N4_11  and  C6_12 
REMARK    3  A    between atoms: C8_19  and  S1_20 
REMARK    4  A    between atoms: S1_20  and  C9_22 
REMARK    5  A    between atoms: C9_22  and  C10_23 
REMARK    6  A    between atoms: C10_23  and  O3_24 
REMARK    7  A    between atoms: C10_23  and  O4_26 
REMARK    8  A    between atoms: C14_38  and  N11_39 
REMARK    9  A    between atoms: N11_39  and  C15_41 
REMARK   10  A    between atoms: C18_44  and  O5_45 
REMARK   11  A    between atoms: O5_45  and  S2_46 
REMARK   12  A    between atoms: C20_51  and  O9_52 
REMARK   13  A    between atoms: O9_52  and  C21_53 
REMARK   14  A    between atoms: C21_53  and  C22_54 
REMARK   15  A    between atoms: C22_54  and  O10_55 
ROOT
HETATM    1  C1  UNL     1      15.808  14.892   2.168  1.00  0.00     0.180 C 
HETATM    2  N1  UNL     1      15.647  16.330   2.139  1.00  0.00    -0.136 N 
HETATM    3  C2  UNL     1      15.316  17.036   3.226  1.00  0.00     0.354 A 
HETATM    4  O1  UNL     1      15.145  16.380   4.316  1.00  0.00    -0.245 OA
HETATM    5  N2  UNL     1      15.159  18.370   3.215  1.00  0.00    -0.140 N 
ATOM      6  H2  UNL     1      14.905  18.869   4.067  1.00  0.00     0.189 HD
HETATM    7  C3  UNL     1      15.346  19.054   2.036  1.00  0.00     0.700 A 
HETATM    8  N10 UNL     1      15.674  18.332   0.973  1.00  0.00    -0.022 N 
ATOM      9  H10 UNL     1      15.814  18.829   0.094  1.00  0.00     0.203 HD
HETATM   10  C14 UNL     1      15.835  17.002   0.961  1.00  0.00     0.703 A 
ENDROOT
BRANCH   7  11
HETATM   11  N3  UNL     1      15.176  20.452   1.992  1.00  0.00    -0.199 N 
HETATM   12  C4  UNL     1      14.560  21.276   0.954  1.00  0.00     0.163 C 
HETATM   13  C5  UNL     1      13.879  22.388   1.758  1.00  0.00     0.146 C 
HETATM   14  N4  UNL     1      14.194  22.059   3.145  1.00  0.00    -0.346 N 
HETATM   15  C13 UNL     1      15.541  21.463   3.019  1.00  0.00     0.269 C 
BRANCH  14  16
HETATM   16  C6  UNL     1      13.486  22.186   4.344  1.00  0.00     0.153 A 
HETATM   17  N5  UNL     1      14.003  22.791   5.482  1.00  0.00    -0.269 N 
HETATM   18  N6  UNL     1      13.145  22.704   6.455  1.00  0.00    -0.234 N 
ATOM     19  H5  UNL     1      14.917  23.236   5.545  1.00  0.00     0.190 HD
HETATM   20  N7  UNL     1      12.049  22.066   6.044  1.00  0.00    -0.243 N 
ATOM     21  H6  UNL     1      13.289  23.072   7.396  1.00  0.00     0.209 HD
HETATM   22  C7  UNL     1      10.918  21.755   6.707  1.00  0.00     0.157 A 
HETATM   23  C12 UNL     1      12.250  21.741   4.733  1.00  0.00     0.146 A 
HETATM   24  C8  UNL     1       9.900  21.079   6.057  1.00  0.00     0.119 A 
HETATM   25  N8  UNL     1      10.096  20.765   4.776  1.00  0.00    -0.332 N 
HETATM   26  C11 UNL     1      11.243  21.075   4.085  1.00  0.00     0.133 A 
ATOM     27  H8  UNL     1       9.354  20.268   4.283  1.00  0.00     0.168 HD
HETATM   28  N9  UNL     1      11.323  20.765   2.866  1.00  0.00    -0.383 N 
ATOM     29  H92 UNL     1      10.573  20.270   2.384  1.00  0.00     0.157 HD
ATOM     30  H91 UNL     1      12.174  20.995   2.353  1.00  0.00     0.157 HD
BRANCH  24  31
HETATM   31  S1  UNL     1       8.428  20.646   6.848  1.00  0.00     0.072 S 
HETATM   32  O2  UNL     1       7.089  20.621   5.877  1.00  0.00    -0.251 OA
BRANCH  31  33
HETATM   33  C9  UNL     1       8.540  19.256   7.907  1.00  0.00     0.176 C 
BRANCH  33  34
HETATM   34  C10 UNL     1       7.594  19.525   9.087  1.00  0.00     0.265 C 
BRANCH  34  35
HETATM   35  O3  UNL     1       8.231  19.363  10.296  1.00  0.00    -0.371 OA
ATOM     36  H3  UNL     1       7.612  19.318  11.015  1.00  0.00     0.212 HD
ENDBRANCH  34  35
BRANCH  34  37
HETATM   37  O4  UNL     1       7.074  20.820   8.960  1.00  0.00    -0.371 OA
ATOM     38  H4  UNL     1       7.736  21.380   8.572  1.00  0.00     0.212 HD
ENDBRANCH  34  37
ENDBRANCH  33  34
ENDBRANCH  31  33
ENDBRANCH  24  31
ENDBRANCH  14  16
ENDBRANCH   7  11
BRANCH  10  39
HETATM   39  N11 UNL     1      16.149  16.309  -0.065  1.00  0.00    -0.188 N 
ATOM     40  H11 UNL     1      16.532  15.384   0.129  1.00  0.00     0.184 HD
BRANCH  39  41
HETATM   41  C15 UNL     1      16.039  16.646  -1.413  1.00  0.00     0.082 A 
HETATM   42  C16 UNL     1      14.940  16.459  -2.194  1.00  0.00     0.036 A 
HETATM   43  C17 UNL     1      14.904  16.830  -3.528  1.00  0.00     0.040 A 
HETATM   44  C18 UNL     1      15.993  17.414  -4.132  1.00  0.00     0.094 A 
HETATM   45  C19 UNL     1      17.123  17.605  -3.325  1.00  0.00     0.077 A 
HETATM   46  C20 UNL     1      17.171  17.240  -2.000  1.00  0.00     0.098 A 
BRANCH  44  47
HETATM   47  O5  UNL     1      15.997  17.801  -5.463  1.00  0.00    -0.214 OA
BRANCH  47  48
HETATM   48  S2  UNL     1      14.584  18.301  -6.271  1.00  0.00     0.256 S 
HETATM   49  O6  UNL     1      13.696  17.105  -6.438  1.00  0.00    -0.572 OA
HETATM   50  O7  UNL     1      14.971  18.911  -7.595  1.00  0.00    -0.572 OA
HETATM   51  O8  UNL     1      13.769  19.477  -5.386  1.00  0.00    -0.572 OA
ENDBRANCH  47  48
ENDBRANCH  44  47
BRANCH  46  52
HETATM   52  O9  UNL     1      18.276  17.439  -1.248  1.00  0.00    -0.347 OA
BRANCH  52  53
HETATM   53  C21 UNL     1      19.092  18.494  -0.988  1.00  0.00     0.201 C 
BRANCH  53  54
HETATM   54  C22 UNL     1      18.935  19.199   0.324  1.00  0.00     0.190 C 
BRANCH  54  55
HETATM   55  O10 UNL     1      18.154  20.351   0.191  1.00  0.00    -0.399 OA
ATOM     56  H10 UNL     1      18.300  20.951   0.912  1.00  0.00     0.209 HD
ENDBRANCH  54  55
ENDBRANCH  53  54
ENDBRANCH  52  53
ENDBRANCH  46  52
ENDBRANCH  39  41
ENDBRANCH  10  39
TORSDOF 15
ENDMDL
MODEL 3
REMARK VINA RESULT: -9.500897312      4.043      6.008
REMARK  15 active torsions:
REMARK  status: ('A' for Active; 'I' for Inactive)
REMARK    1  A    between atoms: C3_7  and  N3_8 
REMARK    2  A    between atoms: N4_11  and  C6_12 
REMARK    3  A    between atoms: C8_19  and  S1_20 
REMARK    4  A    between atoms: S1_20  and  C9_22 
REMARK    5  A    between atoms: C9_22  and  C10_23 
REMARK    6  A    between atoms: C10_23  and  O3_24 
REMARK    7  A    between atoms: C10_23  and  O4_26 
REMARK    8  A    between atoms: C14_38  and  N11_39 
REMARK    9  A    between atoms: N11_39  and  C15_41 
REMARK   10  A    between atoms: C18_44  and  O5_45 
REMARK   11  A    between atoms: O5_45  and  S2_46 
REMARK   12  A    between atoms: C20_51  and  O9_52 
REMARK   13  A    between atoms: O9_52  and  C21_53 
REMARK   14  A    between atoms: C21_53  and  C22_54 
REMARK   15  A    between atoms: C22_54  and  O10_55 
ROOT
HETATM    1  C1  UNL     1      17.173  16.408   2.526  1.00  0.00     0.180 C 
HETATM    2  N1  UNL     1      16.575  17.726   2.510  1.00  0.00    -0.136 N 
HETATM    3  C2  UNL     1      15.314  17.946   2.899  1.00  0.00     0.354 A 
HETATM    4  O1  UNL     1      14.642  16.928   3.296  1.00  0.00    -0.245 OA
HETATM    5  N2  UNL     1      14.743  19.163   2.887  1.00  0.00    -0.140 N 
ATOM      6  H2  UNL     1      13.778  19.285   3.192  1.00  0.00     0.189 HD
HETATM    7  C3  UNL     1      15.481  20.241   2.457  1.00  0.00     0.700 A 
HETATM    8  N10 UNL     1      16.728  19.997   2.077  1.00  0.00    -0.022 N 
ATOM      9  H10 UNL     1      17.283  20.790   1.755  1.00  0.00     0.203 HD
HETATM   10  C14 UNL     1      17.316  18.794   2.081  1.00  0.00     0.703 A 
ENDROOT
BRANCH   7  11
HETATM   11  N3  UNL     1      14.904  21.526   2.422  1.00  0.00    -0.199 N 
HETATM   12  C4  UNL     1      14.057  22.130   1.395  1.00  0.00     0.163 C 
HETATM   13  C5  UNL     1      13.089  22.991   2.211  1.00  0.00     0.146 C 
HETATM   14  N4  UNL     1      13.505  22.769   3.593  1.00  0.00    -0.346 N 
HETATM   15  C13 UNL     1      14.966  22.599   3.447  1.00  0.00     0.269 C 
BRANCH  14  16
HETATM   16  C6  UNL     1      12.807  22.680   4.801  1.00  0.00     0.153 A 
HETATM   17  N5  UNL     1      13.162  23.379   5.947  1.00  0.00    -0.269 N 
HETATM   18  N6  UNL     1      12.373  23.049   6.926  1.00  0.00    -0.234 N 
ATOM     19  H5  UNL     1      13.926  24.051   6.011  1.00  0.00     0.190 HD
HETATM   20  N7  UNL     1      11.480  22.150   6.512  1.00  0.00    -0.243 N 
ATOM     21  H6  UNL     1      12.429  23.424   7.874  1.00  0.00     0.209 HD
HETATM   22  C7  UNL     1      10.483  21.537   7.179  1.00  0.00     0.157 A 
HETATM   23  C12 UNL     1      11.740  21.915   5.192  1.00  0.00     0.146 A 
HETATM   24  C8  UNL     1       9.671  20.627   6.524  1.00  0.00     0.119 A 
HETATM   25  N8  UNL     1       9.924  20.401   5.235  1.00  0.00    -0.332 N 
HETATM   26  C11 UNL     1      10.937  21.018   4.540  1.00  0.00     0.133 A 
ATOM     27  H8  UNL     1       9.334  19.734   4.737  1.00  0.00     0.168 HD
HETATM   28  N9  UNL     1      11.078  20.764   3.313  1.00  0.00    -0.383 N 
ATOM     29  H92 UNL     1      10.479  20.096   2.827  1.00  0.00     0.157 HD
ATOM     30  H91 UNL     1      11.829  21.221   2.797  1.00  0.00     0.157 HD
BRANCH  24  31
HETATM   31  S1  UNL     1       8.379  19.803   7.319  1.00  0.00     0.072 S 
HETATM   32  O2  UNL     1       8.632  18.191   7.586  1.00  0.00    -0.251 OA
BRANCH  31  33
HETATM   33  C9  UNL     1       7.715  20.639   8.708  1.00  0.00     0.176 C 
BRANCH  33  34
HETATM   34  C10 UNL     1       7.205  19.555   9.669  1.00  0.00     0.265 C 
BRANCH  34  35
HETATM   35  O3  UNL     1       8.221  19.040  10.440  1.00  0.00    -0.371 OA
ATOM     36  H3  UNL     1       8.855  18.566   9.915  1.00  0.00     0.212 HD
ENDBRANCH  34  35
BRANCH  34  37
HETATM   37  O4  UNL     1       6.192  20.102  10.469  1.00  0.00    -0.371 OA
ATOM     38  H4  UNL     1       5.398  19.594  10.347  1.00  0.00     0.212 HD
ENDBRANCH  34  37
ENDBRANCH  33  34
ENDBRANCH  31  33
ENDBRANCH  24  31
ENDBRANCH  14  16
ENDBRANCH   7  11
BRANCH  10  39
HETATM   39  N11 UNL     1      18.517  18.563   1.712  1.00  0.00    -0.188 N 
ATOM     40  H11 UNL     1      18.667  18.514   0.704  1.00  0.00     0.184 HD
BRANCH  39  41
HETATM   41  C15 UNL     1      19.651  18.369   2.499  1.00  0.00     0.082 A 
HETATM   42  C16 UNL     1      20.333  17.199   2.639  1.00  0.00     0.036 A 
HETATM   43  C17 UNL     1      21.462  17.087   3.434  1.00  0.00     0.040 A 
HETATM   44  C18 UNL     1      21.952  18.169   4.127  1.00  0.00     0.094 A 
HETATM   45  C19 UNL     1      21.248  19.372   3.980  1.00  0.00     0.077 A 
HETATM   46  C20 UNL     1      20.126  19.495   3.193  1.00  0.00     0.098 A 
BRANCH  44  47
HETATM   47  O5  UNL     1      23.079  18.100   4.932  1.00  0.00    -0.214 OA
BRANCH  47  48
HETATM   48  S2  UNL     1      24.363  17.029   4.610  1.00  0.00     0.256 S 
HETATM   49  O6  UNL     1      23.897  15.637   4.919  1.00  0.00    -0.572 OA
HETATM   50  O7  UNL     1      25.551  17.429   5.449  1.00  0.00    -0.572 OA
HETATM   51  O8  UNL     1      24.827  17.113   2.996  1.00  0.00    -0.572 OA
ENDBRANCH  47  48
ENDBRANCH  44  47
BRANCH  46  52
HETATM   52  O9  UNL     1      19.470  20.670   3.071  1.00  0.00    -0.347 OA
BRANCH  52  53
HETATM   53  C21 UNL     1      19.716  21.856   2.454  1.00  0.00     0.201 C 
BRANCH  53  54
HETATM   54  C22 UNL     1      21.124  22.367   2.449  1.00  0.00     0.190 C 
BRANCH  54  55
HETATM   55  O10 UNL     1      21.167  23.730   2.141  1.00  0.00    -0.399 OA
ATOM     56  H10 UNL     1      20.585  23.940   1.421  1.00  0.00     0.209 HD
ENDBRANCH  54  55
ENDBRANCH  53  54
ENDBRANCH  52  53
ENDBRANCH  46  52
ENDBRANCH  39  41
ENDBRANCH  10  39
TORSDOF 15
ENDMDL
MODEL 4
REMARK VINA RESULT: -9.468328863      2.367      3.780
REMARK  15 active torsions:
REMARK  status: ('A' for Active; 'I' for Inactive)
REMARK    1  A    between atoms: C3_7  and  N3_8 
REMARK    2  A    between atoms: N4_11  and  C6_12 
REMARK    3  A    between atoms: C8_19  and  S1_20 
REMARK    4  A    between atoms: S1_20  and  C9_22 
REMARK    5  A    between atoms: C9_22  and  C10_23 
REMARK    6  A    between atoms: C10_23  and  O3_24 
REMARK    7  A    between atoms: C10_23  and  O4_26 
REMARK    8  A    between atoms: C14_38  and  N11_39 
REMARK    9  A    between atoms: N11_39  and  C15_41 
REMARK   10  A    between atoms: C18_44  and  O5_45 
REMARK   11  A    between atoms: O5_45  and  S2_46 
REMARK   12  A    between atoms: C20_51  and  O9_52 
REMARK   13  A    between atoms: O9_52  and  C21_53 
REMARK   14  A    between atoms: C21_53  and  C22_54 
REMARK   15  A    between atoms: C22_54  and  O10_55 
ROOT
HETATM    1  C1  UNL     1      14.600  15.324   0.791  1.00  0.00     0.180 C 
HETATM    2  N1  UNL     1      14.716  16.732   1.103  1.00  0.00    -0.136 N 
HETATM    3  C2  UNL     1      14.700  17.193   2.359  1.00  0.00     0.354 A 
HETATM    4  O1  UNL     1      14.579  16.324   3.295  1.00  0.00    -0.245 OA
HETATM    5  N2  UNL     1      14.803  18.498   2.664  1.00  0.00    -0.140 N 
ATOM      6  H2  UNL     1      14.787  18.805   3.636  1.00  0.00     0.189 HD
HETATM    7  C3  UNL     1      14.932  19.413   1.645  1.00  0.00     0.700 A 
HETATM    8  N10 UNL     1      14.945  18.931   0.409  1.00  0.00    -0.022 N 
ATOM      9  H10 UNL     1      15.039  19.601  -0.354  1.00  0.00     0.203 HD
HETATM   10  C14 UNL     1      14.844  17.637   0.082  1.00  0.00     0.703 A 
ENDROOT
BRANCH   7  11
HETATM   11  N3  UNL     1      15.029  20.788   1.935  1.00  0.00    -0.199 N 
HETATM   12  C4  UNL     1      14.597  21.933   1.137  1.00  0.00     0.163 C 
HETATM   13  C5  UNL     1      14.125  22.932   2.198  1.00  0.00     0.146 C 
HETATM   14  N4  UNL     1      14.349  22.233   3.460  1.00  0.00    -0.346 N 
HETATM   15  C13 UNL     1      15.561  21.442   3.159  1.00  0.00     0.269 C 
BRANCH  14  16
HETATM   16  C6  UNL     1      13.658  22.204   4.674  1.00  0.00     0.153 A 
HETATM   17  N5  UNL     1      14.235  22.525   5.896  1.00  0.00    -0.269 N 
HETATM   18  N6  UNL     1      13.372  22.346   6.852  1.00  0.00    -0.234 N 
ATOM     19  H5  UNL     1      15.192  22.851   6.024  1.00  0.00     0.190 HD
HETATM   20  N7  UNL     1      12.215  21.915   6.350  1.00  0.00    -0.243 N 
ATOM     21  H6  UNL     1      13.554  22.511   7.842  1.00  0.00     0.209 HD
HETATM   22  C7  UNL     1      11.057  21.605   6.964  1.00  0.00     0.157 A 
HETATM   23  C12 UNL     1      12.381  21.825   4.997  1.00  0.00     0.146 A 
HETATM   24  C8  UNL     1       9.972  21.175   6.219  1.00  0.00     0.119 A 
HETATM   25  N8  UNL     1      10.135  21.091   4.898  1.00  0.00    -0.332 N 
HETATM   26  C11 UNL     1      11.309  21.404   4.255  1.00  0.00     0.133 A 
ATOM     27  H8  UNL     1       9.345  20.777   4.334  1.00  0.00     0.168 HD
HETATM   28  N9  UNL     1      11.357  21.324   2.998  1.00  0.00    -0.383 N 
ATOM     29  H92 UNL     1      10.558  21.010   2.446  1.00  0.00     0.157 HD
ATOM     30  H91 UNL     1      12.227  21.556   2.521  1.00  0.00     0.157 HD
BRANCH  24  31
HETATM   31  S1  UNL     1       8.462  20.757   6.942  1.00  0.00     0.072 S 
HETATM   32  O2  UNL     1       7.153  20.839   5.934  1.00  0.00    -0.251 OA
BRANCH  31  33
HETATM   33  C9  UNL     1       8.490  19.306   7.923  1.00  0.00     0.176 C 
BRANCH  33  34
HETATM   34  C10 UNL     1       7.540  19.557   9.103  1.00  0.00     0.265 C 
BRANCH  34  35
HETATM   35  O3  UNL     1       8.179  19.403  10.312  1.00  0.00    -0.371 OA
ATOM     36  H3  UNL     1       8.883  20.033  10.419  1.00  0.00     0.212 HD
ENDBRANCH  34  35
BRANCH  34  37
HETATM   37  O4  UNL     1       6.996  20.843   8.980  1.00  0.00    -0.371 OA
ATOM     38  H4  UNL     1       6.330  20.958   9.647  1.00  0.00     0.212 HD
ENDBRANCH  34  37
ENDBRANCH  33  34
ENDBRANCH  31  33
ENDBRANCH  24  31
ENDBRANCH  14  16
ENDBRANCH   7  11
BRANCH  10  39
HETATM   39  N11 UNL     1      14.854  17.177  -1.110  1.00  0.00    -0.188 N 
ATOM     40  H11 UNL     1      13.977  16.770  -1.432  1.00  0.00     0.184 HD
BRANCH  39  41
HETATM   41  C15 UNL     1      15.902  17.155  -2.029  1.00  0.00     0.082 A 
HETATM   42  C16 UNL     1      17.227  17.084  -1.725  1.00  0.00     0.036 A 
HETATM   43  C17 UNL     1      18.213  17.056  -2.698  1.00  0.00     0.040 A 
HETATM   44  C18 UNL     1      17.892  17.099  -4.035  1.00  0.00     0.094 A 
HETATM   45  C19 UNL     1      16.526  17.172  -4.344  1.00  0.00     0.077 A 
HETATM   46  C20 UNL     1      15.539  17.201  -3.386  1.00  0.00     0.098 A 
BRANCH  44  47
HETATM   47  O5  UNL     1      18.846  17.072  -5.039  1.00  0.00    -0.214 OA
BRANCH  47  48
HETATM   48  S2  UNL     1      19.673  15.648  -5.471  1.00  0.00     0.256 S 
HETATM   49  O6  UNL     1      21.098  15.782  -5.020  1.00  0.00    -0.572 OA
HETATM   50  O7  UNL     1      19.566  15.457  -6.964  1.00  0.00    -0.572 OA
HETATM   51  O8  UNL     1      18.983  14.303  -4.734  1.00  0.00    -0.572 OA
ENDBRANCH  47  48
ENDBRANCH  44  47
BRANCH  46  52
HETATM   52  O9  UNL     1      14.230  17.270  -3.717  1.00  0.00    -0.347 OA
BRANCH  52  53
HETATM   53  C21 UNL     1      13.519  17.188  -4.871  1.00  0.00     0.201 C 
BRANCH  53  54
HETATM   54  C22 UNL     1      13.033  18.462  -5.491  1.00  0.00     0.190 C 
BRANCH  54  55
HETATM   55  O10 UNL     1      14.034  19.437  -5.496  1.00  0.00    -0.399 OA
ATOM     56  H10 UNL     1      13.762  20.207  -5.983  1.00  0.00     0.209 HD
ENDBRANCH  54  55
ENDBRANCH  53  54
ENDBRANCH  52  53
ENDBRANCH  46  52
ENDBRANCH  39  41
ENDBRANCH  10  39
TORSDOF 15
ENDMDL
MODEL 5
REMARK VINA RESULT: -9.462331514      1.798      2.107
REMARK  15 active torsions:
REMARK  status: ('A' for Active; 'I' for Inactive)
REMARK    1  A    between atoms: C3_7  and  N3_8 
REMARK    2  A    between atoms: N4_11  and  C6_12 
REMARK    3  A    between atoms: C8_19  and  S1_20 
REMARK    4  A    between atoms: S1_20  and  C9_22 
REMARK    5  A    between atoms: C9_22  and  C10_23 
REMARK    6  A    between atoms: C10_23  and  O3_24 
REMARK    7  A    between atoms: C10_23  and  O4_26 
REMARK    8  A    between atoms: C14_38  and  N11_39 
REMARK    9  A    between atoms: N11_39  and  C15_41 
REMARK   10  A    between atoms: C18_44  and  O5_45 
REMARK   11  A    between atoms: O5_45  and  S2_46 
REMARK   12  A    between atoms: C20_51  and  O9_52 
REMARK   13  A    between atoms: O9_52  and  C21_53 
REMARK   14  A    between atoms: C21_53  and  C22_54 
REMARK   15  A    between atoms: C22_54  and  O10_55 
ROOT
HETATM    1  C1  UNL     1      20.479  18.632   3.405  1.00  0.00     0.180 C 
HETATM    2  N1  UNL     1      19.288  19.365   3.030  1.00  0.00    -0.136 N 
HETATM    3  C2  UNL     1      19.009  20.578   3.518  1.00  0.00     0.354 A 
HETATM    4  O1  UNL     1      19.851  21.080   4.345  1.00  0.00    -0.245 OA
HETATM    5  N2  UNL     1      17.906  21.268   3.182  1.00  0.00    -0.140 N 
ATOM      6  H2  UNL     1      17.732  22.191   3.579  1.00  0.00     0.189 HD
HETATM    7  C3  UNL     1      17.015  20.711   2.294  1.00  0.00     0.700 A 
HETATM    8  N10 UNL     1      17.315  19.508   1.824  1.00  0.00    -0.022 N 
ATOM      9  H10 UNL     1      16.660  19.086   1.166  1.00  0.00     0.203 HD
HETATM   10  C14 UNL     1      18.407  18.802   2.145  1.00  0.00     0.703 A 
ENDROOT
BRANCH   7  11
HETATM   11  N3  UNL     1      15.844  21.408   1.934  1.00  0.00    -0.199 N 
HETATM   12  C4  UNL     1      14.834  21.062   0.936  1.00  0.00     0.163 C 
HETATM   13  C5  UNL     1      13.535  21.558   1.577  1.00  0.00     0.146 C 
HETATM   14  N4  UNL     1      13.968  22.122   2.852  1.00  0.00    -0.346 N 
HETATM   15  C13 UNL     1      15.299  22.665   2.509  1.00  0.00     0.269 C 
BRANCH  14  16
HETATM   16  C6  UNL     1      13.392  22.166   4.125  1.00  0.00     0.153 A 
HETATM   17  N5  UNL     1      14.077  22.563   5.266  1.00  0.00    -0.269 N 
HETATM   18  N6  UNL     1      13.308  22.440   6.307  1.00  0.00    -0.234 N 
ATOM     19  H5  UNL     1      15.039  22.900   5.284  1.00  0.00     0.190 HD
HETATM   20  N7  UNL     1      12.113  21.976   5.942  1.00  0.00    -0.243 N 
ATOM     21  H6  UNL     1      13.579  22.666   7.264  1.00  0.00     0.209 HD
HETATM   22  C7  UNL     1      11.019  21.700   6.679  1.00  0.00     0.157 A 
HETATM   23  C12 UNL     1      12.154  21.804   4.587  1.00  0.00     0.146 A 
HETATM   24  C8  UNL     1       9.874  21.222   6.065  1.00  0.00     0.119 A 
HETATM   25  N8  UNL     1       9.915  21.057   4.742  1.00  0.00    -0.332 N 
HETATM   26  C11 UNL     1      11.022  21.334   3.975  1.00  0.00     0.133 A 
ATOM     27  H8  UNL     1       9.079  20.707   4.274  1.00  0.00     0.168 HD
HETATM   28  N9  UNL     1      10.954  21.177   2.727  1.00  0.00    -0.383 N 
ATOM     29  H92 UNL     1      10.110  20.828   2.271  1.00  0.00     0.157 HD
ATOM     30  H91 UNL     1      11.775  21.382   2.158  1.00  0.00     0.157 HD
BRANCH  24  31
HETATM   31  S1  UNL     1       8.441  20.844   6.949  1.00  0.00     0.072 S 
HETATM   32  O2  UNL     1       7.030  21.005   6.102  1.00  0.00    -0.251 OA
BRANCH  31  33
HETATM   33  C9  UNL     1       8.521  19.367   7.887  1.00  0.00     0.176 C 
BRANCH  33  34
HETATM   34  C10 UNL     1       7.577  19.557   9.084  1.00  0.00     0.265 C 
BRANCH  34  35
HETATM   35  O3  UNL     1       8.213  19.305  10.278  1.00  0.00    -0.371 OA
ATOM     36  H3  UNL     1       7.756  18.646  10.787  1.00  0.00     0.212 HD
ENDBRANCH  34  35
BRANCH  34  37
HETATM   37  O4  UNL     1       7.063  20.860   9.051  1.00  0.00    -0.371 OA
ATOM     38  H4  UNL     1       6.215  20.844   8.622  1.00  0.00     0.212 HD
ENDBRANCH  34  37
ENDBRANCH  33  34
ENDBRANCH  31  33
ENDBRANCH  24  31
ENDBRANCH  14  16
ENDBRANCH   7  11
BRANCH  10  39
HETATM   39  N11 UNL     1      18.691  17.642   1.692  1.00  0.00    -0.188 N 
ATOM     40  H11 UNL     1      18.985  16.958   2.388  1.00  0.00     0.184 HD
BRANCH  39  41
HETATM   41  C15 UNL     1      18.654  17.185   0.376  1.00  0.00     0.082 A 
HETATM   42  C16 UNL     1      19.699  17.186  -0.498  1.00  0.00     0.036 A 
HETATM   43  C17 UNL     1      19.587  16.703  -1.791  1.00  0.00     0.040 A 
HETATM   44  C18 UNL     1      18.398  16.192  -2.258  1.00  0.00     0.094 A 
HETATM   45  C19 UNL     1      17.325  16.192  -1.356  1.00  0.00     0.077 A 
HETATM   46  C20 UNL     1      17.424  16.669  -0.069  1.00  0.00     0.098 A 
BRANCH  44  47
HETATM   47  O5  UNL     1      18.244  15.698  -3.543  1.00  0.00    -0.214 OA
BRANCH  47  48
HETATM   48  S2  UNL     1      18.149  16.716  -4.905  1.00  0.00     0.256 S 
HETATM   49  O6  UNL     1      16.899  16.371  -5.658  1.00  0.00    -0.572 OA
HETATM   50  O7  UNL     1      19.389  16.523  -5.743  1.00  0.00    -0.572 OA
HETATM   51  O8  UNL     1      18.091  18.333  -4.445  1.00  0.00    -0.572 OA
ENDBRANCH  47  48
ENDBRANCH  44  47
BRANCH  46  52
HETATM   52  O9  UNL     1      16.371  16.654   0.777  1.00  0.00    -0.347 OA
BRANCH  52  53
HETATM   53  C21 UNL     1      15.023  16.769   0.647  1.00  0.00     0.201 C 
BRANCH  53  54
HETATM   54  C22 UNL     1      14.267  17.460   1.740  1.00  0.00     0.190 C 
BRANCH  54  55
HETATM   55  O10 UNL     1      15.097  17.750   2.826  1.00  0.00    -0.399 OA
ATOM     56  H10 UNL     1      15.451  18.629   2.765  1.00  0.00     0.209 HD
ENDBRANCH  54  55
ENDBRANCH  53  54
ENDBRANCH  52  53
ENDBRANCH  46  52
ENDBRANCH  39  41
ENDBRANCH  10  39
TORSDOF 15
ENDMDL
