MODEL 1
REMARK VINA RESULT: -6.861529634      0.000      0.000
REMARK  8 active torsions:
REMARK  status: ('A' for Active; 'I' for Inactive)
REMARK    1  A    between atoms: N1_2  and  C2_4 
REMARK    2  A    between atoms: C2_4  and  O1_5 
REMARK    3  A    between atoms: C2_4  and  N2_7 
REMARK    4  A    between atoms: N2_7  and  C3_9 
REMARK    5  A    between atoms: C3_9  and  O2_10 
REMARK    6  A    between atoms: C3_9  and  C4_12 
REMARK    7  A    between atoms: N5_20  and  C8_22 
REMARK    8  A    between atoms: C8_22  and  N6_23 
ROOT
HETATM    1  C4  UNL     1      18.274  66.869  35.504  1.00  0.00     0.132 A 
HETATM    2  C5  UNL     1      18.535  66.037  36.629  1.00  0.00     0.146 A 
HETATM    3  N3  UNL     1      19.845  65.533  36.846  1.00  0.00    -0.094 NA
HETATM    4  C6  UNL     1      17.501  65.739  37.469  1.00  0.00     0.286 A 
HETATM    5  O3  UNL     1      17.768  64.992  38.466  1.00  0.00    -0.266 OA
HETATM    6  N4  UNL     1      16.248  66.175  37.317  1.00  0.00    -0.154 N 
ATOM      7  H4  UNL     1      15.511  65.920  37.974  1.00  0.00     0.187 HD
HETATM    8  C7  UNL     1      16.006  66.959  36.263  1.00  0.00     0.684 A 
HETATM    9  N5  UNL     1      14.833  67.423  36.034  1.00  0.00    -0.202 N 
ATOM     10  H5  UNL     1      14.703  68.017  35.215  1.00  0.00     0.179 HD
HETATM   11  N7  UNL     1      17.010  67.289  35.392  1.00  0.00    -0.181 N 
HETATM   12  C9  UNL     1      16.638  68.322  34.437  1.00  0.00     0.176 C 
ENDROOT
BRANCH   1  13
HETATM   13  C3  UNL     1      19.407  67.273  34.738  1.00  0.00     0.173 C 
BRANCH  13  14
HETATM   14  N2  UNL     1      19.900  67.141  33.462  1.00  0.00    -0.301 N 
ATOM     15  H2  UNL     1      20.873  66.833  33.451  1.00  0.00     0.171 HD
BRANCH  14  16
HETATM   16  C2  UNL     1      19.389  67.328  32.184  1.00  0.00     0.218 C 
BRANCH  16  17
HETATM   17  N1  UNL     1      19.457  66.555  31.022  1.00  0.00    -0.361 N 
HETATM   18  C1  UNL     1      20.721  65.944  30.578  1.00  0.00     0.150 C 
ATOM     19  H1  UNL     1      18.612  66.412  30.469  1.00  0.00     0.162 HD
ENDBRANCH  16  17
BRANCH  16  20
HETATM   20  O1  UNL     1      18.716  68.466  32.030  1.00  0.00    -0.333 OA
ATOM     21  H1  UNL     1      19.245  69.244  32.165  1.00  0.00     0.220 HD
ENDBRANCH  16  20
ENDBRANCH  14  16
ENDBRANCH  13  14
BRANCH  13  22
HETATM   22  O2  UNL     1      20.273  68.008  35.483  1.00  0.00    -0.344 OA
ATOM     23  H2  UNL     1      20.665  67.455  36.148  1.00  0.00     0.219 HD
ENDBRANCH  13  22
ENDBRANCH   1  13
BRANCH   9  24
HETATM   24  C8  UNL     1      13.686  67.155  36.867  1.00  0.00     0.368 C 
BRANCH  24  25
HETATM   25  N6  UNL     1      12.720  68.248  36.847  1.00  0.00    -0.063 N 
ATOM     26  H63 UNL     1      13.182  69.150  36.966  1.00  0.00     0.276 HD
ATOM     27  H62 UNL     1      12.336  68.383  35.912  1.00  0.00     0.276 HD
ATOM     28  H61 UNL     1      11.978  68.121  37.535  1.00  0.00     0.276 HD
ENDBRANCH  24  25
ENDBRANCH   9  24
TORSDOF 8
ENDMDL
MODEL 2
REMARK VINA RESULT: -6.650654031      2.530      3.506
REMARK  8 active torsions:
REMARK  status: ('A' for Active; 'I' for Inactive)
REMARK    1  A    between atoms: N1_2  and  C2_4 
REMARK    2  A    between atoms: C2_4  and  O1_5 
REMARK    3  A    between atoms: C2_4  and  N2_7 
REMARK    4  A    between atoms: N2_7  and  C3_9 
REMARK    5  A    between atoms: C3_9  and  O2_10 
REMARK    6  A    between atoms: C3_9  and  C4_12 
REMARK    7  A    between atoms: N5_20  and  C8_22 
REMARK    8  A    between atoms: C8_22  and  N6_23 
ROOT
HETATM    1  C4  UNL     1      16.874  65.772  37.793  1.00  0.00     0.132 A 
HETATM    2  C5  UNL     1      16.628  65.065  39.004  1.00  0.00     0.146 A 
HETATM    3  N3  UNL     1      17.717  64.676  39.828  1.00  0.00    -0.094 NA
HETATM    4  C6  UNL     1      15.336  64.773  39.333  1.00  0.00     0.286 A 
HETATM    5  O3  UNL     1      15.150  64.141  40.423  1.00  0.00    -0.266 OA
HETATM    6  N4  UNL     1      14.271  65.104  38.598  1.00  0.00    -0.154 N 
ATOM      7  H4  UNL     1      13.324  64.859  38.889  1.00  0.00     0.187 HD
HETATM    8  C7  UNL     1      14.504  65.770  37.464  1.00  0.00     0.684 A 
HETATM    9  N5  UNL     1      13.544  66.129  36.694  1.00  0.00    -0.202 N 
ATOM     10  H5  UNL     1      13.777  66.635  35.840  1.00  0.00     0.179 HD
HETATM   11  N7  UNL     1      15.782  66.089  37.091  1.00  0.00    -0.181 N 
HETATM   12  C9  UNL     1      15.849  67.003  35.960  1.00  0.00     0.176 C 
ENDROOT
BRANCH   1  13
HETATM   13  C3  UNL     1      18.220  66.182  37.562  1.00  0.00     0.173 C 
BRANCH  13  14
HETATM   14  N2  UNL     1      18.987  67.320  37.632  1.00  0.00    -0.301 N 
ATOM     15  H2  UNL     1      18.851  67.828  38.507  1.00  0.00     0.171 HD
BRANCH  14  16
HETATM   16  C2  UNL     1      19.903  67.944  36.795  1.00  0.00     0.218 C 
BRANCH  16  17
HETATM   17  N1  UNL     1      20.268  67.719  35.466  1.00  0.00    -0.361 N 
HETATM   18  C1  UNL     1      19.277  67.311  34.455  1.00  0.00     0.150 C 
ATOM     19  H1  UNL     1      21.242  67.840  35.189  1.00  0.00     0.162 HD
ENDBRANCH  16  17
BRANCH  16  20
HETATM   20  O1  UNL     1      20.573  68.941  37.371  1.00  0.00    -0.333 OA
ATOM     21  H1  UNL     1      20.490  68.959  38.318  1.00  0.00     0.220 HD
ENDBRANCH  16  20
ENDBRANCH  14  16
ENDBRANCH  13  14
BRANCH  13  22
HETATM   22  O2  UNL     1      18.990  65.145  37.140  1.00  0.00    -0.344 OA
ATOM     23  H2  UNL     1      18.441  64.500  36.709  1.00  0.00     0.219 HD
ENDBRANCH  13  22
ENDBRANCH   1  13
BRANCH   9  24
HETATM   24  C8  UNL     1      12.153  65.858  36.964  1.00  0.00     0.368 C 
BRANCH  24  25
HETATM   25  N6  UNL     1      11.643  64.740  36.177  1.00  0.00    -0.063 N 
ATOM     26  H63 UNL     1      11.899  64.834  35.194  1.00  0.00     0.276 HD
ATOM     27  H62 UNL     1      12.145  63.878  36.395  1.00  0.00     0.276 HD
ATOM     28  H61 UNL     1      10.636  64.617  36.285  1.00  0.00     0.276 HD
ENDBRANCH  24  25
ENDBRANCH   9  24
TORSDOF 8
ENDMDL
MODEL 3
REMARK VINA RESULT: -6.525839538      1.002      1.117
REMARK  8 active torsions:
REMARK  status: ('A' for Active; 'I' for Inactive)
REMARK    1  A    between atoms: N1_2  and  C2_4 
REMARK    2  A    between atoms: C2_4  and  O1_5 
REMARK    3  A    between atoms: C2_4  and  N2_7 
REMARK    4  A    between atoms: N2_7  and  C3_9 
REMARK    5  A    between atoms: C3_9  and  O2_10 
REMARK    6  A    between atoms: C3_9  and  C4_12 
REMARK    7  A    between atoms: N5_20  and  C8_22 
REMARK    8  A    between atoms: C8_22  and  N6_23 
ROOT
HETATM    1  C4  UNL     1      18.059  66.998  35.648  1.00  0.00     0.132 A 
HETATM    2  C5  UNL     1      18.264  66.308  36.876  1.00  0.00     0.146 A 
HETATM    3  N3  UNL     1      19.571  65.891  37.242  1.00  0.00    -0.094 NA
HETATM    4  C6  UNL     1      17.180  66.060  37.668  1.00  0.00     0.286 A 
HETATM    5  O3  UNL     1      17.397  65.441  38.760  1.00  0.00    -0.266 OA
HETATM    6  N4  UNL     1      15.927  66.419  37.377  1.00  0.00    -0.154 N 
ATOM      7  H4  UNL     1      15.152  66.206  38.004  1.00  0.00     0.187 HD
HETATM    8  C7  UNL     1      15.739  67.070  36.226  1.00  0.00     0.684 A 
HETATM    9  N5  UNL     1      14.570  67.453  35.863  1.00  0.00    -0.202 N 
ATOM     10  H5  UNL     1      14.481  67.946  34.974  1.00  0.00     0.179 HD
HETATM   11  N7  UNL     1      16.793  67.346  35.398  1.00  0.00    -0.181 N 
HETATM   12  C9  UNL     1      16.458  68.249  34.307  1.00  0.00     0.176 C 
ENDROOT
BRANCH   1  13
HETATM   13  C3  UNL     1      19.232  67.364  34.925  1.00  0.00     0.173 C 
BRANCH  13  14
HETATM   14  N2  UNL     1      19.857  67.068  33.736  1.00  0.00    -0.301 N 
ATOM     15  H2  UNL     1      20.700  66.508  33.869  1.00  0.00     0.171 HD
BRANCH  14  16
HETATM   16  C2  UNL     1      19.613  67.350  32.398  1.00  0.00     0.218 C 
BRANCH  16  17
HETATM   17  N1  UNL     1      18.708  68.207  31.767  1.00  0.00    -0.361 N 
HETATM   18  C1  UNL     1      17.925  67.772  30.598  1.00  0.00     0.150 C 
ATOM     19  H1  UNL     1      18.588  69.155  32.124  1.00  0.00     0.162 HD
ENDBRANCH  16  17
BRANCH  16  20
HETATM   20  O1  UNL     1      20.379  66.664  31.552  1.00  0.00    -0.333 OA
ATOM     21  H1  UNL     1      20.911  65.998  31.972  1.00  0.00     0.220 HD
ENDBRANCH  16  20
ENDBRANCH  14  16
ENDBRANCH  13  14
BRANCH  13  22
HETATM   22  O2  UNL     1      19.968  68.281  35.604  1.00  0.00    -0.344 OA
ATOM     23  H2  UNL     1      19.581  68.425  36.460  1.00  0.00     0.219 HD
ENDBRANCH  13  22
ENDBRANCH   1  13
BRANCH   9  24
HETATM   24  C8  UNL     1      13.373  67.228  36.636  1.00  0.00     0.368 C 
BRANCH  24  25
HETATM   25  N6  UNL     1      12.525  68.413  36.702  1.00  0.00    -0.063 N 
ATOM     26  H63 UNL     1      13.068  69.263  36.546  1.00  0.00     0.276 HD
ATOM     27  H62 UNL     1      11.903  68.466  35.896  1.00  0.00     0.276 HD
ATOM     28  H61 UNL     1      12.002  68.467  37.576  1.00  0.00     0.276 HD
ENDBRANCH  24  25
ENDBRANCH   9  24
TORSDOF 8
ENDMDL
MODEL 4
REMARK VINA RESULT: -6.513383574      2.340      5.787
REMARK  8 active torsions:
REMARK  status: ('A' for Active; 'I' for Inactive)
REMARK    1  A    between atoms: N1_2  and  C2_4 
REMARK    2  A    between atoms: C2_4  and  O1_5 
REMARK    3  A    between atoms: C2_4  and  N2_7 
REMARK    4  A    between atoms: N2_7  and  C3_9 
REMARK    5  A    between atoms: C3_9  and  O2_10 
REMARK    6  A    between atoms: C3_9  and  C4_12 
REMARK    7  A    between atoms: N5_20  and  C8_22 
REMARK    8  A    between atoms: C8_22  and  N6_23 
ROOT
HETATM    1  C4  UNL     1      17.076  66.559  36.676  1.00  0.00     0.132 A 
HETATM    2  C5  UNL     1      18.476  66.508  36.421  1.00  0.00     0.146 A 
HETATM    3  N3  UNL     1      19.342  65.888  37.360  1.00  0.00    -0.094 NA
HETATM    4  C6  UNL     1      18.947  67.073  35.271  1.00  0.00     0.286 A 
HETATM    5  O3  UNL     1      20.204  67.010  35.073  1.00  0.00    -0.266 OA
HETATM    6  N4  UNL     1      18.187  67.676  34.354  1.00  0.00    -0.154 N 
ATOM      7  H4  UNL     1      18.590  68.085  33.511  1.00  0.00     0.187 HD
HETATM    8  C7  UNL     1      16.873  67.719  34.593  1.00  0.00     0.684 A 
HETATM    9  N5  UNL     1      16.065  68.279  33.769  1.00  0.00    -0.202 N 
ATOM     10  H5  UNL     1      15.072  68.285  34.000  1.00  0.00     0.179 HD
HETATM   11  N7  UNL     1      16.351  67.166  35.730  1.00  0.00    -0.181 N 
HETATM   12  C9  UNL     1      14.897  67.096  35.732  1.00  0.00     0.176 C 
ENDROOT
BRANCH   1  13
HETATM   13  C3  UNL     1      16.612  65.833  37.811  1.00  0.00     0.173 C 
BRANCH  13  14
HETATM   14  N2  UNL     1      16.831  64.628  38.435  1.00  0.00    -0.301 N 
ATOM     15  H2  UNL     1      17.221  63.927  37.804  1.00  0.00     0.171 HD
BRANCH  14  16
HETATM   16  C2  UNL     1      16.646  64.137  39.721  1.00  0.00     0.218 C 
BRANCH  16  17
HETATM   17  N1  UNL     1      16.035  62.978  40.207  1.00  0.00    -0.361 N 
HETATM   18  C1  UNL     1      14.582  62.769  40.089  1.00  0.00     0.150 C 
ATOM     19  H1  UNL     1      16.608  62.262  40.653  1.00  0.00     0.162 HD
ENDBRANCH  16  17
BRANCH  16  20
HETATM   20  O1  UNL     1      17.134  64.924  40.678  1.00  0.00    -0.333 OA
ATOM     21  H1  UNL     1      16.824  65.821  40.628  1.00  0.00     0.220 HD
ENDBRANCH  16  20
ENDBRANCH  14  16
ENDBRANCH  13  14
BRANCH  13  22
HETATM   22  O2  UNL     1      15.663  66.527  38.491  1.00  0.00    -0.344 OA
ATOM     23  H2  UNL     1      15.837  67.458  38.412  1.00  0.00     0.219 HD
ENDBRANCH  13  22
ENDBRANCH   1  13
BRANCH   9  24
HETATM   24  C8  UNL     1      16.478  68.902  32.535  1.00  0.00     0.368 C 
BRANCH  24  25
HETATM   25  N6  UNL     1      16.351  70.355  32.578  1.00  0.00    -0.063 N 
ATOM     26  H63 UNL     1      16.665  70.725  33.475  1.00  0.00     0.276 HD
ATOM     27  H62 UNL     1      17.035  70.802  31.968  1.00  0.00     0.276 HD
ATOM     28  H61 UNL     1      15.404  70.667  32.361  1.00  0.00     0.276 HD
ENDBRANCH  24  25
ENDBRANCH   9  24
TORSDOF 8
ENDMDL
MODEL 5
REMARK VINA RESULT: -6.456322824      2.618      4.219
REMARK  8 active torsions:
REMARK  status: ('A' for Active; 'I' for Inactive)
REMARK    1  A    between atoms: N1_2  and  C2_4 
REMARK    2  A    between atoms: C2_4  and  O1_5 
REMARK    3  A    between atoms: C2_4  and  N2_7 
REMARK    4  A    between atoms: N2_7  and  C3_9 
REMARK    5  A    between atoms: C3_9  and  O2_10 
REMARK    6  A    between atoms: C3_9  and  C4_12 
REMARK    7  A    between atoms: N5_20  and  C8_22 
REMARK    8  A    between atoms: C8_22  and  N6_23 
ROOT
HETATM    1  C4  UNL     1      17.052  66.026  37.875  1.00  0.00     0.132 A 
HETATM    2  C5  UNL     1      16.142  66.476  36.877  1.00  0.00     0.146 A 
HETATM    3  N3  UNL     1      16.636  67.108  35.705  1.00  0.00    -0.094 NA
HETATM    4  C6  UNL     1      14.806  66.292  37.086  1.00  0.00     0.286 A 
HETATM    5  O3  UNL     1      14.019  66.706  36.174  1.00  0.00    -0.266 OA
HETATM    6  N4  UNL     1      14.278  65.714  38.168  1.00  0.00    -0.154 N 
ATOM      7  H4  UNL     1      13.271  65.602  38.277  1.00  0.00     0.187 HD
HETATM    8  C7  UNL     1      15.134  65.288  39.102  1.00  0.00     0.684 A 
HETATM    9  N5  UNL     1      14.720  64.722  40.175  1.00  0.00    -0.202 N 
ATOM     10  H5  UNL     1      15.415  64.417  40.856  1.00  0.00     0.179 HD
HETATM   11  N7  UNL     1      16.484  65.447  38.939  1.00  0.00    -0.181 N 
HETATM   12  C9  UNL     1      17.280  64.736  39.927  1.00  0.00     0.176 C 
ENDROOT
BRANCH   1  13
HETATM   13  C3  UNL     1      18.437  66.106  37.551  1.00  0.00     0.173 C 
BRANCH  13  14
HETATM   14  N2  UNL     1      19.460  67.025  37.574  1.00  0.00    -0.301 N 
ATOM     15  H2  UNL     1      20.007  66.976  38.434  1.00  0.00     0.171 HD
BRANCH  14  16
HETATM   16  C2  UNL     1      19.924  68.003  36.705  1.00  0.00     0.218 C 
BRANCH  16  17
HETATM   17  N1  UNL     1      19.764  68.193  35.330  1.00  0.00    -0.361 N 
HETATM   18  C1  UNL     1      19.737  67.056  34.395  1.00  0.00     0.150 C 
ATOM     19  H1  UNL     1      19.665  69.141  34.966  1.00  0.00     0.162 HD
ENDBRANCH  16  17
BRANCH  16  20
HETATM   20  O1  UNL     1      20.677  68.934  37.288  1.00  0.00    -0.333 OA
ATOM     21  H1  UNL     1      20.219  69.431  37.957  1.00  0.00     0.220 HD
ENDBRANCH  16  20
ENDBRANCH  14  16
ENDBRANCH  13  14
BRANCH  13  22
HETATM   22  O2  UNL     1      18.903  64.925  37.070  1.00  0.00    -0.344 OA
ATOM     23  H2  UNL     1      18.506  64.750  36.225  1.00  0.00     0.219 HD
ENDBRANCH  13  22
ENDBRANCH   1  13
BRANCH   9  24
HETATM   24  C8  UNL     1      13.328  64.492  40.478  1.00  0.00     0.368 C 
BRANCH  24  25
HETATM   25  N6  UNL     1      12.762  65.544  41.316  1.00  0.00    -0.063 N 
ATOM     26  H63 UNL     1      11.784  65.714  41.082  1.00  0.00     0.276 HD
ATOM     27  H62 UNL     1      12.647  65.226  42.278  1.00  0.00     0.276 HD
ATOM     28  H61 UNL     1      13.305  66.406  41.275  1.00  0.00     0.276 HD
ENDBRANCH  24  25
ENDBRANCH   9  24
TORSDOF 8
ENDMDL
