MODEL 1
REMARK VINA RESULT: -2.746432053      0.000      0.000
REMARK  1 active torsions:
REMARK  status: ('A' for Active; 'I' for Inactive)
REMARK    1  A    between atoms: C3_6  and  N2_7 
ROOT
HETATM    1  C1  UNL     1       7.476  48.618  56.848  1.00  0.00     0.044 C 
HETATM    2  C2  UNL     1       8.783  47.994  57.322  1.00  0.00     0.242 A 
HETATM    3  N1  UNL     1       9.169  46.706  56.775  1.00  0.00    -0.036 N 
ATOM      4  H11 UNL     1      10.017  46.338  56.342  1.00  0.00     0.280 HD
ATOM      5  H12 UNL     1       8.908  46.175  55.945  1.00  0.00     0.280 HD
HETATM    6  C3  UNL     1       8.681  46.774  58.108  1.00  0.00     0.416 A 
ENDROOT
BRANCH   6   7
HETATM    7  N2  UNL     1       9.532  46.631  59.248  1.00  0.00    -0.048 N 
HETATM    8  C4  UNL     1       8.798  45.781  60.201  1.00  0.00     0.274 C 
HETATM    9  C5  UNL     1      10.728  45.868  58.877  1.00  0.00     0.274 C 
HETATM   10  C6  UNL     1       9.854  47.841  59.924  1.00  0.00     0.274 C 
ENDBRANCH   6   7
TORSDOF 1
ENDMDL
MODEL 2
REMARK VINA RESULT: -2.607388837      5.428      6.758
REMARK  1 active torsions:
REMARK  status: ('A' for Active; 'I' for Inactive)
REMARK    1  A    between atoms: C3_6  and  N2_7 
ROOT
HETATM    1  C1  UNL     1      13.993  48.652  60.548  1.00  0.00     0.044 C 
HETATM    2  C2  UNL     1      12.915  49.447  61.273  1.00  0.00     0.242 A 
HETATM    3  N1  UNL     1      11.812  49.979  60.493  1.00  0.00    -0.036 N 
ATOM      4  H11 UNL     1      10.795  49.946  60.577  1.00  0.00     0.280 HD
ATOM      5  H12 UNL     1      11.414  49.765  59.579  1.00  0.00     0.280 HD
HETATM    6  C3  UNL     1      12.821  50.864  60.958  1.00  0.00     0.416 A 
ENDROOT
BRANCH   6   7
HETATM    7  N2  UNL     1      12.605  51.783  62.032  1.00  0.00    -0.048 N 
HETATM    8  C4  UNL     1      12.814  53.128  61.468  1.00  0.00     0.274 C 
HETATM    9  C5  UNL     1      11.198  51.740  62.441  1.00  0.00     0.274 C 
HETATM   10  C6  UNL     1      13.491  51.648  63.137  1.00  0.00     0.274 C 
ENDBRANCH   6   7
TORSDOF 1
ENDMDL
MODEL 3
REMARK VINA RESULT: -2.604650651      1.932      2.825
REMARK  1 active torsions:
REMARK  status: ('A' for Active; 'I' for Inactive)
REMARK    1  A    between atoms: C3_6  and  N2_7 
ROOT
HETATM    1  C1  UNL     1       8.427  44.690  59.068  1.00  0.00     0.044 C 
HETATM    2  C2  UNL     1       9.032  46.083  58.945  1.00  0.00     0.242 A 
HETATM    3  N1  UNL     1      10.274  46.230  58.209  1.00  0.00    -0.036 N 
ATOM      4  H11 UNL     1      10.590  46.838  57.452  1.00  0.00     0.280 HD
ATOM      5  H12 UNL     1      10.767  45.665  57.518  1.00  0.00     0.280 HD
HETATM    6  C3  UNL     1      10.295  46.313  59.627  1.00  0.00     0.416 A 
ENDROOT
BRANCH   6   7
HETATM    7  N2  UNL     1      10.473  47.548  60.324  1.00  0.00    -0.048 N 
HETATM    8  C4  UNL     1      11.919  47.669  60.580  1.00  0.00     0.274 C 
HETATM    9  C5  UNL     1      10.133  48.666  59.439  1.00  0.00     0.274 C 
HETATM   10  C6  UNL     1       9.814  47.638  61.582  1.00  0.00     0.274 C 
ENDBRANCH   6   7
TORSDOF 1
ENDMDL
MODEL 4
REMARK VINA RESULT: -2.574028419      1.467      1.731
REMARK  1 active torsions:
REMARK  status: ('A' for Active; 'I' for Inactive)
REMARK    1  A    between atoms: C3_6  and  N2_7 
ROOT
HETATM    1  C1  UNL     1       8.327  47.407  57.248  1.00  0.00     0.044 C 
HETATM    2  C2  UNL     1       9.594  47.507  58.088  1.00  0.00     0.242 A 
HETATM    3  N1  UNL     1      10.362  46.297  58.321  1.00  0.00    -0.036 N 
ATOM      4  H11 UNL     1      11.344  46.041  58.215  1.00  0.00     0.280 HD
ATOM      5  H12 UNL     1      10.417  45.386  57.865  1.00  0.00     0.280 HD
HETATM    6  C3  UNL     1       9.581  46.836  59.378  1.00  0.00     0.416 A 
ENDROOT
BRANCH   6   7
HETATM    7  N2  UNL     1      10.161  47.510  60.497  1.00  0.00    -0.048 N 
HETATM    8  C4  UNL     1       9.536  46.924  61.696  1.00  0.00     0.274 C 
HETATM    9  C5  UNL     1      11.585  47.175  60.590  1.00  0.00     0.274 C 
HETATM   10  C6  UNL     1       9.933  48.913  60.548  1.00  0.00     0.274 C 
ENDBRANCH   6   7
TORSDOF 1
ENDMDL
MODEL 5
REMARK VINA RESULT: -2.561723523      2.690      4.463
REMARK  1 active torsions:
REMARK  status: ('A' for Active; 'I' for Inactive)
REMARK    1  A    between atoms: C3_6  and  N2_7 
ROOT
HETATM    1  C1  UNL     1      14.124  48.490  60.529  1.00  0.00     0.044 C 
HETATM    2  C2  UNL     1      12.789  48.202  61.204  1.00  0.00     0.242 A 
HETATM    3  N1  UNL     1      12.492  46.833  61.585  1.00  0.00    -0.036 N 
ATOM      4  H11 UNL     1      12.177  46.382  62.444  1.00  0.00     0.280 HD
ATOM      5  H12 UNL     1      13.054  45.997  61.741  1.00  0.00     0.280 HD
HETATM    6  C3  UNL     1      11.836  47.397  60.457  1.00  0.00     0.416 A 
ENDROOT
BRANCH   6   7
HETATM    7  N2  UNL     1      10.460  47.782  60.480  1.00  0.00    -0.048 N 
HETATM    8  C4  UNL     1      10.021  47.815  59.074  1.00  0.00     0.274 C 
HETATM    9  C5  UNL     1       9.664  46.730  61.118  1.00  0.00     0.274 C 
HETATM   10  C6  UNL     1      10.196  49.066  61.033  1.00  0.00     0.274 C 
ENDBRANCH   6   7
TORSDOF 1
ENDMDL
