MODEL 1
REMARK VINA RESULT: -4.198429230      0.000      0.000
REMARK  0 active torsions:
REMARK  status: ('A' for Active; 'I' for Inactive)
ROOT
HETATM    1  C1  UNL     1       8.027  50.064  54.826  1.00  0.00     0.031 C 
HETATM    2  C2  UNL     1       7.528  50.748  56.073  1.00  0.00     0.031 C 
HETATM    3  C3  UNL     1       6.958  49.631  56.902  1.00  0.00     0.260 C 
HETATM    4  N1  UNL     1       7.813  48.502  56.539  1.00  0.00     0.012 N 
HETATM    5  C4  UNL     1       7.865  48.591  55.125  1.00  0.00     0.260 C 
HETATM    6  C5  UNL     1       9.021  48.368  57.270  1.00  0.00     0.278 C 
HETATM    7  C6  UNL     1       8.652  46.949  57.587  1.00  0.00     0.172 C 
HETATM    8  N2  UNL     1       7.338  47.344  57.109  1.00  0.00    -0.045 NA
ENDROOT
TORSDOF 0
ENDMDL
MODEL 2
REMARK VINA RESULT: -3.522684731      1.164      3.179
REMARK  0 active torsions:
REMARK  status: ('A' for Active; 'I' for Inactive)
ROOT
HETATM    1  C1  UNL     1       9.720  47.751  58.383  1.00  0.00     0.031 C 
HETATM    2  C2  UNL     1       9.063  46.493  57.876  1.00  0.00     0.031 C 
HETATM    3  C3  UNL     1       7.762  46.967  57.292  1.00  0.00     0.260 C 
HETATM    4  N1  UNL     1       8.106  48.299  56.797  1.00  0.00     0.012 N 
HETATM    5  C4  UNL     1       8.823  48.860  57.883  1.00  0.00     0.260 C 
HETATM    6  C5  UNL     1       8.663  48.360  55.494  1.00  0.00     0.278 C 
HETATM    7  C6  UNL     1       7.619  49.369  55.113  1.00  0.00     0.172 C 
HETATM    8  N2  UNL     1       6.978  48.944  56.347  1.00  0.00    -0.045 NA
ENDROOT
TORSDOF 0
ENDMDL
MODEL 3
REMARK VINA RESULT: -3.494478023      1.040      1.787
REMARK  0 active torsions:
REMARK  status: ('A' for Active; 'I' for Inactive)
ROOT
HETATM    1  C1  UNL     1       7.193  50.340  56.030  1.00  0.00     0.031 C 
HETATM    2  C2  UNL     1       7.540  49.571  54.782  1.00  0.00     0.031 C 
HETATM    3  C3  UNL     1       8.667  48.670  55.207  1.00  0.00     0.260 C 
HETATM    4  N1  UNL     1       8.342  48.399  56.606  1.00  0.00     0.012 N 
HETATM    5  C4  UNL     1       8.026  49.687  57.108  1.00  0.00     0.260 C 
HETATM    6  C5  UNL     1       7.449  47.324  56.847  1.00  0.00     0.278 C 
HETATM    7  C6  UNL     1       8.445  46.733  57.802  1.00  0.00     0.172 C 
HETATM    8  N2  UNL     1       9.359  47.691  57.201  1.00  0.00    -0.045 NA
ENDROOT
TORSDOF 0
ENDMDL
MODEL 4
REMARK VINA RESULT: -2.882525317      3.453      4.678
REMARK  0 active torsions:
REMARK  status: ('A' for Active; 'I' for Inactive)
ROOT
HETATM    1  C1  UNL     1      10.166  48.359  59.415  1.00  0.00     0.031 C 
HETATM    2  C2  UNL     1       9.260  47.862  58.317  1.00  0.00     0.031 C 
HETATM    3  C3  UNL     1       9.607  46.406  58.186  1.00  0.00     0.260 C 
HETATM    4  N1  UNL     1       9.971  46.044  59.555  1.00  0.00     0.012 N 
HETATM    5  C4  UNL     1      10.825  47.106  59.943  1.00  0.00     0.260 C 
HETATM    6  C5  UNL     1       8.903  45.667  60.409  1.00  0.00     0.278 C 
HETATM    7  C6  UNL     1       9.635  44.398  60.735  1.00  0.00     0.172 C 
HETATM    8  N2  UNL     1      10.458  44.759  59.592  1.00  0.00    -0.045 NA
ENDROOT
TORSDOF 0
ENDMDL
MODEL 5
REMARK VINA RESULT: -2.835148669      4.199      5.123
REMARK  0 active torsions:
REMARK  status: ('A' for Active; 'I' for Inactive)
ROOT
HETATM    1  C1  UNL     1      11.488  48.860  60.298  1.00  0.00     0.031 C 
HETATM    2  C2  UNL     1      12.180  47.614  60.791  1.00  0.00     0.031 C 
HETATM    3  C3  UNL     1      11.063  46.626  60.984  1.00  0.00     0.260 C 
HETATM    4  N1  UNL     1      10.116  47.014  59.940  1.00  0.00     0.012 N 
HETATM    5  C4  UNL     1      10.058  48.423  60.078  1.00  0.00     0.260 C 
HETATM    6  C5  UNL     1      10.332  46.452  58.656  1.00  0.00     0.278 C 
HETATM    7  C6  UNL     1       8.910  45.972  58.645  1.00  0.00     0.172 C 
HETATM    8  N2  UNL     1       8.953  46.291  60.063  1.00  0.00    -0.045 NA
ENDROOT
TORSDOF 0
ENDMDL
