MODEL 1
REMARK VINA RESULT: -4.646683631      0.000      0.000
REMARK  4 active torsions:
REMARK  status: ('A' for Active; 'I' for Inactive)
REMARK    1  A    between atoms: C3_3  and  N1_4 
REMARK    2  A    between atoms: N1_4  and  C4_7 
REMARK    3  A    between atoms: C4_7  and  C5_8 
REMARK    4  A    between atoms: C6_9  and  C7_10 
ROOT
HETATM    1  C1  UNL     1       9.661  48.228  58.846  1.00  0.00     0.013 C 
HETATM    2  C2  UNL     1       9.405  47.301  58.142  1.00  0.00    -0.090 C 
HETATM    3  C3  UNL     1       9.104  46.167  57.318  1.00  0.00     0.325 C 
ENDROOT
BRANCH   3   4
HETATM    4  N1  UNL     1       8.792  46.481  55.930  1.00  0.00    -0.055 N 
ATOM      5  H12 UNL     1       9.579  46.920  55.453  1.00  0.00     0.279 HD
ATOM      6  H11 UNL     1       8.718  45.641  55.356  1.00  0.00     0.279 HD
BRANCH   4   7
HETATM    7  C4  UNL     1       7.615  47.277  55.858  1.00  0.00     0.326 C 
BRANCH   7   8
HETATM    8  C5  UNL     1       7.769  48.300  54.840  1.00  0.00    -0.079 C 
HETATM    9  C6  UNL     1       7.896  49.187  54.001  1.00  0.00    -0.105 C 
BRANCH   9  10
HETATM   10  C7  UNL     1       8.067  50.276  53.025  1.00  0.00     0.089 C 
HETATM   11  C8  UNL     1       9.052  49.826  52.003  1.00  0.00     0.018 C 
ENDBRANCH   9  10
ENDBRANCH   7   8
ENDBRANCH   4   7
ENDBRANCH   3   4
TORSDOF 4
ENDMDL
MODEL 2
REMARK VINA RESULT: -4.471804976      0.968      1.665
REMARK  4 active torsions:
REMARK  status: ('A' for Active; 'I' for Inactive)
REMARK    1  A    between atoms: C3_3  and  N1_4 
REMARK    2  A    between atoms: N1_4  and  C4_7 
REMARK    3  A    between atoms: C4_7  and  C5_8 
REMARK    4  A    between atoms: C6_9  and  C7_10 
ROOT
HETATM    1  C1  UNL     1       8.170  44.106  58.509  1.00  0.00     0.013 C 
HETATM    2  C2  UNL     1       8.607  45.083  57.985  1.00  0.00    -0.090 C 
HETATM    3  C3  UNL     1       9.142  46.268  57.380  1.00  0.00     0.325 C 
ENDROOT
BRANCH   3   4
HETATM    4  N1  UNL     1       8.787  46.458  55.980  1.00  0.00    -0.055 N 
ATOM      5  H12 UNL     1       9.553  46.867  55.445  1.00  0.00     0.279 HD
ATOM      6  H11 UNL     1       8.712  45.571  55.482  1.00  0.00     0.279 HD
BRANCH   4   7
HETATM    7  C4  UNL     1       7.596  47.228  55.875  1.00  0.00     0.326 C 
BRANCH   7   8
HETATM    8  C5  UNL     1       7.758  48.257  54.863  1.00  0.00    -0.079 C 
HETATM    9  C6  UNL     1       7.893  49.149  54.030  1.00  0.00    -0.105 C 
BRANCH   9  10
HETATM   10  C7  UNL     1       8.074  50.243  53.061  1.00  0.00     0.089 C 
HETATM   11  C8  UNL     1       9.039  49.782  52.026  1.00  0.00     0.018 C 
ENDBRANCH   9  10
ENDBRANCH   7   8
ENDBRANCH   4   7
ENDBRANCH   3   4
TORSDOF 4
ENDMDL
MODEL 3
REMARK VINA RESULT: -4.400572020      0.810      1.073
REMARK  4 active torsions:
REMARK  status: ('A' for Active; 'I' for Inactive)
REMARK    1  A    between atoms: C3_3  and  N1_4 
REMARK    2  A    between atoms: N1_4  and  C4_7 
REMARK    3  A    between atoms: C4_7  and  C5_8 
REMARK    4  A    between atoms: C6_9  and  C7_10 
ROOT
HETATM    1  C1  UNL     1      10.062  48.211  59.068  1.00  0.00     0.013 C 
HETATM    2  C2  UNL     1       9.794  47.224  58.455  1.00  0.00    -0.090 C 
HETATM    3  C3  UNL     1       9.483  46.020  57.741  1.00  0.00     0.325 C 
ENDROOT
BRANCH   3   4
HETATM    4  N1  UNL     1       9.010  46.219  56.378  1.00  0.00    -0.055 N 
ATOM      5  H12 UNL     1       9.727  46.635  55.783  1.00  0.00     0.279 HD
ATOM      6  H11 UNL     1       8.897  45.335  55.881  1.00  0.00     0.279 HD
BRANCH   4   7
HETATM    7  C4  UNL     1       7.811  46.984  56.380  1.00  0.00     0.326 C 
BRANCH   7   8
HETATM    8  C5  UNL     1       7.855  47.979  55.324  1.00  0.00    -0.079 C 
HETATM    9  C6  UNL     1       7.874  48.840  54.448  1.00  0.00    -0.105 C 
BRANCH   9  10
HETATM   10  C7  UNL     1       7.895  49.902  53.430  1.00  0.00     0.089 C 
HETATM   11  C8  UNL     1       7.879  51.214  54.134  1.00  0.00     0.018 C 
ENDBRANCH   9  10
ENDBRANCH   7   8
ENDBRANCH   4   7
ENDBRANCH   3   4
TORSDOF 4
ENDMDL
MODEL 4
REMARK VINA RESULT: -4.232447485      1.559      2.416
REMARK  4 active torsions:
REMARK  status: ('A' for Active; 'I' for Inactive)
REMARK    1  A    between atoms: C3_3  and  N1_4 
REMARK    2  A    between atoms: N1_4  and  C4_7 
REMARK    3  A    between atoms: C4_7  and  C5_8 
REMARK    4  A    between atoms: C6_9  and  C7_10 
ROOT
HETATM    1  C1  UNL     1       7.473  43.351  58.210  1.00  0.00     0.013 C 
HETATM    2  C2  UNL     1       8.271  44.218  58.033  1.00  0.00    -0.090 C 
HETATM    3  C3  UNL     1       9.242  45.257  57.847  1.00  0.00     0.325 C 
ENDROOT
BRANCH   3   4
HETATM    4  N1  UNL     1       9.089  46.030  56.622  1.00  0.00    -0.055 N 
ATOM      5  H12 UNL     1       9.879  46.655  56.465  1.00  0.00     0.279 HD
ATOM      6  H11 UNL     1       9.189  45.449  55.790  1.00  0.00     0.279 HD
BRANCH   4   7
HETATM    7  C4  UNL     1       7.851  46.730  56.633  1.00  0.00     0.326 C 
BRANCH   7   8
HETATM    8  C5  UNL     1       7.841  47.738  55.589  1.00  0.00    -0.079 C 
HETATM    9  C6  UNL     1       7.840  48.568  54.683  1.00  0.00    -0.105 C 
BRANCH   9  10
HETATM   10  C7  UNL     1       7.827  49.532  53.571  1.00  0.00     0.089 C 
HETATM   11  C8  UNL     1       7.833  50.902  54.151  1.00  0.00     0.018 C 
ENDBRANCH   9  10
ENDBRANCH   7   8
ENDBRANCH   4   7
ENDBRANCH   3   4
TORSDOF 4
ENDMDL
MODEL 5
REMARK VINA RESULT: -4.194697799      1.809      5.244
REMARK  4 active torsions:
REMARK  status: ('A' for Active; 'I' for Inactive)
REMARK    1  A    between atoms: C3_3  and  N1_4 
REMARK    2  A    between atoms: N1_4  and  C4_7 
REMARK    3  A    between atoms: C4_7  and  C5_8 
REMARK    4  A    between atoms: C6_9  and  C7_10 
ROOT
HETATM    1  C1  UNL     1       9.009  49.813  51.908  1.00  0.00     0.013 C 
HETATM    2  C2  UNL     1       8.472  50.280  52.864  1.00  0.00    -0.090 C 
HETATM    3  C3  UNL     1       7.840  50.868  54.009  1.00  0.00     0.325 C 
ENDROOT
BRANCH   3   4
HETATM    4  N1  UNL     1       7.080  49.940  54.835  1.00  0.00    -0.055 N 
ATOM      5  H12 UNL     1       6.078  50.131  54.798  1.00  0.00     0.279 HD
ATOM      6  H11 UNL     1       7.068  48.999  54.441  1.00  0.00     0.279 HD
BRANCH   4   7
HETATM    7  C4  UNL     1       7.573  49.950  56.170  1.00  0.00     0.326 C 
BRANCH   7   8
HETATM    8  C5  UNL     1       7.982  48.613  56.557  1.00  0.00    -0.079 C 
HETATM    9  C6  UNL     1       8.359  47.491  56.886  1.00  0.00    -0.105 C 
BRANCH   9  10
HETATM   10  C7  UNL     1       8.844  46.164  57.301  1.00  0.00     0.089 C 
HETATM   11  C8  UNL     1      10.069  46.360  58.123  1.00  0.00     0.018 C 
ENDBRANCH   9  10
ENDBRANCH   7   8
ENDBRANCH   4   7
ENDBRANCH   3   4
TORSDOF 4
ENDMDL
