MODEL 1
REMARK VINA RESULT: -6.756855718      0.000      0.000
REMARK  4 active torsions:
REMARK  status: ('A' for Active; 'I' for Inactive)
REMARK    1  A    between atoms: N1_1  and  C1_4 
REMARK    2  A    between atoms: C3_11  and  N4_12 
REMARK    3  A    between atoms: N4_12  and  S1_14 
REMARK    4  A    between atoms: S1_14  and  N5_15 
ROOT
HETATM    1  C1  UNL     1      -5.589  67.011   6.982  1.00  0.00     0.694 A 
HETATM    2  N2  UNL     1      -5.800  65.698   7.166  1.00  0.00    -0.141 N 
ATOM      3  H2  UNL     1      -6.226  65.129   6.435  1.00  0.00     0.189 HD
HETATM    4  C2  UNL     1      -5.430  65.145   8.359  1.00  0.00     0.352 A 
HETATM    5  O1  UNL     1      -5.619  63.925   8.545  1.00  0.00    -0.246 OA
HETATM    6  N3  UNL     1      -4.868  65.914   9.316  1.00  0.00    -0.139 N 
ATOM      7  H3  UNL     1      -4.598  65.484  10.201  1.00  0.00     0.189 HD
HETATM    8  C3  UNL     1      -4.652  67.236   9.136  1.00  0.00     0.711 A 
HETATM    9  N6  UNL     1      -5.025  67.758   7.956  1.00  0.00    -0.021 N 
ATOM     10  H6  UNL     1      -4.876  68.753   7.789  1.00  0.00     0.203 HD
ENDROOT
BRANCH   8  11
HETATM   11  N4  UNL     1      -4.122  67.885  10.081  1.00  0.00    -0.099 N 
ATOM     12  H4  UNL     1      -4.653  68.682  10.433  1.00  0.00     0.199 HD
BRANCH  11  13
HETATM   13  S1  UNL     1      -2.630  67.591  10.833  1.00  0.00     0.330 S 
HETATM   14  O2  UNL     1      -2.455  68.299  12.132  1.00  0.00    -0.182 OA
HETATM   15  O3  UNL     1      -2.397  66.112  11.110  1.00  0.00    -0.182 OA
BRANCH  13  16
HETATM   16  N5  UNL     1      -1.366  68.056   9.720  1.00  0.00    -0.311 N 
ATOM     17  H52 UNL     1      -0.398  68.251   9.976  1.00  0.00     0.170 HD
ATOM     18  H51 UNL     1      -1.771  68.094   8.785  1.00  0.00     0.170 HD
ENDBRANCH  13  16
ENDBRANCH  11  13
ENDBRANCH   8  11
BRANCH   1  19
HETATM   19  N1  UNL     1      -5.933  67.552   5.863  1.00  0.00    -0.234 N 
ATOM     20  H12 UNL     1      -5.236  67.723   5.138  1.00  0.00     0.174 HD
ATOM     21  H11 UNL     1      -6.909  67.806   5.713  1.00  0.00     0.174 HD
ENDBRANCH   1  19
TORSDOF 4
ENDMDL
MODEL 2
REMARK VINA RESULT: -6.738050583      1.932      2.623
REMARK  4 active torsions:
REMARK  status: ('A' for Active; 'I' for Inactive)
REMARK    1  A    between atoms: N1_1  and  C1_4 
REMARK    2  A    between atoms: C3_11  and  N4_12 
REMARK    3  A    between atoms: N4_12  and  S1_14 
REMARK    4  A    between atoms: S1_14  and  N5_15 
ROOT
HETATM    1  C1  UNL     1      -5.746  64.529   7.907  1.00  0.00     0.694 A 
HETATM    2  N2  UNL     1      -5.851  65.603   7.109  1.00  0.00    -0.141 N 
ATOM      3  H2  UNL     1      -6.434  65.577   6.271  1.00  0.00     0.189 HD
HETATM    4  C2  UNL     1      -5.157  66.730   7.447  1.00  0.00     0.352 A 
HETATM    5  O1  UNL     1      -5.245  67.737   6.713  1.00  0.00    -0.246 OA
HETATM    6  N3  UNL     1      -4.391  66.746   8.558  1.00  0.00    -0.139 N 
ATOM      7  H3  UNL     1      -3.879  67.596   8.794  1.00  0.00     0.189 HD
HETATM    8  C3  UNL     1      -4.281  65.668   9.367  1.00  0.00     0.711 A 
HETATM    9  N6  UNL     1      -4.972  64.571   9.014  1.00  0.00    -0.021 N 
ATOM     10  H6  UNL     1      -4.910  63.740   9.603  1.00  0.00     0.203 HD
ENDROOT
BRANCH   8  11
HETATM   11  N4  UNL     1      -3.544  65.763  10.387  1.00  0.00    -0.099 N 
ATOM     12  H4  UNL     1      -3.822  65.208  11.196  1.00  0.00     0.199 HD
BRANCH  11  13
HETATM   13  S1  UNL     1      -2.146  66.706  10.573  1.00  0.00     0.330 S 
HETATM   14  O2  UNL     1      -1.781  67.495   9.363  1.00  0.00    -0.182 OA
HETATM   15  O3  UNL     1      -2.258  67.699  11.722  1.00  0.00    -0.182 OA
BRANCH  13  16
HETATM   16  N5  UNL     1      -0.833  65.639  11.012  1.00  0.00    -0.311 N 
ATOM     17  H52 UNL     1       0.135  65.739  10.707  1.00  0.00     0.170 HD
ATOM     18  H51 UNL     1      -1.211  64.912  11.620  1.00  0.00     0.170 HD
ENDBRANCH  13  16
ENDBRANCH  11  13
ENDBRANCH   8  11
BRANCH   1  19
HETATM   19  N1  UNL     1      -6.393  63.455   7.605  1.00  0.00    -0.234 N 
ATOM     20  H12 UNL     1      -6.367  62.646   8.226  1.00  0.00     0.174 HD
ATOM     21  H11 UNL     1      -6.930  63.426   6.739  1.00  0.00     0.174 HD
ENDBRANCH   1  19
TORSDOF 4
ENDMDL
MODEL 3
REMARK VINA RESULT: -6.666492295      1.457      2.200
REMARK  4 active torsions:
REMARK  status: ('A' for Active; 'I' for Inactive)
REMARK    1  A    between atoms: N1_1  and  C1_4 
REMARK    2  A    between atoms: C3_11  and  N4_12 
REMARK    3  A    between atoms: N4_12  and  S1_14 
REMARK    4  A    between atoms: S1_14  and  N5_15 
ROOT
HETATM    1  C1  UNL     1      -5.631  65.001   8.197  1.00  0.00     0.694 A 
HETATM    2  N2  UNL     1      -5.771  65.789   7.119  1.00  0.00    -0.141 N 
ATOM      3  H2  UNL     1      -6.176  65.427   6.256  1.00  0.00     0.189 HD
HETATM    4  C2  UNL     1      -5.355  67.087   7.210  1.00  0.00     0.352 A 
HETATM    5  O1  UNL     1      -5.479  67.833   6.215  1.00  0.00    -0.246 OA
HETATM    6  N3  UNL     1      -4.821  67.549   8.360  1.00  0.00    -0.139 N 
ATOM      7  H3  UNL     1      -4.516  68.521   8.409  1.00  0.00     0.189 HD
HETATM    8  C3  UNL     1      -4.678  66.760   9.449  1.00  0.00     0.711 A 
HETATM    9  N6  UNL     1      -5.092  65.488   9.337  1.00  0.00    -0.021 N 
ATOM     10  H6  UNL     1      -4.998  64.867  10.140  1.00  0.00     0.203 HD
ENDROOT
BRANCH   8  11
HETATM   11  N4  UNL     1      -4.168  67.268  10.487  1.00  0.00    -0.099 N 
ATOM     12  H4  UNL     1      -4.825  67.620  11.184  1.00  0.00     0.199 HD
BRANCH  11  13
HETATM   13  S1  UNL     1      -2.522  67.434  10.860  1.00  0.00     0.330 S 
HETATM   14  O2  UNL     1      -2.251  68.304  12.038  1.00  0.00    -0.182 OA
HETATM   15  O3  UNL     1      -1.848  66.098  11.142  1.00  0.00    -0.182 OA
BRANCH  13  16
HETATM   16  N5  UNL     1      -1.712  68.068   9.446  1.00  0.00    -0.311 N 
ATOM     17  H52 UNL     1      -2.044  67.975   8.486  1.00  0.00     0.170 HD
ATOM     18  H51 UNL     1      -0.862  68.538   9.757  1.00  0.00     0.170 HD
ENDBRANCH  13  16
ENDBRANCH  11  13
ENDBRANCH   8  11
BRANCH   1  19
HETATM   19  N1  UNL     1      -6.016  63.772   8.131  1.00  0.00    -0.234 N 
ATOM     20  H12 UNL     1      -6.588  63.452   7.349  1.00  0.00     0.174 HD
ATOM     21  H11 UNL     1      -5.742  63.126   8.871  1.00  0.00     0.174 HD
ENDBRANCH   1  19
TORSDOF 4
ENDMDL
MODEL 4
REMARK VINA RESULT: -6.613352804      1.732      2.411
REMARK  4 active torsions:
REMARK  status: ('A' for Active; 'I' for Inactive)
REMARK    1  A    between atoms: N1_1  and  C1_4 
REMARK    2  A    between atoms: C3_11  and  N4_12 
REMARK    3  A    between atoms: N4_12  and  S1_14 
REMARK    4  A    between atoms: S1_14  and  N5_15 
ROOT
HETATM    1  C1  UNL     1      -5.152  65.329   8.529  1.00  0.00     0.694 A 
HETATM    2  N2  UNL     1      -5.324  65.915   7.333  1.00  0.00    -0.141 N 
ATOM      3  H2  UNL     1      -5.489  65.356   6.496  1.00  0.00     0.189 HD
HETATM    4  C2  UNL     1      -5.270  67.278   7.268  1.00  0.00     0.352 A 
HETATM    5  O1  UNL     1      -5.428  67.837   6.162  1.00  0.00    -0.246 OA
HETATM    6  N3  UNL     1      -5.050  68.001   8.386  1.00  0.00    -0.139 N 
ATOM      7  H3  UNL     1      -5.013  69.019   8.318  1.00  0.00     0.189 HD
HETATM    8  C3  UNL     1      -4.878  67.417   9.593  1.00  0.00     0.711 A 
HETATM    9  N6  UNL     1      -4.933  66.076   9.633  1.00  0.00    -0.021 N 
ATOM     10  H6  UNL     1      -4.806  65.605  10.529  1.00  0.00     0.203 HD
ENDROOT
BRANCH   8  11
HETATM   11  N4  UNL     1      -4.676  68.165  10.591  1.00  0.00    -0.099 N 
ATOM     12  H4  UNL     1      -5.422  68.823  10.817  1.00  0.00     0.199 HD
BRANCH  11  13
HETATM   13  S1  UNL     1      -3.313  68.204  11.600  1.00  0.00     0.330 S 
HETATM   14  O2  UNL     1      -3.630  68.120  13.053  1.00  0.00    -0.182 OA
HETATM   15  O3  UNL     1      -2.334  67.076  11.304  1.00  0.00    -0.182 OA
BRANCH  13  16
HETATM   16  N5  UNL     1      -2.436  69.677  11.261  1.00  0.00    -0.311 N 
ATOM     17  H52 UNL     1      -1.545  69.943  11.682  1.00  0.00     0.170 HD
ATOM     18  H51 UNL     1      -2.972  70.209  10.576  1.00  0.00     0.170 HD
ENDBRANCH  13  16
ENDBRANCH  11  13
ENDBRANCH   8  11
BRANCH   1  19
HETATM   19  N1  UNL     1      -5.198  64.043   8.611  1.00  0.00    -0.234 N 
ATOM     20  H12 UNL     1      -4.832  63.566   9.435  1.00  0.00     0.174 HD
ATOM     21  H11 UNL     1      -5.605  63.510   7.842  1.00  0.00     0.174 HD
ENDBRANCH   1  19
TORSDOF 4
ENDMDL
MODEL 5
REMARK VINA RESULT: -6.572125489      1.443      1.663
REMARK  4 active torsions:
REMARK  status: ('A' for Active; 'I' for Inactive)
REMARK    1  A    between atoms: N1_1  and  C1_4 
REMARK    2  A    between atoms: C3_11  and  N4_12 
REMARK    3  A    between atoms: N4_12  and  S1_14 
REMARK    4  A    between atoms: S1_14  and  N5_15 
ROOT
HETATM    1  C1  UNL     1      -5.462  66.415   7.326  1.00  0.00     0.694 A 
HETATM    2  N2  UNL     1      -6.006  65.213   7.079  1.00  0.00    -0.141 N 
ATOM      3  H2  UNL     1      -6.615  65.070   6.273  1.00  0.00     0.189 HD
HETATM    4  C2  UNL     1      -5.722  64.187   7.935  1.00  0.00     0.352 A 
HETATM    5  O1  UNL     1      -6.221  63.063   7.718  1.00  0.00    -0.246 OA
HETATM    6  N3  UNL     1      -4.915  64.394   8.997  1.00  0.00    -0.139 N 
ATOM      7  H3  UNL     1      -4.715  63.616   9.625  1.00  0.00     0.189 HD
HETATM    8  C3  UNL     1      -4.363  65.602   9.251  1.00  0.00     0.711 A 
HETATM    9  N6  UNL     1      -4.656  66.596   8.396  1.00  0.00    -0.021 N 
ATOM     10  H6  UNL     1      -4.256  67.520   8.560  1.00  0.00     0.203 HD
ENDROOT
BRANCH   8  11
HETATM   11  N4  UNL     1      -3.619  65.714  10.265  1.00  0.00    -0.099 N 
ATOM     12  H4  UNL     1      -3.860  65.130  11.065  1.00  0.00     0.199 HD
BRANCH  11  13
HETATM   13  S1  UNL     1      -2.265  66.719  10.453  1.00  0.00     0.330 S 
HETATM   14  O2  UNL     1      -1.956  67.551   9.257  1.00  0.00    -0.182 OA
HETATM   15  O3  UNL     1      -2.409  67.680  11.626  1.00  0.00    -0.182 OA
BRANCH  13  16
HETATM   16  N5  UNL     1      -0.897  65.708  10.851  1.00  0.00    -0.311 N 
ATOM     17  H52 UNL     1      -0.121  65.978  11.456  1.00  0.00     0.170 HD
ATOM     18  H51 UNL     1      -1.018  64.815  10.374  1.00  0.00     0.170 HD
ENDBRANCH  13  16
ENDBRANCH  11  13
ENDBRANCH   8  11
BRANCH   1  19
HETATM   19  N1  UNL     1      -5.718  67.397   6.530  1.00  0.00    -0.234 N 
ATOM     20  H12 UNL     1      -5.924  68.324   6.904  1.00  0.00     0.174 HD
ATOM     21  H11 UNL     1      -5.711  67.235   5.523  1.00  0.00     0.174 HD
ENDBRANCH   1  19
TORSDOF 4
ENDMDL
