MODEL 1
REMARK VINA RESULT: -8.856344560      0.000      0.000
REMARK  0 active torsions:
REMARK  status: ('A' for Active; 'I' for Inactive)
ROOT
HETATM    1  C1  UNL     1      45.364  20.771  65.961  1.00  0.00     0.309 C 
HETATM    2  N1  UNL     1      44.622  21.986  65.966  1.00  0.00     0.085 N 
HETATM    3  C2  UNL     1      43.275  21.881  65.515  1.00  0.00     0.272 C 
HETATM    4  C3  UNL     1      43.221  21.187  64.183  1.00  0.00     0.030 C 
HETATM    5  C4  UNL     1      41.826  20.700  63.835  1.00  0.00     0.002 C 
HETATM    6  C5  UNL     1      41.287  21.430  62.636  1.00  0.00     0.000 C 
HETATM    7  C6  UNL     1      39.935  22.056  62.956  1.00  0.00     0.000 C 
HETATM    8  C7  UNL     1      40.117  23.553  62.874  1.00  0.00     0.000 C 
HETATM    9  C8  UNL     1      38.829  24.311  62.900  1.00  0.00     0.000 C 
HETATM   10  C9  UNL     1      38.381  24.722  64.262  1.00  0.00     0.002 C 
HETATM   11  C10 UNL     1      38.773  26.159  64.600  1.00  0.00     0.027 C 
HETATM   12  C11 UNL     1      40.001  26.178  65.457  1.00  0.00     0.232 C 
HETATM   13  N2  UNL     1      39.756  26.702  66.786  1.00  0.00    -0.075 N 
ATOM     14  H21 UNL     1      38.789  26.584  67.089  1.00  0.00     0.277 HD
ATOM     15  H22 UNL     1      39.784  27.721  66.824  1.00  0.00     0.277 HD
HETATM   16  C12 UNL     1      40.722  26.069  67.696  1.00  0.00     0.233 C 
HETATM   17  C13 UNL     1      42.030  26.801  67.560  1.00  0.00     0.055 C 
HETATM   18  C14 UNL     1      43.222  25.973  67.926  1.00  0.00     0.234 C 
HETATM   19  N3  UNL     1      43.181  24.632  67.392  1.00  0.00    -0.073 N 
ATOM     20  H31 UNL     1      42.442  24.526  66.697  1.00  0.00     0.277 HD
ATOM     21  H32 UNL     1      42.841  23.963  68.083  1.00  0.00     0.277 HD
HETATM   22  C15 UNL     1      44.475  24.241  66.862  1.00  0.00     0.262 C 
HETATM   23  C16 UNL     1      44.776  22.773  67.155  1.00  0.00     0.299 C 
ENDROOT
TORSDOF 0
ENDMDL
MODEL 2
REMARK VINA RESULT: -8.541735157      1.644      4.800
REMARK  0 active torsions:
REMARK  status: ('A' for Active; 'I' for Inactive)
ROOT
HETATM    1  C1  UNL     1      46.475  22.617  67.480  1.00  0.00     0.309 C 
HETATM    2  N1  UNL     1      45.178  22.461  66.914  1.00  0.00     0.085 N 
HETATM    3  C2  UNL     1      44.468  23.671  66.670  1.00  0.00     0.272 C 
HETATM    4  C3  UNL     1      44.450  24.525  67.906  1.00  0.00     0.030 C 
HETATM    5  C4  UNL     1      44.063  25.964  67.615  1.00  0.00     0.002 C 
HETATM    6  C5  UNL     1      42.751  26.308  68.264  1.00  0.00     0.000 C 
HETATM    7  C6  UNL     1      41.773  26.858  67.232  1.00  0.00     0.000 C 
HETATM    8  C7  UNL     1      40.635  25.869  67.140  1.00  0.00     0.000 C 
HETATM    9  C8  UNL     1      39.462  26.384  66.369  1.00  0.00     0.000 C 
HETATM   10  C9  UNL     1      39.489  26.063  64.913  1.00  0.00     0.002 C 
HETATM   11  C10 UNL     1      38.665  24.823  64.571  1.00  0.00     0.027 C 
HETATM   12  C11 UNL     1      39.555  23.628  64.422  1.00  0.00     0.232 C 
HETATM   13  N2  UNL     1      39.572  23.098  63.073  1.00  0.00    -0.075 N 
ATOM     14  H21 UNL     1      39.351  23.800  62.366  1.00  0.00     0.277 HD
ATOM     15  H22 UNL     1      38.792  22.468  62.883  1.00  0.00     0.277 HD
HETATM   16  C12 UNL     1      40.882  22.465  62.862  1.00  0.00     0.233 C 
HETATM   17  C13 UNL     1      40.838  21.097  63.486  1.00  0.00     0.055 C 
HETATM   18  C14 UNL     1      42.184  20.576  63.885  1.00  0.00     0.234 C 
HETATM   19  N3  UNL     1      43.011  21.555  64.549  1.00  0.00    -0.073 N 
ATOM     20  H31 UNL     1      42.476  22.384  64.809  1.00  0.00     0.277 HD
ATOM     21  H32 UNL     1      43.669  21.991  63.904  1.00  0.00     0.277 HD
HETATM   22  C15 UNL     1      43.689  20.976  65.694  1.00  0.00     0.262 C 
HETATM   23  C16 UNL     1      45.109  21.520  65.834  1.00  0.00     0.299 C 
ENDROOT
TORSDOF 0
ENDMDL
MODEL 3
REMARK VINA RESULT: -8.496814365      1.304      5.219
REMARK  0 active torsions:
REMARK  status: ('A' for Active; 'I' for Inactive)
ROOT
HETATM    1  C1  UNL     1      37.866  26.008  64.303  1.00  0.00     0.309 C 
HETATM    2  N1  UNL     1      39.000  25.647  65.084  1.00  0.00     0.085 N 
HETATM    3  C2  UNL     1      39.965  24.835  64.421  1.00  0.00     0.272 C 
HETATM    4  C3  UNL     1      39.302  23.641  63.794  1.00  0.00     0.030 C 
HETATM    5  C4  UNL     1      40.183  22.959  62.763  1.00  0.00     0.002 C 
HETATM    6  C5  UNL     1      40.561  21.575  63.213  1.00  0.00     0.000 C 
HETATM    7  C6  UNL     1      42.076  21.404  63.195  1.00  0.00     0.000 C 
HETATM    8  C7  UNL     1      42.508  21.198  64.627  1.00  0.00     0.000 C 
HETATM    9  C8  UNL     1      43.928  20.751  64.761  1.00  0.00     0.000 C 
HETATM   10  C9  UNL     1      44.914  21.859  64.918  1.00  0.00     0.002 C 
HETATM   11  C10 UNL     1      45.276  22.120  66.378  1.00  0.00     0.027 C 
HETATM   12  C11 UNL     1      44.508  23.292  66.906  1.00  0.00     0.232 C 
HETATM   13  N2  UNL     1      45.355  24.417  67.252  1.00  0.00    -0.075 N 
ATOM     14  H21 UNL     1      46.229  24.433  66.726  1.00  0.00     0.277 HD
ATOM     15  H22 UNL     1      45.761  24.337  68.184  1.00  0.00     0.277 HD
HETATM   16  C12 UNL     1      44.560  25.641  67.077  1.00  0.00     0.233 C 
HETATM   17  C13 UNL     1      43.700  25.809  68.300  1.00  0.00     0.055 C 
HETATM   18  C14 UNL     1      42.457  26.608  68.054  1.00  0.00     0.234 C 
HETATM   19  N3  UNL     1      41.772  26.253  66.834  1.00  0.00    -0.073 N 
ATOM     20  H31 UNL     1      42.138  25.388  66.435  1.00  0.00     0.277 HD
ATOM     21  H32 UNL     1      42.008  26.888  66.072  1.00  0.00     0.277 HD
HETATM   22  C15 UNL     1      40.337  26.179  67.043  1.00  0.00     0.262 C 
HETATM   23  C16 UNL     1      39.570  26.724  65.841  1.00  0.00     0.299 C 
ENDROOT
TORSDOF 0
ENDMDL
MODEL 4
REMARK VINA RESULT: -8.352860220      1.574      4.221
REMARK  0 active torsions:
REMARK  status: ('A' for Active; 'I' for Inactive)
ROOT
HETATM    1  C1  UNL     1      41.795  20.068  61.868  1.00  0.00     0.309 C 
HETATM    2  N1  UNL     1      42.423  20.969  62.773  1.00  0.00     0.085 N 
HETATM    3  C2  UNL     1      41.538  21.764  63.556  1.00  0.00     0.272 C 
HETATM    4  C3  UNL     1      40.533  22.451  62.675  1.00  0.00     0.030 C 
HETATM    5  C4  UNL     1      39.345  22.987  63.453  1.00  0.00     0.002 C 
HETATM    6  C5  UNL     1      39.304  24.489  63.401  1.00  0.00     0.000 C 
HETATM    7  C6  UNL     1      39.251  25.070  64.809  1.00  0.00     0.000 C 
HETATM    8  C7  UNL     1      40.534  25.840  65.011  1.00  0.00     0.000 C 
HETATM    9  C8  UNL     1      40.528  26.692  66.240  1.00  0.00     0.000 C 
HETATM   10  C9  UNL     1      41.066  26.023  67.460  1.00  0.00     0.002 C 
HETATM   11  C10 UNL     1      42.533  26.360  67.715  1.00  0.00     0.027 C 
HETATM   12  C11 UNL     1      43.417  25.253  67.229  1.00  0.00     0.232 C 
HETATM   13  N2  UNL     1      44.136  24.590  68.300  1.00  0.00    -0.075 N 
ATOM     14  H21 UNL     1      43.660  24.657  69.200  1.00  0.00     0.277 HD
ATOM     15  H22 UNL     1      44.992  25.079  68.566  1.00  0.00     0.277 HD
HETATM   16  C12 UNL     1      44.376  23.202  67.880  1.00  0.00     0.233 C 
HETATM   17  C13 UNL     1      45.571  23.198  66.965  1.00  0.00     0.055 C 
HETATM   18  C14 UNL     1      45.593  22.043  66.013  1.00  0.00     0.234 C 
HETATM   19  N3  UNL     1      44.315  21.776  65.396  1.00  0.00    -0.073 N 
ATOM     20  H31 UNL     1      43.652  22.533  65.563  1.00  0.00     0.277 HD
ATOM     21  H32 UNL     1      43.818  21.025  65.874  1.00  0.00     0.277 HD
HETATM   22  C15 UNL     1      44.466  21.501  63.979  1.00  0.00     0.262 C 
HETATM   23  C16 UNL     1      43.509  20.403  63.520  1.00  0.00     0.299 C 
ENDROOT
TORSDOF 0
ENDMDL
MODEL 5
REMARK VINA RESULT: -8.260411235      1.575      6.869
REMARK  0 active torsions:
REMARK  status: ('A' for Active; 'I' for Inactive)
ROOT
HETATM    1  C1  UNL     1      37.681  25.762  64.071  1.00  0.00     0.309 C 
HETATM    2  N1  UNL     1      38.892  25.016  64.031  1.00  0.00     0.085 N 
HETATM    3  C2  UNL     1      39.645  25.009  65.240  1.00  0.00     0.272 C 
HETATM    4  C3  UNL     1      39.857  26.412  65.733  1.00  0.00     0.030 C 
HETATM    5  C4  UNL     1      40.299  26.460  67.184  1.00  0.00     0.002 C 
HETATM    6  C5  UNL     1      41.696  27.005  67.302  1.00  0.00     0.000 C 
HETATM    7  C6  UNL     1      42.582  26.037  68.077  1.00  0.00     0.000 C 
HETATM    8  C7  UNL     1      43.637  25.547  67.115  1.00  0.00     0.000 C 
HETATM    9  C8  UNL     1      44.745  24.795  67.780  1.00  0.00     0.000 C 
HETATM   10  C9  UNL     1      44.533  23.322  67.860  1.00  0.00     0.002 C 
HETATM   11  C10 UNL     1      45.232  22.566  66.732  1.00  0.00     0.027 C 
HETATM   12  C11 UNL     1      44.257  22.224  65.648  1.00  0.00     0.232 C 
HETATM   13  N2  UNL     1      44.054  20.797  65.498  1.00  0.00    -0.075 N 
ATOM     14  H21 UNL     1      44.236  20.276  66.356  1.00  0.00     0.277 HD
ATOM     15  H22 UNL     1      44.766  20.352  64.918  1.00  0.00     0.277 HD
HETATM   16  C12 UNL     1      42.691  20.595  64.985  1.00  0.00     0.233 C 
HETATM   17  C13 UNL     1      42.719  20.830  63.499  1.00  0.00     0.055 C 
HETATM   18  C14 UNL     1      41.397  21.246  62.932  1.00  0.00     0.234 C 
HETATM   19  N3  UNL     1      40.715  22.242  63.724  1.00  0.00    -0.073 N 
ATOM     20  H31 UNL     1      41.327  22.640  64.436  1.00  0.00     0.277 HD
ATOM     21  H32 UNL     1      40.016  21.821  64.336  1.00  0.00     0.277 HD
HETATM   22  C15 UNL     1      40.136  23.272  62.881  1.00  0.00     0.262 C 
HETATM   23  C16 UNL     1      38.778  23.728  63.411  1.00  0.00     0.299 C 
ENDROOT
TORSDOF 0
ENDMDL
