MODEL 1
REMARK VINA RESULT: -6.908952249      0.000      0.000
REMARK  5 active torsions:
REMARK  status: ('A' for Active; 'I' for Inactive)
REMARK    1  A    between atoms: C2_2  and  N7_22 
REMARK    2  A    between atoms: N1_3  and  N2_5 
REMARK       I    between atoms: N2_5  and  C3_6 
REMARK       I    between atoms: C3_6  and  N3_8 
REMARK    3  A    between atoms: N3_8  and  C4_10 
REMARK    4  A    between atoms: C5_11  and  S1_12 
REMARK    5  A    between atoms: N7_22  and  N8_24 
ROOT
HETATM    1  N2  UNL     1      15.333  48.677 -50.794  1.00  0.00    -0.263 NA
HETATM    2  C3  UNL     1      16.140  47.585 -51.144  1.00  0.00     0.417 C 
HETATM    3  O1  UNL     1      15.955  46.394 -50.882  1.00  0.00    -0.228 OA
HETATM    4  N3  UNL     1      17.343  47.847 -51.906  1.00  0.00    -0.290 N 
ATOM      5  H3  UNL     1      17.565  48.810 -52.156  1.00  0.00     0.172 HD
ENDROOT
BRANCH   4   6
HETATM    6  C4  UNL     1      18.220  46.819 -52.318  1.00  0.00     0.120 A 
HETATM    7  C5  UNL     1      18.165  46.160 -53.515  1.00  0.00     0.173 A 
HETATM    8  N4  UNL     1      19.167  45.279 -53.506  1.00  0.00    -0.287 N 
HETATM    9  N5  UNL     1      19.848  45.343 -52.379  1.00  0.00    -0.285 N 
ATOM     10  H4  UNL     1      19.379  44.639 -54.271  1.00  0.00     0.188 HD
HETATM   11  C7  UNL     1      19.282  46.291 -51.624  1.00  0.00     0.161 A 
ATOM     12  H5  UNL     1      20.657  44.774 -52.129  1.00  0.00     0.188 HD
HETATM   13  N6  UNL     1      19.690  46.691 -50.343  1.00  0.00    -0.079 NA
BRANCH   7  14
HETATM   14  S1  UNL     1      17.039  46.379 -54.829  1.00  0.00     0.191 S 
HETATM   15  C6  UNL     1      15.495  45.571 -54.389  1.00  0.00     0.168 C 
HETATM   16  O2  UNL     1      16.722  47.842 -54.937  1.00  0.00    -0.221 OA
HETATM   17  O3  UNL     1      17.575  45.839 -56.122  1.00  0.00    -0.221 OA
ENDBRANCH   7  14
ENDBRANCH   4   6
BRANCH   1  18
HETATM   18  N1  UNL     1      14.623  49.626 -50.485  1.00  0.00    -0.217 N 
HETATM   19  C2  UNL     1      14.455  50.443 -49.504  1.00  0.00     0.124 C 
HETATM   20  C1  UNL     1      15.343  50.271 -48.336  1.00  0.00     0.093 C 
ATOM     21  H1  UNL     1      13.962  49.832 -51.234  1.00  0.00     0.203 HD
BRANCH  19  22
HETATM   22  N7  UNL     1      13.455  51.426 -49.627  1.00  0.00    -0.228 N 
ATOM     23  H7  UNL     1      13.534  52.317 -49.137  1.00  0.00     0.194 HD
BRANCH  22  24
HETATM   24  N8  UNL     1      12.337  51.147 -50.449  1.00  0.00    -0.037 N 
HETATM   25  O4  UNL     1      11.746  50.083 -50.190  1.00  0.00    -0.516 OA
HETATM   26  O5  UNL     1      11.960  52.010 -51.455  1.00  0.00    -0.516 OA
ENDBRANCH  22  24
ENDBRANCH  19  22
ENDBRANCH   1  18
TORSDOF 5
ENDMDL
MODEL 2
REMARK VINA RESULT: -6.898981511      4.522      6.521
REMARK  5 active torsions:
REMARK  status: ('A' for Active; 'I' for Inactive)
REMARK    1  A    between atoms: C2_2  and  N7_22 
REMARK    2  A    between atoms: N1_3  and  N2_5 
REMARK       I    between atoms: N2_5  and  C3_6 
REMARK       I    between atoms: C3_6  and  N3_8 
REMARK    3  A    between atoms: N3_8  and  C4_10 
REMARK    4  A    between atoms: C5_11  and  S1_12 
REMARK    5  A    between atoms: N7_22  and  N8_24 
ROOT
HETATM    1  N2  UNL     1      15.539  47.540 -56.701  1.00  0.00    -0.263 NA
HETATM    2  C3  UNL     1      15.917  46.790 -55.578  1.00  0.00     0.417 C 
HETATM    3  O1  UNL     1      15.830  45.570 -55.419  1.00  0.00    -0.228 OA
HETATM    4  N3  UNL     1      16.484  47.498 -54.449  1.00  0.00    -0.290 N 
ATOM      5  H3  UNL     1      16.583  48.511 -54.504  1.00  0.00     0.172 HD
ENDROOT
BRANCH   4   6
HETATM    6  C4  UNL     1      16.907  46.839 -53.272  1.00  0.00     0.120 A 
HETATM    7  C5  UNL     1      18.205  46.595 -52.921  1.00  0.00     0.173 A 
HETATM    8  N4  UNL     1      18.166  45.962 -51.748  1.00  0.00    -0.287 N 
HETATM    9  N5  UNL     1      16.924  45.792 -51.339  1.00  0.00    -0.285 N 
ATOM     10  H4  UNL     1      18.989  45.650 -51.233  1.00  0.00     0.188 HD
HETATM   11  C7  UNL     1      16.123  46.327 -52.267  1.00  0.00     0.161 A 
ATOM     12  H5  UNL     1      16.629  45.336 -50.476  1.00  0.00     0.188 HD
HETATM   13  N6  UNL     1      14.721  46.369 -52.234  1.00  0.00    -0.079 NA
BRANCH   7  14
HETATM   14  S1  UNL     1      19.663  47.003 -53.787  1.00  0.00     0.191 S 
HETATM   15  C6  UNL     1      20.391  48.455 -53.016  1.00  0.00     0.168 C 
HETATM   16  O2  UNL     1      20.653  45.893 -53.590  1.00  0.00    -0.221 OA
HETATM   17  O3  UNL     1      19.400  47.248 -55.244  1.00  0.00    -0.221 OA
ENDBRANCH   7  14
ENDBRANCH   4   6
BRANCH   1  18
HETATM   18  N1  UNL     1      15.207  48.188 -57.684  1.00  0.00    -0.217 N 
HETATM   19  C2  UNL     1      15.369  49.365 -58.181  1.00  0.00     0.124 C 
HETATM   20  C1  UNL     1      16.198  50.307 -57.401  1.00  0.00     0.093 C 
ATOM     21  H1  UNL     1      14.622  47.622 -58.299  1.00  0.00     0.203 HD
BRANCH  19  22
HETATM   22  N7  UNL     1      14.756  49.651 -59.416  1.00  0.00    -0.228 N 
ATOM     23  H7  UNL     1      13.789  49.975 -59.458  1.00  0.00     0.194 HD
BRANCH  22  24
HETATM   24  N8  UNL     1      15.514  49.478 -60.598  1.00  0.00    -0.037 N 
HETATM   25  O4  UNL     1      16.532  48.772 -60.471  1.00  0.00    -0.516 OA
HETATM   26  O5  UNL     1      15.129  50.063 -61.784  1.00  0.00    -0.516 OA
ENDBRANCH  22  24
ENDBRANCH  19  22
ENDBRANCH   1  18
TORSDOF 5
ENDMDL
MODEL 3
REMARK VINA RESULT: -6.831472386      4.096      4.881
REMARK  5 active torsions:
REMARK  status: ('A' for Active; 'I' for Inactive)
REMARK    1  A    between atoms: C2_2  and  N7_22 
REMARK    2  A    between atoms: N1_3  and  N2_5 
REMARK       I    between atoms: N2_5  and  C3_6 
REMARK       I    between atoms: C3_6  and  N3_8 
REMARK    3  A    between atoms: N3_8  and  C4_10 
REMARK    4  A    between atoms: C5_11  and  S1_12 
REMARK    5  A    between atoms: N7_22  and  N8_24 
ROOT
HETATM    1  N2  UNL     1      12.955  47.284 -46.602  1.00  0.00    -0.263 NA
HETATM    2  C3  UNL     1      13.973  46.518 -47.188  1.00  0.00     0.417 C 
HETATM    3  O1  UNL     1      14.419  45.433 -46.807  1.00  0.00    -0.228 OA
HETATM    4  N3  UNL     1      14.599  47.028 -48.391  1.00  0.00    -0.290 N 
ATOM      5  H3  UNL     1      14.286  47.924 -48.764  1.00  0.00     0.172 HD
ENDROOT
BRANCH   4   6
HETATM    6  C4  UNL     1      15.626  46.333 -49.067  1.00  0.00     0.120 A 
HETATM    7  C5  UNL     1      15.490  45.679 -50.260  1.00  0.00     0.173 A 
HETATM    8  N4  UNL     1      16.688  45.166 -50.547  1.00  0.00    -0.287 N 
HETATM    9  N5  UNL     1      17.568  45.456 -49.609  1.00  0.00    -0.285 N 
ATOM     10  H4  UNL     1      16.897  44.620 -51.383  1.00  0.00     0.188 HD
HETATM   11  C7  UNL     1      16.935  46.179 -48.679  1.00  0.00     0.161 A 
ATOM     12  H5  UNL     1      18.549  45.179 -49.595  1.00  0.00     0.188 HD
HETATM   13  N6  UNL     1      17.496  46.701 -47.504  1.00  0.00    -0.079 NA
BRANCH   7  14
HETATM   14  S1  UNL     1      14.068  45.512 -51.256  1.00  0.00     0.191 S 
HETATM   15  C6  UNL     1      14.530  45.845 -52.960  1.00  0.00     0.168 C 
HETATM   16  O2  UNL     1      13.635  44.075 -51.219  1.00  0.00    -0.221 OA
HETATM   17  O3  UNL     1      12.964  46.427 -50.813  1.00  0.00    -0.221 OA
ENDBRANCH   7  14
ENDBRANCH   4   6
BRANCH   1  18
HETATM   18  N1  UNL     1      12.066  47.947 -46.084  1.00  0.00    -0.217 N 
HETATM   19  C2  UNL     1      11.590  49.143 -46.120  1.00  0.00     0.124 C 
HETATM   20  C1  UNL     1      12.247  50.092 -47.042  1.00  0.00     0.093 C 
ATOM     21  H1  UNL     1      11.542  47.378 -45.419  1.00  0.00     0.203 HD
BRANCH  19  22
HETATM   22  N7  UNL     1      10.490  49.441 -45.294  1.00  0.00    -0.228 N 
ATOM     23  H7  UNL     1      10.612  49.977 -44.434  1.00  0.00     0.194 HD
BRANCH  22  24
HETATM   24  N8  UNL     1       9.211  48.979 -45.686  1.00  0.00    -0.037 N 
HETATM   25  O4  UNL     1       8.916  47.839 -45.282  1.00  0.00    -0.516 OA
HETATM   26  O5  UNL     1       8.380  49.758 -46.462  1.00  0.00    -0.516 OA
ENDBRANCH  22  24
ENDBRANCH  19  22
ENDBRANCH   1  18
TORSDOF 5
ENDMDL
MODEL 4
REMARK VINA RESULT: -6.789673597      1.010      1.091
REMARK  5 active torsions:
REMARK  status: ('A' for Active; 'I' for Inactive)
REMARK    1  A    between atoms: C2_2  and  N7_22 
REMARK    2  A    between atoms: N1_3  and  N2_5 
REMARK       I    between atoms: N2_5  and  C3_6 
REMARK       I    between atoms: C3_6  and  N3_8 
REMARK    3  A    between atoms: N3_8  and  C4_10 
REMARK    4  A    between atoms: C5_11  and  S1_12 
REMARK    5  A    between atoms: N7_22  and  N8_24 
ROOT
HETATM    1  N2  UNL     1      14.654  48.038 -50.760  1.00  0.00    -0.263 NA
HETATM    2  C3  UNL     1      15.621  47.093 -51.131  1.00  0.00     0.417 C 
HETATM    3  O1  UNL     1      15.594  45.872 -50.953  1.00  0.00    -0.228 OA
HETATM    4  N3  UNL     1      16.808  47.567 -51.812  1.00  0.00    -0.290 N 
ATOM      5  H3  UNL     1      16.904  48.566 -51.990  1.00  0.00     0.172 HD
ENDROOT
BRANCH   4   6
HETATM    6  C4  UNL     1      17.839  46.700 -52.238  1.00  0.00     0.120 A 
HETATM    7  C5  UNL     1      17.964  46.172 -53.493  1.00  0.00     0.173 A 
HETATM    8  N4  UNL     1      19.064  45.417 -53.475  1.00  0.00    -0.287 N 
HETATM    9  N5  UNL     1      19.638  45.438 -52.289  1.00  0.00    -0.285 N 
ATOM     10  H4  UNL     1      19.416  44.892 -54.276  1.00  0.00     0.188 HD
HETATM   11  C7  UNL     1      18.898  46.226 -51.502  1.00  0.00     0.161 A 
ATOM     12  H5  UNL     1      20.489  44.944 -52.021  1.00  0.00     0.188 HD
HETATM   13  N6  UNL     1      19.147  46.531 -50.156  1.00  0.00    -0.079 NA
BRANCH   7  14
HETATM   14  S1  UNL     1      16.929  46.398 -54.879  1.00  0.00     0.191 S 
HETATM   15  C6  UNL     1      15.363  45.580 -54.553  1.00  0.00     0.168 C 
HETATM   16  O2  UNL     1      16.614  47.861 -54.995  1.00  0.00    -0.221 OA
HETATM   17  O3  UNL     1      17.555  45.872 -56.137  1.00  0.00    -0.221 OA
ENDBRANCH   7  14
ENDBRANCH   4   6
BRANCH   1  18
HETATM   18  N1  UNL     1      13.806  48.858 -50.433  1.00  0.00    -0.217 N 
HETATM   19  C2  UNL     1      13.141  49.213 -49.389  1.00  0.00     0.124 C 
HETATM   20  C1  UNL     1      13.407  48.464 -48.144  1.00  0.00     0.093 C 
ATOM     21  H1  UNL     1      13.547  49.437 -51.232  1.00  0.00     0.203 HD
BRANCH  19  22
HETATM   22  N7  UNL     1      12.230  50.280 -49.518  1.00  0.00    -0.228 N 
ATOM     23  H7  UNL     1      11.323  50.252 -49.052  1.00  0.00     0.194 HD
BRANCH  22  24
HETATM   24  N8  UNL     1      12.605  51.391 -50.310  1.00  0.00    -0.037 N 
HETATM   25  O4  UNL     1      13.560  52.054 -49.867  1.00  0.00    -0.516 OA
HETATM   26  O5  UNL     1      11.939  51.689 -51.478  1.00  0.00    -0.516 OA
ENDBRANCH  22  24
ENDBRANCH  19  22
ENDBRANCH   1  18
TORSDOF 5
ENDMDL
MODEL 5
REMARK VINA RESULT: -6.784264869      2.127      2.808
REMARK  5 active torsions:
REMARK  status: ('A' for Active; 'I' for Inactive)
REMARK    1  A    between atoms: C2_2  and  N7_22 
REMARK    2  A    between atoms: N1_3  and  N2_5 
REMARK       I    between atoms: N2_5  and  C3_6 
REMARK       I    between atoms: C3_6  and  N3_8 
REMARK    3  A    between atoms: N3_8  and  C4_10 
REMARK    4  A    between atoms: C5_11  and  S1_12 
REMARK    5  A    between atoms: N7_22  and  N8_24 
ROOT
HETATM    1  N2  UNL     1      14.976  49.005 -51.066  1.00  0.00    -0.263 NA
HETATM    2  C3  UNL     1      15.870  48.061 -51.589  1.00  0.00     0.417 C 
HETATM    3  O1  UNL     1      16.455  47.157 -50.987  1.00  0.00    -0.228 OA
HETATM    4  N3  UNL     1      16.168  48.120 -53.005  1.00  0.00    -0.290 N 
ATOM      5  H3  UNL     1      15.726  48.845 -53.569  1.00  0.00     0.172 HD
ENDROOT
BRANCH   4   6
HETATM    6  C4  UNL     1      17.047  47.211 -53.636  1.00  0.00     0.120 A 
HETATM    7  C5  UNL     1      18.376  47.428 -53.875  1.00  0.00     0.173 A 
HETATM    8  N4  UNL     1      18.833  46.330 -54.480  1.00  0.00    -0.287 N 
HETATM    9  N5  UNL     1      17.876  45.437 -54.636  1.00  0.00    -0.285 N 
ATOM     10  H4  UNL     1      19.798  46.198 -54.782  1.00  0.00     0.188 HD
HETATM   11  C7  UNL     1      16.757  45.959 -54.121  1.00  0.00     0.161 A 
ATOM     12  H5  UNL     1      17.971  44.519 -55.068  1.00  0.00     0.188 HD
HETATM   13  N6  UNL     1      15.496  45.345 -54.073  1.00  0.00    -0.079 NA
BRANCH   7  14
HETATM   14  S1  UNL     1      19.337  48.832 -53.494  1.00  0.00     0.191 S 
HETATM   15  C6  UNL     1      19.610  48.864 -51.718  1.00  0.00     0.168 C 
HETATM   16  O2  UNL     1      20.691  48.657 -54.116  1.00  0.00    -0.221 OA
HETATM   17  O3  UNL     1      18.683  50.101 -53.957  1.00  0.00    -0.221 OA
ENDBRANCH   7  14
ENDBRANCH   4   6
BRANCH   1  18
HETATM   18  N1  UNL     1      14.196  49.827 -50.602  1.00  0.00    -0.217 N 
HETATM   19  C2  UNL     1      14.110  50.641 -49.608  1.00  0.00     0.124 C 
HETATM   20  C1  UNL     1      15.255  50.676 -48.676  1.00  0.00     0.093 C 
ATOM     21  H1  UNL     1      13.357  49.883 -51.179  1.00  0.00     0.203 HD
BRANCH  19  22
HETATM   22  N7  UNL     1      12.948  51.428 -49.498  1.00  0.00    -0.228 N 
ATOM     23  H7  UNL     1      12.401  51.436 -48.636  1.00  0.00     0.194 HD
BRANCH  22  24
HETATM   24  N8  UNL     1      12.557  52.208 -50.613  1.00  0.00    -0.037 N 
HETATM   25  O4  UNL     1      11.932  51.589 -51.494  1.00  0.00    -0.516 OA
HETATM   26  O5  UNL     1      12.863  53.549 -50.687  1.00  0.00    -0.516 OA
ENDBRANCH  22  24
ENDBRANCH  19  22
ENDBRANCH   1  18
TORSDOF 5
ENDMDL
