MODEL 1
REMARK VINA RESULT: -5.974163689      0.000      0.000
REMARK  6 active torsions:
REMARK  status: ('A' for Active; 'I' for Inactive)
REMARK    1  A    between atoms: C2_2  and  O1_5 
REMARK    2  A    between atoms: O1_5  and  C5_6 
REMARK       I    between atoms: C5_6  and  N1_8 
REMARK    3  A    between atoms: N1_8  and  S1_10 
REMARK    4  A    between atoms: S1_10  and  C6_11 
REMARK    5  A    between atoms: C6_11  and  C7_12 
REMARK    6  A    between atoms: C10_17  and  O3_18 
ROOT
HETATM    1  S1  UNL     1      14.285   7.414  29.823  1.00  0.00    -0.049 SA
ENDROOT
BRANCH   1   2
HETATM    2  N1  UNL     1      13.495   8.540  28.747  1.00  0.00    -0.276 N 
HETATM    3  C5  UNL     1      14.044   8.779  27.465  1.00  0.00     0.371 C 
HETATM    4  O2  UNL     1      15.079   8.237  27.018  1.00  0.00    -0.238 OA
ATOM      5  H1  UNL     1      12.645   9.021  29.040  1.00  0.00     0.179 HD
BRANCH   3   6
HETATM    6  O1  UNL     1      13.390   9.679  26.640  1.00  0.00    -0.293 OA
BRANCH   6   7
HETATM    7  C2  UNL     1      12.628   9.185  25.566  1.00  0.00     0.061 C 
HETATM    8  C1  UNL     1      13.240   9.770  24.289  1.00  0.00     0.046 C 
HETATM    9  C3  UNL     1      11.182   9.682  25.636  1.00  0.00     0.046 C 
HETATM   10  C4  UNL     1      12.660   7.695  25.434  1.00  0.00     0.046 C 
ENDBRANCH   6   7
ENDBRANCH   3   6
ENDBRANCH   1   2
BRANCH   1  11
HETATM   11  C6  UNL     1      13.620   5.751  29.570  1.00  0.00     0.131 C 
BRANCH  11  12
HETATM   12  C7  UNL     1      14.764   4.885  29.073  1.00  0.00     0.153 C 
HETATM   13  C8  UNL     1      14.823   4.800  27.589  1.00  0.00     0.146 C 
HETATM   14  N2  UNL     1      15.351   3.590  27.049  1.00  0.00    -0.414 N 
HETATM   15  C9  UNL     1      16.097   2.776  27.941  1.00  0.00     0.174 C 
ATOM     16  H2  UNL     1      15.200   3.325  26.076  1.00  0.00     0.153 HD
HETATM   17  C10 UNL     1      15.715   2.882  29.376  1.00  0.00     0.274 C 
HETATM   18  O4  UNL     1      14.523   3.597  29.575  1.00  0.00    -0.352 OA
BRANCH  17  19
HETATM   19  O3  UNL     1      16.686   3.556  30.132  1.00  0.00    -0.370 OA
ATOM     20  H3  UNL     1      16.909   3.086  30.927  1.00  0.00     0.212 HD
ENDBRANCH  17  19
ENDBRANCH  11  12
ENDBRANCH   1  11
TORSDOF 6
ENDMDL
MODEL 2
REMARK VINA RESULT: -5.908369661      3.785      7.593
REMARK  6 active torsions:
REMARK  status: ('A' for Active; 'I' for Inactive)
REMARK    1  A    between atoms: C2_2  and  O1_5 
REMARK    2  A    between atoms: O1_5  and  C5_6 
REMARK       I    between atoms: C5_6  and  N1_8 
REMARK    3  A    between atoms: N1_8  and  S1_10 
REMARK    4  A    between atoms: S1_10  and  C6_11 
REMARK    5  A    between atoms: C6_11  and  C7_12 
REMARK    6  A    between atoms: C10_17  and  O3_18 
ROOT
HETATM    1  S1  UNL     1      10.905  10.467  25.237  1.00  0.00    -0.049 SA
ENDROOT
BRANCH   1   2
HETATM    2  N1  UNL     1      11.686   9.054  25.904  1.00  0.00    -0.276 N 
HETATM    3  C5  UNL     1      13.074   8.868  25.708  1.00  0.00     0.371 C 
HETATM    4  O2  UNL     1      13.819   9.652  25.079  1.00  0.00    -0.238 OA
ATOM      5  H1  UNL     1      11.145   8.369  26.431  1.00  0.00     0.179 HD
BRANCH   3   6
HETATM    6  O1  UNL     1      13.658   7.736  26.252  1.00  0.00    -0.293 OA
BRANCH   6   7
HETATM    7  C2  UNL     1      13.935   7.711  27.631  1.00  0.00     0.061 C 
HETATM    8  C1  UNL     1      15.346   7.132  27.784  1.00  0.00     0.046 C 
HETATM    9  C3  UNL     1      12.984   6.768  28.371  1.00  0.00     0.046 C 
HETATM   10  C4  UNL     1      13.934   9.061  28.274  1.00  0.00     0.046 C 
ENDBRANCH   6   7
ENDBRANCH   3   6
ENDBRANCH   1   2
BRANCH   1  11
HETATM   11  C6  UNL     1       9.137  10.152  25.028  1.00  0.00     0.131 C 
BRANCH  11  12
HETATM   12  C7  UNL     1       8.434  10.737  26.240  1.00  0.00     0.153 C 
HETATM   13  C8  UNL     1       8.517  12.222  26.295  1.00  0.00     0.146 C 
HETATM   14  N2  UNL     1       8.514  12.803  27.598  1.00  0.00    -0.414 N 
HETATM   15  C9  UNL     1       8.061  11.972  28.656  1.00  0.00     0.174 C 
ATOM     16  H2  UNL     1       8.821  13.762  27.760  1.00  0.00     0.153 HD
HETATM   17  C10 UNL     1       8.273  10.512  28.460  1.00  0.00     0.274 C 
HETATM   18  O4  UNL     1       9.098  10.221  27.362  1.00  0.00    -0.352 OA
BRANCH  17  19
HETATM   19  O3  UNL     1       7.070   9.832  28.215  1.00  0.00    -0.370 OA
ATOM     20  H3  UNL     1       7.052   8.978  28.629  1.00  0.00     0.212 HD
ENDBRANCH  17  19
ENDBRANCH  11  12
ENDBRANCH   1  11
TORSDOF 6
ENDMDL
MODEL 3
REMARK VINA RESULT: -5.850040024      3.588      5.863
REMARK  6 active torsions:
REMARK  status: ('A' for Active; 'I' for Inactive)
REMARK    1  A    between atoms: C2_2  and  O1_5 
REMARK    2  A    between atoms: O1_5  and  C5_6 
REMARK       I    between atoms: C5_6  and  N1_8 
REMARK    3  A    between atoms: N1_8  and  S1_10 
REMARK    4  A    between atoms: S1_10  and  C6_11 
REMARK    5  A    between atoms: C6_11  and  C7_12 
REMARK    6  A    between atoms: C10_17  and  O3_18 
ROOT
HETATM    1  S1  UNL     1      16.346   2.776  27.680  1.00  0.00    -0.049 SA
ENDROOT
BRANCH   1   2
HETATM    2  N1  UNL     1      17.532   4.016  28.009  1.00  0.00    -0.276 N 
HETATM    3  C5  UNL     1      18.804   3.942  27.395  1.00  0.00     0.371 C 
HETATM    4  O2  UNL     1      19.168   3.039  26.611  1.00  0.00    -0.238 OA
ATOM      5  H1  UNL     1      17.308   4.786  28.639  1.00  0.00     0.179 HD
BRANCH   3   6
HETATM    6  O1  UNL     1      19.718   4.943  27.681  1.00  0.00    -0.293 OA
BRANCH   6   7
HETATM    7  C2  UNL     1      19.645   6.153  26.966  1.00  0.00     0.061 C 
HETATM    8  C1  UNL     1      20.588   7.134  27.670  1.00  0.00     0.046 C 
HETATM    9  C3  UNL     1      18.240   6.755  27.036  1.00  0.00     0.046 C 
HETATM   10  C4  UNL     1      20.094   6.044  25.543  1.00  0.00     0.046 C 
ENDBRANCH   6   7
ENDBRANCH   3   6
ENDBRANCH   1   2
BRANCH   1  11
HETATM   11  C6  UNL     1      14.718   3.314  28.253  1.00  0.00     0.131 C 
BRANCH  11  12
HETATM   12  C7  UNL     1      14.807   4.808  28.510  1.00  0.00     0.153 C 
HETATM   13  C8  UNL     1      14.956   5.138  29.954  1.00  0.00     0.146 C 
HETATM   14  N2  UNL     1      14.405   6.384  30.374  1.00  0.00    -0.414 N 
HETATM   15  C9  UNL     1      14.122   7.325  29.348  1.00  0.00     0.174 C 
ATOM     16  H2  UNL     1      14.223   6.589  31.356  1.00  0.00     0.153 HD
HETATM   17  C10 UNL     1      13.795   6.742  28.018  1.00  0.00     0.274 C 
HETATM   18  O4  UNL     1      13.595   5.353  28.062  1.00  0.00    -0.352 OA
BRANCH  17  19
HETATM   19  O3  UNL     1      14.826   6.942  27.087  1.00  0.00    -0.370 OA
ATOM     20  H3  UNL     1      15.600   6.433  27.297  1.00  0.00     0.212 HD
ENDBRANCH  17  19
ENDBRANCH  11  12
ENDBRANCH   1  11
TORSDOF 6
ENDMDL
MODEL 4
REMARK VINA RESULT: -5.820463267      1.639      1.991
REMARK  6 active torsions:
REMARK  status: ('A' for Active; 'I' for Inactive)
REMARK    1  A    between atoms: C2_2  and  O1_5 
REMARK    2  A    between atoms: O1_5  and  C5_6 
REMARK       I    between atoms: C5_6  and  N1_8 
REMARK    3  A    between atoms: N1_8  and  S1_10 
REMARK    4  A    between atoms: S1_10  and  C6_11 
REMARK    5  A    between atoms: C6_11  and  C7_12 
REMARK    6  A    between atoms: C10_17  and  O3_18 
ROOT
HETATM    1  S1  UNL     1      12.516   6.301  29.945  1.00  0.00    -0.049 SA
ENDROOT
BRANCH   1   2
HETATM    2  N1  UNL     1      12.179   6.785  28.301  1.00  0.00    -0.276 N 
HETATM    3  C5  UNL     1      11.553   8.030  28.056  1.00  0.00     0.371 C 
HETATM    4  O2  UNL     1      11.209   8.843  28.942  1.00  0.00    -0.238 OA
ATOM      5  H1  UNL     1      12.432   6.175  27.524  1.00  0.00     0.179 HD
BRANCH   3   6
HETATM    6  O1  UNL     1      11.302   8.379  26.740  1.00  0.00    -0.293 OA
BRANCH   6   7
HETATM    7  C2  UNL     1      12.369   8.830  25.941  1.00  0.00     0.061 C 
HETATM    8  C1  UNL     1      11.821   9.978  25.087  1.00  0.00     0.046 C 
HETATM    9  C3  UNL     1      12.840   7.740  24.976  1.00  0.00     0.046 C 
HETATM   10  C4  UNL     1      13.526   9.367  26.723  1.00  0.00     0.046 C 
ENDBRANCH   6   7
ENDBRANCH   3   6
ENDBRANCH   1   2
BRANCH   1  11
HETATM   11  C6  UNL     1      14.295   6.387  30.260  1.00  0.00     0.131 C 
BRANCH  11  12
HETATM   12  C7  UNL     1      14.931   5.203  29.554  1.00  0.00     0.153 C 
HETATM   13  C8  UNL     1      15.562   5.574  28.259  1.00  0.00     0.146 C 
HETATM   14  N2  UNL     1      15.580   4.560  27.255  1.00  0.00    -0.414 N 
HETATM   15  C9  UNL     1      15.353   3.231  27.700  1.00  0.00     0.174 C 
ATOM     16  H2  UNL     1      15.747   4.778  26.273  1.00  0.00     0.153 HD
HETATM   17  C10 UNL     1      14.509   3.099  28.920  1.00  0.00     0.274 C 
HETATM   18  O4  UNL     1      13.888   4.303  29.289  1.00  0.00    -0.352 OA
BRANCH  17  19
HETATM   19  O3  UNL     1      15.258   2.706  30.039  1.00  0.00    -0.370 OA
ATOM     20  H3  UNL     1      16.177   2.927  29.950  1.00  0.00     0.212 HD
ENDBRANCH  17  19
ENDBRANCH  11  12
ENDBRANCH   1  11
TORSDOF 6
ENDMDL
MODEL 5
REMARK VINA RESULT: -5.755434517      1.168      1.219
REMARK  6 active torsions:
REMARK  status: ('A' for Active; 'I' for Inactive)
REMARK    1  A    between atoms: C2_2  and  O1_5 
REMARK    2  A    between atoms: O1_5  and  C5_6 
REMARK       I    between atoms: C5_6  and  N1_8 
REMARK    3  A    between atoms: N1_8  and  S1_10 
REMARK    4  A    between atoms: S1_10  and  C6_11 
REMARK    5  A    between atoms: C6_11  and  C7_12 
REMARK    6  A    between atoms: C10_17  and  O3_18 
ROOT
HETATM    1  S1  UNL     1      13.965   7.174  29.712  1.00  0.00    -0.049 SA
ENDROOT
BRANCH   1   2
HETATM    2  N1  UNL     1      13.422   8.396  28.588  1.00  0.00    -0.276 N 
HETATM    3  C5  UNL     1      14.134   8.600  27.384  1.00  0.00     0.371 C 
HETATM    4  O2  UNL     1      15.153   7.961  27.039  1.00  0.00    -0.238 OA
ATOM      5  H1  UNL     1      12.597   8.958  28.799  1.00  0.00     0.179 HD
BRANCH   3   6
HETATM    6  O1  UNL     1      13.674   9.578  26.518  1.00  0.00    -0.293 OA
BRANCH   6   7
HETATM    7  C2  UNL     1      12.794   9.210  25.484  1.00  0.00     0.061 C 
HETATM    8  C1  UNL     1      13.284   9.920  24.218  1.00  0.00     0.046 C 
HETATM    9  C3  UNL     1      11.375   9.714  25.758  1.00  0.00     0.046 C 
HETATM   10  C4  UNL     1      12.777   7.742  25.196  1.00  0.00     0.046 C 
ENDBRANCH   6   7
ENDBRANCH   3   6
ENDBRANCH   1   2
BRANCH   1  11
HETATM   11  C6  UNL     1      13.321   5.557  29.222  1.00  0.00     0.131 C 
BRANCH  11  12
HETATM   12  C7  UNL     1      14.420   4.858  28.440  1.00  0.00     0.153 C 
HETATM   13  C8  UNL     1      14.112   3.430  28.161  1.00  0.00     0.146 C 
HETATM   14  N2  UNL     1      15.232   2.553  28.062  1.00  0.00    -0.414 N 
HETATM   15  C9  UNL     1      16.497   3.168  27.863  1.00  0.00     0.174 C 
ATOM     16  H2  UNL     1      15.131   1.540  28.132  1.00  0.00     0.153 HD
HETATM   17  C10 UNL     1      16.635   4.542  28.418  1.00  0.00     0.274 C 
HETATM   18  O4  UNL     1      15.565   4.908  29.250  1.00  0.00    -0.352 OA
BRANCH  17  19
HETATM   19  O3  UNL     1      16.675   5.517  27.409  1.00  0.00    -0.370 OA
ATOM     20  H3  UNL     1      17.064   6.328  27.712  1.00  0.00     0.212 HD
ENDBRANCH  17  19
ENDBRANCH  11  12
ENDBRANCH   1  11
TORSDOF 6
ENDMDL
