MODEL 1
REMARK VINA RESULT: -5.898467750      0.000      0.000
REMARK  4 active torsions:
REMARK  status: ('A' for Active; 'I' for Inactive)
REMARK    1  A    between atoms: O1_2  and  C2_3 
REMARK    2  A    between atoms: N3_8  and  O2_9 
REMARK    3  A    between atoms: C4_11  and  C5_12 
REMARK    4  A    between atoms: C6_13  and  C7_14 
ROOT
HETATM    1  C2  UNL     1      12.912  -0.800  22.290  1.00  0.00     0.174 A 
HETATM    2  N1  UNL     1      12.380  -0.923  21.064  1.00  0.00    -0.307 N 
ATOM      3  H1  UNL     1      11.539  -1.452  20.837  1.00  0.00     0.170 HD
HETATM    4  C3  UNL     1      13.124  -0.244  20.188  1.00  0.00     0.221 A 
HETATM    5  N2  UNL     1      12.912  -0.116  18.790  1.00  0.00    -0.061 NA
HETATM    6  N3  UNL     1      14.143   0.311  20.901  1.00  0.00    -0.191 N 
HETATM    7  C4  UNL     1      14.053  -0.004  22.202  1.00  0.00     0.116 A 
ENDROOT
BRANCH   7   8
HETATM    8  C5  UNL     1      14.898   0.350  23.334  1.00  0.00     0.039 C 
HETATM    9  C6  UNL     1      15.045   1.585  23.782  1.00  0.00     0.032 C 
BRANCH   9  10
HETATM   10  C7  UNL     1      15.926   1.820  24.936  1.00  0.00     0.032 A 
HETATM   11  C8  UNL     1      16.144   3.063  25.505  1.00  0.00     0.031 A 
HETATM   12  C9  UNL     1      17.026   2.836  26.547  1.00  0.00     0.019 A 
HETATM   13  C10 UNL     1      17.327   1.492  26.598  1.00  0.00     0.088 A 
HETATM   14  N4  UNL     1      16.646   0.901  25.608  1.00  0.00    -0.366 N 
ATOM     15  H4  UNL     1      16.669  -0.095  25.395  1.00  0.00     0.165 HD
ENDBRANCH   9  10
ENDBRANCH   7   8
BRANCH   1  16
HETATM   16  O1  UNL     1      12.419  -1.367  23.477  1.00  0.00    -0.339 OA
HETATM   17  C1  UNL     1      11.163  -2.002  23.458  1.00  0.00     0.211 C 
ENDBRANCH   1  16
BRANCH   6  18
HETATM   18  O2  UNL     1      15.111   1.085  20.322  1.00  0.00    -0.280 OA
ATOM     19  H2  UNL     1      15.329   1.953  20.640  1.00  0.00     0.245 HD
ENDBRANCH   6  18
TORSDOF 4
ENDMDL
MODEL 2
REMARK VINA RESULT: -5.860201473      2.675      6.406
REMARK  4 active torsions:
REMARK  status: ('A' for Active; 'I' for Inactive)
REMARK    1  A    between atoms: O1_2  and  C2_3 
REMARK    2  A    between atoms: N3_8  and  O2_9 
REMARK    3  A    between atoms: C4_11  and  C5_12 
REMARK    4  A    between atoms: C6_13  and  C7_14 
ROOT
HETATM    1  C2  UNL     1      13.830   0.004  23.046  1.00  0.00     0.174 A 
HETATM    2  N1  UNL     1      14.699   0.984  23.337  1.00  0.00    -0.307 N 
ATOM      3  H1  UNL     1      14.928   1.310  24.275  1.00  0.00     0.170 HD
HETATM    4  C3  UNL     1      15.219   1.466  22.205  1.00  0.00     0.221 A 
HETATM    5  N2  UNL     1      16.173   2.508  22.068  1.00  0.00    -0.061 NA
HETATM    6  N3  UNL     1      14.648   0.759  21.191  1.00  0.00    -0.191 N 
HETATM    7  C4  UNL     1      13.785  -0.155  21.662  1.00  0.00     0.116 A 
ENDROOT
BRANCH   7   8
HETATM    8  C5  UNL     1      12.950  -1.129  20.973  1.00  0.00     0.039 C 
HETATM    9  C6  UNL     1      11.914  -0.805  20.219  1.00  0.00     0.032 C 
BRANCH   9  10
HETATM   10  C7  UNL     1      11.145  -1.879  19.572  1.00  0.00     0.032 A 
HETATM   11  C8  UNL     1      11.559  -3.198  19.508  1.00  0.00     0.031 A 
HETATM   12  C9  UNL     1      10.555  -3.861  18.824  1.00  0.00     0.019 A 
HETATM   13  C10 UNL     1       9.568  -2.959  18.487  1.00  0.00     0.088 A 
HETATM   14  N4  UNL     1       9.955  -1.765  18.954  1.00  0.00    -0.366 N 
ATOM     15  H4  UNL     1       9.426  -0.899  18.856  1.00  0.00     0.165 HD
ENDBRANCH   9  10
ENDBRANCH   7   8
BRANCH   1  16
HETATM   16  O1  UNL     1      13.081  -0.750  23.965  1.00  0.00    -0.339 OA
HETATM   17  C1  UNL     1      12.723  -0.166  25.194  1.00  0.00     0.211 C 
ENDBRANCH   1  16
BRANCH   6  18
HETATM   18  O2  UNL     1      14.947   0.985  19.876  1.00  0.00    -0.280 OA
ATOM     19  H2  UNL     1      14.309   1.320  19.257  1.00  0.00     0.245 HD
ENDBRANCH   6  18
TORSDOF 4
ENDMDL
MODEL 3
REMARK VINA RESULT: -5.854336669      3.269      4.594
REMARK  4 active torsions:
REMARK  status: ('A' for Active; 'I' for Inactive)
REMARK    1  A    between atoms: O1_2  and  C2_3 
REMARK    2  A    between atoms: N3_8  and  O2_9 
REMARK    3  A    between atoms: C4_11  and  C5_12 
REMARK    4  A    between atoms: C6_13  and  C7_14 
ROOT
HETATM    1  C2  UNL     1      11.467  -3.307  19.497  1.00  0.00     0.174 A 
HETATM    2  N1  UNL     1      10.412  -3.601  18.720  1.00  0.00    -0.307 N 
ATOM      3  H1  UNL     1      10.241  -4.503  18.276  1.00  0.00     0.170 HD
HETATM    4  C3  UNL     1       9.622  -2.530  18.620  1.00  0.00     0.221 A 
HETATM    5  N2  UNL     1       8.408  -2.416  17.893  1.00  0.00    -0.061 NA
HETATM    6  N3  UNL     1      10.212  -1.550  19.359  1.00  0.00    -0.191 N 
HETATM    7  C4  UNL     1      11.353  -1.983  19.918  1.00  0.00     0.116 A 
ENDROOT
BRANCH   7   8
HETATM    8  C5  UNL     1      12.315  -1.309  20.778  1.00  0.00     0.039 C 
HETATM    9  C6  UNL     1      13.158  -0.385  20.353  1.00  0.00     0.032 C 
BRANCH   9  10
HETATM   10  C7  UNL     1      14.085   0.227  21.317  1.00  0.00     0.032 A 
HETATM   11  C8  UNL     1      13.996   0.063  22.689  1.00  0.00     0.031 A 
HETATM   12  C9  UNL     1      15.046   0.798  23.212  1.00  0.00     0.019 A 
HETATM   13  C10 UNL     1      15.742   1.386  22.178  1.00  0.00     0.088 A 
HETATM   14  N4  UNL     1      15.136   1.022  21.041  1.00  0.00    -0.366 N 
ATOM     15  H4  UNL     1      15.426   1.304  20.106  1.00  0.00     0.165 HD
ENDBRANCH   9  10
ENDBRANCH   7   8
BRANCH   1  16
HETATM   16  O1  UNL     1      12.519  -4.171  19.841  1.00  0.00    -0.339 OA
HETATM   17  C1  UNL     1      12.305  -5.561  19.786  1.00  0.00     0.211 C 
ENDBRANCH   1  16
BRANCH   6  18
HETATM   18  O2  UNL     1       9.675  -0.299  19.485  1.00  0.00    -0.280 OA
ATOM     19  H2  UNL     1       9.805   0.382  18.835  1.00  0.00     0.245 HD
ENDBRANCH   6  18
TORSDOF 4
ENDMDL
MODEL 4
REMARK VINA RESULT: -5.618296183      2.628      6.140
REMARK  4 active torsions:
REMARK  status: ('A' for Active; 'I' for Inactive)
REMARK    1  A    between atoms: O1_2  and  C2_3 
REMARK    2  A    between atoms: N3_8  and  O2_9 
REMARK    3  A    between atoms: C4_11  and  C5_12 
REMARK    4  A    between atoms: C6_13  and  C7_14 
ROOT
HETATM    1  C2  UNL     1      14.267  -0.139  23.362  1.00  0.00     0.174 A 
HETATM    2  N1  UNL     1      14.817   1.051  23.646  1.00  0.00    -0.307 N 
ATOM      3  H1  UNL     1      14.945   1.433  24.582  1.00  0.00     0.170 HD
HETATM    4  C3  UNL     1      15.170   1.659  22.510  1.00  0.00     0.221 A 
HETATM    5  N2  UNL     1      15.783   2.932  22.365  1.00  0.00    -0.061 NA
HETATM    6  N3  UNL     1      14.825   0.812  21.501  1.00  0.00    -0.191 N 
HETATM    7  C4  UNL     1      14.265  -0.310  21.979  1.00  0.00     0.116 A 
ENDROOT
BRANCH   7   8
HETATM    8  C5  UNL     1      13.744  -1.486  21.296  1.00  0.00     0.039 C 
HETATM    9  C6  UNL     1      12.575  -1.521  20.682  1.00  0.00     0.032 C 
BRANCH   9  10
HETATM   10  C7  UNL     1      12.156  -2.769  20.026  1.00  0.00     0.032 A 
HETATM   11  C8  UNL     1      11.188  -2.839  19.038  1.00  0.00     0.031 A 
HETATM   12  C9  UNL     1      11.105  -4.179  18.705  1.00  0.00     0.019 A 
HETATM   13  C10 UNL     1      12.000  -4.891  19.474  1.00  0.00     0.088 A 
HETATM   14  N4  UNL     1      12.622  -4.009  20.266  1.00  0.00    -0.366 N 
ATOM     15  H4  UNL     1      13.342  -4.241  20.950  1.00  0.00     0.165 HD
ENDBRANCH   9  10
ENDBRANCH   7   8
BRANCH   1  16
HETATM   16  O1  UNL     1      13.771  -1.073  24.287  1.00  0.00    -0.339 OA
HETATM   17  C1  UNL     1      12.672  -0.719  25.091  1.00  0.00     0.211 C 
ENDBRANCH   1  16
BRANCH   6  18
HETATM   18  O2  UNL     1      15.041   1.110  20.184  1.00  0.00    -0.280 OA
ATOM     19  H2  UNL     1      14.875   0.488  19.485  1.00  0.00     0.245 HD
ENDBRANCH   6  18
TORSDOF 4
ENDMDL
MODEL 5
REMARK VINA RESULT: -5.609160646      2.811      3.744
REMARK  4 active torsions:
REMARK  status: ('A' for Active; 'I' for Inactive)
REMARK    1  A    between atoms: O1_2  and  C2_3 
REMARK    2  A    between atoms: N3_8  and  O2_9 
REMARK    3  A    between atoms: C4_11  and  C5_12 
REMARK    4  A    between atoms: C6_13  and  C7_14 
ROOT
HETATM    1  C2  UNL     1      10.358  -1.950  21.257  1.00  0.00     0.174 A 
HETATM    2  N1  UNL     1       9.356  -2.231  20.408  1.00  0.00    -0.307 N 
ATOM      3  H1  UNL     1       8.455  -2.627  20.672  1.00  0.00     0.170 HD
HETATM    4  C3  UNL     1       9.724  -1.910  19.166  1.00  0.00     0.221 A 
HETATM    5  N2  UNL     1       8.962  -2.048  17.976  1.00  0.00    -0.061 NA
HETATM    6  N3  UNL     1      10.991  -1.418  19.257  1.00  0.00    -0.191 N 
HETATM    7  C4  UNL     1      11.423  -1.423  20.528  1.00  0.00     0.116 A 
ENDROOT
BRANCH   7   8
HETATM    8  C5  UNL     1      12.689  -1.001  21.111  1.00  0.00     0.039 C 
HETATM    9  C6  UNL     1      13.227   0.190  20.912  1.00  0.00     0.032 C 
BRANCH   9  10
HETATM   10  C7  UNL     1      14.512   0.503  21.556  1.00  0.00     0.032 A 
HETATM   11  C8  UNL     1      14.996   1.787  21.736  1.00  0.00     0.031 A 
HETATM   12  C9  UNL     1      16.216   1.630  22.371  1.00  0.00     0.019 A 
HETATM   13  C10 UNL     1      16.453   0.286  22.564  1.00  0.00     0.088 A 
HETATM   14  N4  UNL     1      15.402  -0.372  22.059  1.00  0.00    -0.366 N 
ATOM     15  H4  UNL     1      15.293  -1.386  22.056  1.00  0.00     0.165 HD
ENDBRANCH   9  10
ENDBRANCH   7   8
BRANCH   1  16
HETATM   16  O1  UNL     1      10.356  -2.145  22.647  1.00  0.00    -0.339 OA
HETATM   17  C1  UNL     1       9.185  -1.858  23.374  1.00  0.00     0.211 C 
ENDBRANCH   1  16
BRANCH   6  18
HETATM   18  O2  UNL     1      11.693  -0.985  18.167  1.00  0.00    -0.280 OA
ATOM     19  H2  UNL     1      12.616  -1.176  18.044  1.00  0.00     0.245 HD
ENDBRANCH   6  18
TORSDOF 4
ENDMDL
