MODEL 1
REMARK VINA RESULT: -7.672554559      0.000      0.000
REMARK  6 active torsions:
REMARK  status: ('A' for Active; 'I' for Inactive)
REMARK       I    between atoms: N1_2  and  C2_4 
REMARK    1  A    between atoms: C2_4  and  C3_6 
REMARK    2  A    between atoms: C3_6  and  O2_7 
REMARK    3  A    between atoms: C4_9  and  N2_10 
REMARK    4  A    between atoms: N2_10  and  S1_12 
REMARK    5  A    between atoms: N5_18  and  N6_19 
REMARK    6  A    between atoms: N7_21  and  C5_23 
ROOT
HETATM    1  C3  UNL     1      37.162   1.709  23.840  1.00  0.00     0.286 C 
HETATM    2  C4  UNL     1      36.756   0.279  24.190  1.00  0.00     0.275 C 
HETATM    3  N3  UNL     1      36.395   0.430  25.582  1.00  0.00    -0.093 NA
HETATM    4  N4  UNL     1      35.842   1.696  25.734  1.00  0.00    -0.006 NA
HETATM    5  N5  UNL     1      36.275   2.468  24.662  1.00  0.00    -0.156 N 
ENDROOT
BRANCH   5   6
HETATM    6  N6  UNL     1      35.894   3.786  24.438  1.00  0.00    -0.223 N 
HETATM    7  N7  UNL     1      34.736   4.233  24.678  1.00  0.00    -0.268 N 
ATOM      8  H7  UNL     1      34.008   3.629  25.059  1.00  0.00     0.190 HD
ATOM      9  H6  UNL     1      36.588   4.429  24.057  1.00  0.00     0.210 HD
BRANCH   7  10
HETATM   10  C5  UNL     1      34.481   5.605  24.402  1.00  0.00     0.151 A 
HETATM   11  C6  UNL     1      34.933   6.300  23.305  1.00  0.00     0.155 A 
HETATM   12  N8  UNL     1      34.475   7.567  23.416  1.00  0.00    -0.292 N 
HETATM   13  N9  UNL     1      33.763   7.673  24.532  1.00  0.00    -0.021 NA
ATOM     14  H8  UNL     1      34.648   8.320  22.751  1.00  0.00     0.183 HD
HETATM   15  N10 UNL     1      33.765   6.488  25.129  1.00  0.00    -0.267 N 
ATOM     16  H10 UNL     1      33.295   6.276  26.010  1.00  0.00     0.186 HD
ENDBRANCH   7  10
ENDBRANCH   5   6
BRANCH   1  17
HETATM   17  C2  UNL     1      38.592   1.946  24.153  1.00  0.00     0.280 C 
HETATM   18  N1  UNL     1      39.145   1.523  25.387  1.00  0.00    -0.361 N 
HETATM   19  C1  UNL     1      40.520   1.745  25.699  1.00  0.00     0.149 C 
ATOM     20  H1  UNL     1      38.549   1.050  26.066  1.00  0.00     0.162 HD
HETATM   21  O1  UNL     1      39.344   2.527  23.332  1.00  0.00    -0.268 OA
ENDBRANCH   1  17
BRANCH   1  22
HETATM   22  O2  UNL     1      36.961   1.876  22.488  1.00  0.00    -0.358 OA
ATOM     23  H2  UNL     1      36.108   2.270  22.345  1.00  0.00     0.213 HD
ENDBRANCH   1  22
BRANCH   2  24
HETATM   24  N2  UNL     1      37.824  -0.640  23.962  1.00  0.00    -0.275 N 
ATOM     25  H2  UNL     1      38.818  -0.439  24.068  1.00  0.00     0.176 HD
BRANCH  24  26
HETATM   26  S1  UNL     1      37.139  -2.164  23.472  1.00  0.00     0.206 S 
HETATM   27  O3  UNL     1      37.951  -2.768  22.357  1.00  0.00    -0.578 OA
HETATM   28  O4  UNL     1      35.699  -1.987  23.085  1.00  0.00    -0.578 OA
HETATM   29  O5  UNL     1      37.252  -3.203  24.801  1.00  0.00    -0.578 OA
ENDBRANCH  24  26
ENDBRANCH   2  24
TORSDOF 6
ENDMDL
MODEL 2
REMARK VINA RESULT: -7.556685469      1.024      1.549
REMARK  6 active torsions:
REMARK  status: ('A' for Active; 'I' for Inactive)
REMARK       I    between atoms: N1_2  and  C2_4 
REMARK    1  A    between atoms: C2_4  and  C3_6 
REMARK    2  A    between atoms: C3_6  and  O2_7 
REMARK    3  A    between atoms: C4_9  and  N2_10 
REMARK    4  A    between atoms: N2_10  and  S1_12 
REMARK    5  A    between atoms: N5_18  and  N6_19 
REMARK    6  A    between atoms: N7_21  and  C5_23 
ROOT
HETATM    1  C3  UNL     1      37.496   1.386  23.667  1.00  0.00     0.286 C 
HETATM    2  C4  UNL     1      36.854   0.040  23.997  1.00  0.00     0.275 C 
HETATM    3  N3  UNL     1      36.455   0.255  25.370  1.00  0.00    -0.093 NA
HETATM    4  N4  UNL     1      36.102   1.595  25.495  1.00  0.00    -0.006 NA
HETATM    5  N5  UNL     1      36.702   2.281  24.446  1.00  0.00    -0.156 N 
ENDROOT
BRANCH   5   6
HETATM    6  N6  UNL     1      36.544   3.640  24.203  1.00  0.00    -0.223 N 
HETATM    7  N7  UNL     1      35.856   4.109  23.252  1.00  0.00    -0.268 N 
ATOM      8  H7  UNL     1      35.371   3.493  22.600  1.00  0.00     0.190 HD
ATOM      9  H6  UNL     1      37.011   4.297  24.829  1.00  0.00     0.210 HD
BRANCH   7  10
HETATM   10  C5  UNL     1      35.778   5.523  23.120  1.00  0.00     0.151 A 
HETATM   11  C6  UNL     1      34.619   6.259  23.041  1.00  0.00     0.155 A 
HETATM   12  N8  UNL     1      34.977   7.558  22.924  1.00  0.00    -0.292 N 
HETATM   13  N9  UNL     1      36.302   7.644  22.929  1.00  0.00    -0.021 NA
ATOM     14  H8  UNL     1      34.332   8.345  22.844  1.00  0.00     0.183 HD
HETATM   15  N10 UNL     1      36.788   6.415  23.048  1.00  0.00    -0.267 N 
ATOM     16  H10 UNL     1      37.780   6.180  23.079  1.00  0.00     0.186 HD
ENDBRANCH   7  10
ENDBRANCH   5   6
BRANCH   1  17
HETATM   17  C2  UNL     1      38.929   1.397  24.050  1.00  0.00     0.280 C 
HETATM   18  N1  UNL     1      39.320   1.591  25.398  1.00  0.00    -0.361 N 
HETATM   19  C1  UNL     1      40.695   1.604  25.778  1.00  0.00     0.149 C 
ATOM     20  H1  UNL     1      38.603   1.725  26.111  1.00  0.00     0.162 HD
HETATM   21  O1  UNL     1      39.828   1.234  23.188  1.00  0.00    -0.268 OA
ENDBRANCH   1  17
BRANCH   1  22
HETATM   22  O2  UNL     1      37.389   1.572  22.307  1.00  0.00    -0.358 OA
ATOM     23  H2  UNL     1      36.487   1.436  22.044  1.00  0.00     0.213 HD
ENDBRANCH   1  22
BRANCH   2  24
HETATM   24  N2  UNL     1      37.773  -1.038  23.821  1.00  0.00    -0.275 N 
ATOM     25  H2  UNL     1      38.790  -0.965  23.845  1.00  0.00     0.176 HD
BRANCH  24  26
HETATM   26  S1  UNL     1      36.861  -2.497  23.558  1.00  0.00     0.206 S 
HETATM   27  O3  UNL     1      35.510  -2.172  22.978  1.00  0.00    -0.578 OA
HETATM   28  O4  UNL     1      36.749  -3.278  24.835  1.00  0.00    -0.578 OA
HETATM   29  O5  UNL     1      37.704  -3.402  22.404  1.00  0.00    -0.578 OA
ENDBRANCH  24  26
ENDBRANCH   2  24
TORSDOF 6
ENDMDL
MODEL 3
REMARK VINA RESULT: -7.474237018      0.876      1.509
REMARK  6 active torsions:
REMARK  status: ('A' for Active; 'I' for Inactive)
REMARK       I    between atoms: N1_2  and  C2_4 
REMARK    1  A    between atoms: C2_4  and  C3_6 
REMARK    2  A    between atoms: C3_6  and  O2_7 
REMARK    3  A    between atoms: C4_9  and  N2_10 
REMARK    4  A    between atoms: N2_10  and  S1_12 
REMARK    5  A    between atoms: N5_18  and  N6_19 
REMARK    6  A    between atoms: N7_21  and  C5_23 
ROOT
HETATM    1  C3  UNL     1      37.481   1.316  23.600  1.00  0.00     0.286 C 
HETATM    2  C4  UNL     1      36.929  -0.074  23.910  1.00  0.00     0.275 C 
HETATM    3  N3  UNL     1      36.508   0.098  25.283  1.00  0.00    -0.093 NA
HETATM    4  N4  UNL     1      36.065   1.409  25.420  1.00  0.00    -0.006 NA
HETATM    5  N5  UNL     1      36.624   2.146  24.383  1.00  0.00    -0.156 N 
ENDROOT
BRANCH   5   6
HETATM    6  N6  UNL     1      36.376   3.495  24.154  1.00  0.00    -0.223 N 
HETATM    7  N7  UNL     1      35.542   3.922  23.305  1.00  0.00    -0.268 N 
ATOM      8  H7  UNL     1      34.997   3.277  22.733  1.00  0.00     0.190 HD
ATOM      9  H6  UNL     1      36.897   4.179  24.703  1.00  0.00     0.210 HD
BRANCH   7  10
HETATM   10  C5  UNL     1      35.386   5.330  23.174  1.00  0.00     0.151 A 
HETATM   11  C6  UNL     1      34.244   6.040  23.458  1.00  0.00     0.155 A 
HETATM   12  N8  UNL     1      34.508   7.342  23.203  1.00  0.00    -0.292 N 
HETATM   13  N9  UNL     1      35.761   7.454  22.778  1.00  0.00    -0.021 NA
ATOM     14  H8  UNL     1      33.850   8.113  23.318  1.00  0.00     0.183 HD
HETATM   15  N10 UNL     1      36.294   6.239  22.760  1.00  0.00    -0.267 N 
ATOM     16  H10 UNL     1      37.249   6.023  22.475  1.00  0.00     0.186 HD
ENDBRANCH   7  10
ENDBRANCH   5   6
BRANCH   1  17
HETATM   17  C2  UNL     1      38.908   1.419  23.992  1.00  0.00     0.280 C 
HETATM   18  N1  UNL     1      39.280   1.540  25.354  1.00  0.00    -0.361 N 
HETATM   19  C1  UNL     1      40.649   1.640  25.744  1.00  0.00     0.149 C 
ATOM     20  H1  UNL     1      38.554   1.556  26.071  1.00  0.00     0.162 HD
HETATM   21  O1  UNL     1      39.818   1.402  23.127  1.00  0.00    -0.268 OA
ENDBRANCH   1  17
BRANCH   1  22
HETATM   22  O2  UNL     1      37.370   1.510  22.241  1.00  0.00    -0.358 OA
ATOM     23  H2  UNL     1      36.541   1.932  22.053  1.00  0.00     0.213 HD
ENDBRANCH   1  22
BRANCH   2  24
HETATM   24  N2  UNL     1      37.921  -1.085  23.728  1.00  0.00    -0.275 N 
ATOM     25  H2  UNL     1      38.930  -0.945  23.763  1.00  0.00     0.176 HD
BRANCH  24  26
HETATM   26  S1  UNL     1      37.111  -2.599  23.439  1.00  0.00     0.206 S 
HETATM   27  O3  UNL     1      37.053  -3.411  24.706  1.00  0.00    -0.578 OA
HETATM   28  O4  UNL     1      37.786  -3.346  22.325  1.00  0.00    -0.578 OA
HETATM   29  O5  UNL     1      35.520  -2.229  23.001  1.00  0.00    -0.578 OA
ENDBRANCH  24  26
ENDBRANCH   2  24
TORSDOF 6
ENDMDL
MODEL 4
REMARK VINA RESULT: -7.054054995      1.776      2.331
REMARK  6 active torsions:
REMARK  status: ('A' for Active; 'I' for Inactive)
REMARK       I    between atoms: N1_2  and  C2_4 
REMARK    1  A    between atoms: C2_4  and  C3_6 
REMARK    2  A    between atoms: C3_6  and  O2_7 
REMARK    3  A    between atoms: C4_9  and  N2_10 
REMARK    4  A    between atoms: N2_10  and  S1_12 
REMARK    5  A    between atoms: N5_18  and  N6_19 
REMARK    6  A    between atoms: N7_21  and  C5_23 
ROOT
HETATM    1  C3  UNL     1      37.784   1.208  23.526  1.00  0.00     0.286 C 
HETATM    2  C4  UNL     1      37.003  -0.062  23.858  1.00  0.00     0.275 C 
HETATM    3  N3  UNL     1      36.520   0.253  25.185  1.00  0.00    -0.093 NA
HETATM    4  N4  UNL     1      36.277   1.622  25.224  1.00  0.00    -0.006 NA
HETATM    5  N5  UNL     1      37.013   2.203  24.199  1.00  0.00    -0.156 N 
ENDROOT
BRANCH   5   6
HETATM    6  N6  UNL     1      36.994   3.558  23.888  1.00  0.00    -0.223 N 
HETATM    7  N7  UNL     1      37.942   4.158  23.305  1.00  0.00    -0.268 N 
ATOM      8  H7  UNL     1      38.789   3.661  23.029  1.00  0.00     0.190 HD
ATOM      9  H6  UNL     1      36.168   4.098  24.145  1.00  0.00     0.210 HD
BRANCH   7  10
HETATM   10  C5  UNL     1      37.790   5.549  23.046  1.00  0.00     0.151 A 
HETATM   11  C6  UNL     1      36.755   6.339  23.488  1.00  0.00     0.155 A 
HETATM   12  N8  UNL     1      36.982   7.590  23.028  1.00  0.00    -0.292 N 
HETATM   13  N9  UNL     1      38.110   7.596  22.328  1.00  0.00    -0.021 NA
ATOM     14  H8  UNL     1      36.383   8.399  23.193  1.00  0.00     0.183 HD
HETATM   15  N10 UNL     1      38.600   6.363  22.337  1.00  0.00    -0.267 N 
ATOM     16  H10 UNL     1      39.463   6.073  21.876  1.00  0.00     0.186 HD
ENDBRANCH   7  10
ENDBRANCH   5   6
BRANCH   1  17
HETATM   17  C2  UNL     1      39.179   1.118  24.022  1.00  0.00     0.280 C 
HETATM   18  N1  UNL     1      39.503   1.494  25.349  1.00  0.00    -0.361 N 
HETATM   19  C1  UNL     1      40.841   1.411  25.838  1.00  0.00     0.149 C 
ATOM     20  H1  UNL     1      38.765   1.831  25.968  1.00  0.00     0.162 HD
HETATM   21  O1  UNL     1      40.103   0.706  23.279  1.00  0.00    -0.268 OA
ENDBRANCH   1  17
BRANCH   1  22
HETATM   22  O2  UNL     1      37.799   1.336  22.155  1.00  0.00    -0.358 OA
ATOM     23  H2  UNL     1      37.980   2.240  21.928  1.00  0.00     0.213 HD
ENDBRANCH   1  22
BRANCH   2  24
HETATM   24  N2  UNL     1      37.836  -1.220  23.803  1.00  0.00    -0.275 N 
ATOM     25  H2  UNL     1      38.851  -1.230  23.895  1.00  0.00     0.176 HD
BRANCH  24  26
HETATM   26  S1  UNL     1      36.821  -2.612  23.552  1.00  0.00     0.206 S 
HETATM   27  O3  UNL     1      35.493  -2.194  22.977  1.00  0.00    -0.578 OA
HETATM   28  O4  UNL     1      36.660  -3.377  24.834  1.00  0.00    -0.578 OA
HETATM   29  O5  UNL     1      37.591  -3.579  22.399  1.00  0.00    -0.578 OA
ENDBRANCH  24  26
ENDBRANCH   2  24
TORSDOF 6
ENDMDL
MODEL 5
REMARK VINA RESULT: -6.759184186      1.048      1.574
REMARK  6 active torsions:
REMARK  status: ('A' for Active; 'I' for Inactive)
REMARK       I    between atoms: N1_2  and  C2_4 
REMARK    1  A    between atoms: C2_4  and  C3_6 
REMARK    2  A    between atoms: C3_6  and  O2_7 
REMARK    3  A    between atoms: C4_9  and  N2_10 
REMARK    4  A    between atoms: N2_10  and  S1_12 
REMARK    5  A    between atoms: N5_18  and  N6_19 
REMARK    6  A    between atoms: N7_21  and  C5_23 
ROOT
HETATM    1  C3  UNL     1      37.648   1.122  23.422  1.00  0.00     0.286 C 
HETATM    2  C4  UNL     1      37.392  -0.377  23.271  1.00  0.00     0.275 C 
HETATM    3  N3  UNL     1      36.969  -0.718  24.611  1.00  0.00    -0.093 NA
HETATM    4  N4  UNL     1      36.274   0.374  25.119  1.00  0.00    -0.006 NA
HETATM    5  N5  UNL     1      36.655   1.487  24.380  1.00  0.00    -0.156 N 
ENDROOT
BRANCH   5   6
HETATM    6  N6  UNL     1      36.137   2.765  24.560  1.00  0.00    -0.223 N 
HETATM    7  N7  UNL     1      35.537   3.413  23.656  1.00  0.00    -0.268 N 
ATOM      8  H7  UNL     1      35.402   3.017  22.726  1.00  0.00     0.190 HD
ATOM      9  H6  UNL     1      36.248   3.203  25.474  1.00  0.00     0.210 HD
BRANCH   7  10
HETATM   10  C5  UNL     1      35.055   4.713  23.976  1.00  0.00     0.151 A 
HETATM   11  C6  UNL     1      34.923   5.759  23.094  1.00  0.00     0.155 A 
HETATM   12  N8  UNL     1      34.436   6.811  23.790  1.00  0.00    -0.292 N 
HETATM   13  N9  UNL     1      34.264   6.449  25.056  1.00  0.00    -0.021 NA
ATOM     14  H8  UNL     1      34.233   7.733  23.405  1.00  0.00     0.183 HD
HETATM   15  N10 UNL     1      34.638   5.181  25.171  1.00  0.00    -0.267 N 
ATOM     16  H10 UNL     1      34.614   4.641  26.035  1.00  0.00     0.186 HD
ENDBRANCH   7  10
ENDBRANCH   5   6
BRANCH   1  17
HETATM   17  C2  UNL     1      39.031   1.379  23.890  1.00  0.00     0.280 C 
HETATM   18  N1  UNL     1      39.337   1.398  25.273  1.00  0.00    -0.361 N 
HETATM   19  C1  UNL     1      40.665   1.644  25.736  1.00  0.00     0.149 C 
ATOM     20  H1  UNL     1      38.594   1.233  25.952  1.00  0.00     0.162 HD
HETATM   21  O1  UNL     1      39.961   1.585  23.073  1.00  0.00    -0.268 OA
ENDBRANCH   1  17
BRANCH   1  22
HETATM   22  O2  UNL     1      37.475   1.696  22.182  1.00  0.00    -0.358 OA
ATOM     23  H2  UNL     1      37.254   1.020  21.553  1.00  0.00     0.213 HD
ENDBRANCH   1  22
BRANCH   2  24
HETATM   24  N2  UNL     1      38.563  -1.068  22.836  1.00  0.00    -0.275 N 
ATOM     25  H2  UNL     1      39.473  -0.646  22.655  1.00  0.00     0.176 HD
BRANCH  24  26
HETATM   26  S1  UNL     1      38.170  -2.756  22.668  1.00  0.00     0.206 S 
HETATM   27  O3  UNL     1      36.682  -2.935  22.526  1.00  0.00    -0.578 OA
HETATM   28  O4  UNL     1      38.720  -3.536  23.827  1.00  0.00    -0.578 OA
HETATM   29  O5  UNL     1      38.884  -3.285  21.230  1.00  0.00    -0.578 OA
ENDBRANCH  24  26
ENDBRANCH   2  24
TORSDOF 6
ENDMDL
