MODEL 1
REMARK VINA RESULT: -6.935300083      0.000      0.000
REMARK  10 active torsions:
REMARK  status: ('A' for Active; 'I' for Inactive)
REMARK    1  A    between atoms: N1_2  and  C2_4 
REMARK    2  A    between atoms: C2_4  and  O1_5 
REMARK    3  A    between atoms: C3_7  and  N2_8 
REMARK    4  A    between atoms: C7_12  and  C8_13 
REMARK    5  A    between atoms: C8_13  and  N3_14 
REMARK       I    between atoms: N3_14  and  C9_16 
REMARK       I    between atoms: C9_16  and  N4_18 
REMARK    6  A    between atoms: N4_18  and  C11_20 
REMARK    7  A    between atoms: C11_20  and  C12_21 
REMARK    8  A    between atoms: C12_21  and  N5_22 
REMARK    9  A    between atoms: C16_29  and  C17_30 
REMARK       I    between atoms: C17_30  and  N6_32 
REMARK   10  A    between atoms: N6_32  and  C18_34 
ROOT
HETATM    1  C11 UNL     1       3.447  22.511  17.068  1.00  0.00     0.114 C 
ENDROOT
BRANCH   1   2
HETATM    2  N4  UNL     1       2.290  22.227  17.794  1.00  0.00    -0.315 N 
HETATM    3  C9  UNL     1       2.143  21.080  18.602  1.00  0.00     0.321 C 
HETATM    4  N3  UNL     1       0.948  20.824  19.350  1.00  0.00    -0.342 N 
HETATM    5  O2  UNL     1       3.062  20.249  18.688  1.00  0.00    -0.247 OA
ATOM      6  H3  UNL     1       0.196  21.508  19.272  1.00  0.00     0.164 HD
HETATM    7  C10 UNL     1       1.156  23.159  17.763  1.00  0.00     0.160 C 
BRANCH   4   8
HETATM    8  C8  UNL     1       0.719  19.704  20.188  1.00  0.00     0.129 C 
BRANCH   8   9
HETATM    9  C7  UNL     1       0.049  18.526  19.571  1.00  0.00     0.007 C 
HETATM   10  C6  UNL     1       0.046  18.506  18.085  1.00  0.00     0.034 C 
HETATM   11  C5  UNL     1      -0.639  17.301  17.561  1.00  0.00     0.243 C 
HETATM   12  N2  UNL     1      -1.738  16.737  18.225  1.00  0.00    -0.047 N 
HETATM   13  C4  UNL     1      -2.961  16.856  17.383  1.00  0.00     0.278 C 
HETATM   14  C26 UNL     1      -2.060  17.260  19.547  1.00  0.00     0.243 C 
HETATM   15  C25 UNL     1      -1.455  18.542  19.932  1.00  0.00     0.034 C 
BRANCH  12  16
HETATM   16  C3  UNL     1      -1.551  15.327  18.443  1.00  0.00     0.257 C 
HETATM   17  C2  UNL     1      -1.704  14.357  17.407  1.00  0.00     0.159 C 
BRANCH  17  18
HETATM   18  N1  UNL     1      -2.040  14.510  16.072  1.00  0.00    -0.374 N 
HETATM   19  C1  UNL     1      -1.638  13.457  15.104  1.00  0.00     0.148 C 
ATOM     20  H1  UNL     1      -2.555  15.333  15.759  1.00  0.00     0.161 HD
ENDBRANCH  17  18
BRANCH  17  21
HETATM   21  O1  UNL     1      -1.492  13.123  17.789  1.00  0.00    -0.345 OA
ATOM     22  H1  UNL     1      -0.766  13.006  18.390  1.00  0.00     0.219 HD
ENDBRANCH  17  21
ENDBRANCH  12  16
ENDBRANCH   8   9
ENDBRANCH   4   8
ENDBRANCH   1   2
BRANCH   1  23
HETATM   23  C12 UNL     1       3.731  21.741  15.805  1.00  0.00     0.216 C 
HETATM   24  C13 UNL     1       5.240  21.603  15.676  1.00  0.00     0.058 C 
HETATM   25  C14 UNL     1       5.598  20.877  14.436  1.00  0.00     0.003 A 
HETATM   26  C15 UNL     1       5.114  21.553  13.223  1.00  0.00     0.019 A 
HETATM   27  C22 UNL     1       6.546  21.478  13.453  1.00  0.00    -0.038 A 
HETATM   28  C16 UNL     1       4.230  22.746  13.528  1.00  0.00     0.155 C 
HETATM   29  C21 UNL     1       3.223  22.347  14.574  1.00  0.00     0.181 C 
HETATM   30  O4  UNL     1       2.054  22.528  14.380  1.00  0.00    -0.294 OA
HETATM   31  C23 UNL     1       7.398  22.621  13.939  1.00  0.00     0.015 C 
HETATM   32  C24 UNL     1       7.304  20.465  12.599  1.00  0.00     0.015 C 
BRANCH  23  33
HETATM   33  N5  UNL     1       3.222  20.367  15.856  1.00  0.00    -0.059 N 
ATOM     34  H53 UNL     1       3.980  19.701  16.001  1.00  0.00     0.276 HD
ATOM     35  H52 UNL     1       2.692  20.205  16.712  1.00  0.00     0.276 HD
ATOM     36  H51 UNL     1       2.671  20.121  15.032  1.00  0.00     0.276 HD
ENDBRANCH  23  33
BRANCH  28  37
HETATM   37  C17 UNL     1       3.560  23.150  12.273  1.00  0.00     0.229 C 
HETATM   38  O3  UNL     1       3.629  22.377  11.283  1.00  0.00    -0.273 OA
HETATM   39  N6  UNL     1       2.844  24.348  12.102  1.00  0.00    -0.356 N 
ATOM     40  H6  UNL     1       2.782  24.984  12.897  1.00  0.00     0.162 HD
BRANCH  39  41
HETATM   41  C18 UNL     1       2.194  24.736  10.878  1.00  0.00     0.076 C 
HETATM   42  C19 UNL     1       2.303  26.225  10.717  1.00  0.00     0.032 C 
HETATM   43  C20 UNL     1       0.700  24.391  10.929  1.00  0.00     0.032 C 
ENDBRANCH  39  41
ENDBRANCH  28  37
ENDBRANCH   1  23
TORSDOF 10
ENDMDL
MODEL 2
REMARK VINA RESULT: -6.857458166      2.451      9.526
REMARK  10 active torsions:
REMARK  status: ('A' for Active; 'I' for Inactive)
REMARK    1  A    between atoms: N1_2  and  C2_4 
REMARK    2  A    between atoms: C2_4  and  O1_5 
REMARK    3  A    between atoms: C3_7  and  N2_8 
REMARK    4  A    between atoms: C7_12  and  C8_13 
REMARK    5  A    between atoms: C8_13  and  N3_14 
REMARK       I    between atoms: N3_14  and  C9_16 
REMARK       I    between atoms: C9_16  and  N4_18 
REMARK    6  A    between atoms: N4_18  and  C11_20 
REMARK    7  A    between atoms: C11_20  and  C12_21 
REMARK    8  A    between atoms: C12_21  and  N5_22 
REMARK    9  A    between atoms: C16_29  and  C17_30 
REMARK       I    between atoms: C17_30  and  N6_32 
REMARK   10  A    between atoms: N6_32  and  C18_34 
ROOT
HETATM    1  C11 UNL     1       0.733  20.642  19.626  1.00  0.00     0.114 C 
ENDROOT
BRANCH   1   2
HETATM    2  N4  UNL     1       2.126  20.712  19.575  1.00  0.00    -0.315 N 
HETATM    3  C9  UNL     1       2.826  21.711  18.867  1.00  0.00     0.321 C 
HETATM    4  N3  UNL     1       4.258  21.767  18.847  1.00  0.00    -0.342 N 
HETATM    5  O2  UNL     1       2.210  22.583  18.233  1.00  0.00    -0.247 OA
ATOM      6  H3  UNL     1       4.758  21.045  19.366  1.00  0.00     0.164 HD
HETATM    7  C10 UNL     1       2.938  19.731  20.305  1.00  0.00     0.160 C 
BRANCH   4   8
HETATM    8  C8  UNL     1       5.041  22.735  18.169  1.00  0.00     0.129 C 
BRANCH   8   9
HETATM    9  C7  UNL     1       5.515  22.381  16.802  1.00  0.00     0.007 C 
HETATM   10  C6  UNL     1       5.749  23.534  15.894  1.00  0.00     0.034 C 
HETATM   11  C5  UNL     1       6.218  23.088  14.562  1.00  0.00     0.243 C 
HETATM   12  N2  UNL     1       5.768  21.888  13.992  1.00  0.00    -0.047 N 
HETATM   13  C4  UNL     1       4.971  22.172  12.765  1.00  0.00     0.278 C 
HETATM   14  C26 UNL     1       4.977  21.002  14.837  1.00  0.00     0.243 C 
HETATM   15  C25 UNL     1       4.420  21.568  16.073  1.00  0.00     0.034 C 
BRANCH  12  16
HETATM   16  C3  UNL     1       6.869  21.068  13.561  1.00  0.00     0.257 C 
HETATM   17  C2  UNL     1       8.085  21.614  13.048  1.00  0.00     0.159 C 
BRANCH  17  18
HETATM   18  N1  UNL     1       8.469  22.929  12.851  1.00  0.00    -0.374 N 
HETATM   19  C1  UNL     1       8.328  23.524  11.497  1.00  0.00     0.148 C 
ATOM     20  H1  UNL     1       8.843  23.480  13.622  1.00  0.00     0.161 HD
ENDBRANCH  17  18
BRANCH  17  21
HETATM   21  O1  UNL     1       8.975  20.717  12.708  1.00  0.00    -0.345 OA
ATOM     22  H1  UNL     1       8.732  19.817  12.891  1.00  0.00     0.219 HD
ENDBRANCH  17  21
ENDBRANCH  12  16
ENDBRANCH   8   9
ENDBRANCH   4   8
ENDBRANCH   1   2
BRANCH   1  23
HETATM   23  C12 UNL     1      -0.016  20.035  18.469  1.00  0.00     0.216 C 
HETATM   24  C13 UNL     1      -1.360  20.740  18.367  1.00  0.00     0.058 C 
HETATM   25  C14 UNL     1      -2.169  20.174  17.263  1.00  0.00     0.003 A 
HETATM   26  C15 UNL     1      -2.438  18.739  17.435  1.00  0.00     0.019 A 
HETATM   27  C22 UNL     1      -3.550  19.670  17.517  1.00  0.00    -0.038 A 
HETATM   28  C16 UNL     1      -1.698  18.140  18.614  1.00  0.00     0.155 C 
HETATM   29  C21 UNL     1      -0.265  18.597  18.568  1.00  0.00     0.181 C 
HETATM   30  O4  UNL     1       0.623  17.792  18.612  1.00  0.00    -0.294 OA
HETATM   31  C23 UNL     1      -4.211  20.108  18.797  1.00  0.00     0.015 C 
HETATM   32  C24 UNL     1      -4.474  19.709  16.302  1.00  0.00     0.015 C 
BRANCH  23  33
HETATM   33  N5  UNL     1       0.643  20.275  17.182  1.00  0.00    -0.059 N 
ATOM     34  H53 UNL     1       0.523  21.243  16.884  1.00  0.00     0.276 HD
ATOM     35  H52 UNL     1       1.658  20.257  17.282  1.00  0.00     0.276 HD
ATOM     36  H51 UNL     1       0.335  19.628  16.456  1.00  0.00     0.276 HD
ENDBRANCH  23  33
BRANCH  28  37
HETATM   37  C17 UNL     1      -1.789  16.667  18.509  1.00  0.00     0.229 C 
HETATM   38  O3  UNL     1      -1.981  16.004  19.561  1.00  0.00    -0.273 OA
HETATM   39  N6  UNL     1      -1.674  15.945  17.308  1.00  0.00    -0.356 N 
ATOM     40  H6  UNL     1      -1.516  16.471  16.449  1.00  0.00     0.162 HD
BRANCH  39  41
HETATM   41  C18 UNL     1      -1.763  14.511  17.213  1.00  0.00     0.076 C 
HETATM   42  C19 UNL     1      -0.479  13.909  17.708  1.00  0.00     0.032 C 
HETATM   43  C20 UNL     1      -1.936  14.079  15.751  1.00  0.00     0.032 C 
ENDBRANCH  39  41
ENDBRANCH  28  37
ENDBRANCH   1  23
TORSDOF 10
ENDMDL
MODEL 3
REMARK VINA RESULT: -6.805755839      2.163      9.229
REMARK  10 active torsions:
REMARK  status: ('A' for Active; 'I' for Inactive)
REMARK    1  A    between atoms: N1_2  and  C2_4 
REMARK    2  A    between atoms: C2_4  and  O1_5 
REMARK    3  A    between atoms: C3_7  and  N2_8 
REMARK    4  A    between atoms: C7_12  and  C8_13 
REMARK    5  A    between atoms: C8_13  and  N3_14 
REMARK       I    between atoms: N3_14  and  C9_16 
REMARK       I    between atoms: C9_16  and  N4_18 
REMARK    6  A    between atoms: N4_18  and  C11_20 
REMARK    7  A    between atoms: C11_20  and  C12_21 
REMARK    8  A    between atoms: C12_21  and  N5_22 
REMARK    9  A    between atoms: C16_29  and  C17_30 
REMARK       I    between atoms: C17_30  and  N6_32 
REMARK   10  A    between atoms: N6_32  and  C18_34 
ROOT
HETATM    1  C11 UNL     1       1.018  20.661  19.588  1.00  0.00     0.114 C 
ENDROOT
BRANCH   1   2
HETATM    2  N4  UNL     1       2.401  20.811  19.468  1.00  0.00    -0.315 N 
HETATM    3  C9  UNL     1       3.007  21.862  18.747  1.00  0.00     0.321 C 
HETATM    4  N3  UNL     1       4.431  21.999  18.657  1.00  0.00    -0.342 N 
HETATM    5  O2  UNL     1       2.312  22.709  18.165  1.00  0.00    -0.247 OA
ATOM      6  H3  UNL     1       4.996  21.297  19.135  1.00  0.00     0.164 HD
HETATM    7  C10 UNL     1       3.303  19.864  20.135  1.00  0.00     0.160 C 
BRANCH   4   8
HETATM    8  C8  UNL     1       5.122  23.022  17.962  1.00  0.00     0.129 C 
BRANCH   8   9
HETATM    9  C7  UNL     1       5.302  22.838  16.495  1.00  0.00     0.007 C 
HETATM   10  C6  UNL     1       6.436  21.963  16.100  1.00  0.00     0.034 C 
HETATM   11  C5  UNL     1       6.537  21.838  14.628  1.00  0.00     0.243 C 
HETATM   12  N2  UNL     1       6.208  22.905  13.778  1.00  0.00    -0.047 N 
HETATM   13  C4  UNL     1       7.422  23.373  13.051  1.00  0.00     0.278 C 
HETATM   14  C26 UNL     1       5.579  24.072  14.384  1.00  0.00     0.243 C 
HETATM   15  C25 UNL     1       5.656  24.197  15.846  1.00  0.00     0.034 C 
BRANCH  12  16
HETATM   16  C3  UNL     1       5.277  22.495  12.761  1.00  0.00     0.257 C 
HETATM   17  C2  UNL     1       3.995  21.945  13.062  1.00  0.00     0.159 C 
BRANCH  17  18
HETATM   18  N1  UNL     1       3.388  21.689  14.280  1.00  0.00    -0.374 N 
HETATM   19  C1  UNL     1       2.130  22.402  14.620  1.00  0.00     0.148 C 
ATOM     20  H1  UNL     1       3.798  21.022  14.933  1.00  0.00     0.161 HD
ENDBRANCH  17  18
BRANCH  17  21
HETATM   21  O1  UNL     1       3.282  21.633  12.009  1.00  0.00    -0.345 OA
ATOM     22  H1  UNL     1       2.345  21.585  12.156  1.00  0.00     0.219 HD
ENDBRANCH  17  21
ENDBRANCH  12  16
ENDBRANCH   8   9
ENDBRANCH   4   8
ENDBRANCH   1   2
BRANCH   1  23
HETATM   23  C12 UNL     1       0.252  19.995  18.476  1.00  0.00     0.216 C 
HETATM   24  C13 UNL     1      -1.083  20.710  18.340  1.00  0.00     0.058 C 
HETATM   25  C14 UNL     1      -1.909  20.089  17.280  1.00  0.00     0.003 A 
HETATM   26  C15 UNL     1      -2.196  18.672  17.541  1.00  0.00     0.019 A 
HETATM   27  C22 UNL     1      -3.294  19.620  17.574  1.00  0.00    -0.038 A 
HETATM   28  C16 UNL     1      -1.454  18.135  18.749  1.00  0.00     0.155 C 
HETATM   29  C21 UNL     1      -0.015  18.569  18.665  1.00  0.00     0.181 C 
HETATM   30  O4  UNL     1       0.862  17.756  18.751  1.00  0.00    -0.294 OA
HETATM   31  C23 UNL     1      -3.939  20.145  18.829  1.00  0.00     0.015 C 
HETATM   32  C24 UNL     1      -4.228  19.598  16.366  1.00  0.00     0.015 C 
BRANCH  23  33
HETATM   33  N5  UNL     1       0.904  20.147  17.172  1.00  0.00    -0.059 N 
ATOM     34  H53 UNL     1       0.282  20.601  16.502  1.00  0.00     0.276 HD
ATOM     35  H52 UNL     1       1.644  20.847  17.212  1.00  0.00     0.276 HD
ATOM     36  H51 UNL     1       1.255  19.263  16.803  1.00  0.00     0.276 HD
ENDBRANCH  23  33
BRANCH  28  37
HETATM   37  C17 UNL     1      -1.565  16.660  18.735  1.00  0.00     0.229 C 
HETATM   38  O3  UNL     1      -1.765  16.066  19.825  1.00  0.00    -0.273 OA
HETATM   39  N6  UNL     1      -1.461  15.864  17.581  1.00  0.00    -0.356 N 
ATOM     40  H6  UNL     1      -1.297  16.333  16.691  1.00  0.00     0.162 HD
BRANCH  39  41
HETATM   41  C18 UNL     1      -1.570  14.429  17.574  1.00  0.00     0.076 C 
HETATM   42  C19 UNL     1      -0.273  13.838  18.048  1.00  0.00     0.032 C 
HETATM   43  C20 UNL     1      -1.812  13.914  16.150  1.00  0.00     0.032 C 
ENDBRANCH  39  41
ENDBRANCH  28  37
ENDBRANCH   1  23
TORSDOF 10
ENDMDL
MODEL 4
REMARK VINA RESULT: -6.794652009      2.304      9.587
REMARK  10 active torsions:
REMARK  status: ('A' for Active; 'I' for Inactive)
REMARK    1  A    between atoms: N1_2  and  C2_4 
REMARK    2  A    between atoms: C2_4  and  O1_5 
REMARK    3  A    between atoms: C3_7  and  N2_8 
REMARK    4  A    between atoms: C7_12  and  C8_13 
REMARK    5  A    between atoms: C8_13  and  N3_14 
REMARK       I    between atoms: N3_14  and  C9_16 
REMARK       I    between atoms: C9_16  and  N4_18 
REMARK    6  A    between atoms: N4_18  and  C11_20 
REMARK    7  A    between atoms: C11_20  and  C12_21 
REMARK    8  A    between atoms: C12_21  and  N5_22 
REMARK    9  A    between atoms: C16_29  and  C17_30 
REMARK       I    between atoms: C17_30  and  N6_32 
REMARK   10  A    between atoms: N6_32  and  C18_34 
ROOT
HETATM    1  C11 UNL     1      -1.856  20.744  17.061  1.00  0.00     0.114 C 
ENDROOT
BRANCH   1   2
HETATM    2  N4  UNL     1      -0.642  21.431  17.032  1.00  0.00    -0.315 N 
HETATM    3  C9  UNL     1       0.586  20.823  16.695  1.00  0.00     0.321 C 
HETATM    4  N3  UNL     1       1.814  21.560  16.658  1.00  0.00    -0.342 N 
HETATM    5  O2  UNL     1       0.634  19.614  16.417  1.00  0.00    -0.247 OA
ATOM      6  H3  UNL     1       1.769  22.552  16.891  1.00  0.00     0.164 HD
HETATM    7  C10 UNL     1      -0.603  22.867  17.335  1.00  0.00     0.160 C 
BRANCH   4   8
HETATM    8  C8  UNL     1       3.088  21.033  16.326  1.00  0.00     0.129 C 
BRANCH   8   9
HETATM    9  C7  UNL     1       3.921  21.828  15.382  1.00  0.00     0.007 C 
HETATM   10  C6  UNL     1       3.877  23.300  15.583  1.00  0.00     0.034 C 
HETATM   11  C5  UNL     1       4.733  24.006  14.603  1.00  0.00     0.243 C 
HETATM   12  N2  UNL     1       4.893  23.530  13.293  1.00  0.00    -0.047 N 
HETATM   13  C4  UNL     1       4.308  24.496  12.322  1.00  0.00     0.278 C 
HETATM   14  C26 UNL     1       4.345  22.213  12.990  1.00  0.00     0.243 C 
HETATM   15  C25 UNL     1       3.382  21.647  13.944  1.00  0.00     0.034 C 
BRANCH  12  16
HETATM   16  C3  UNL     1       6.284  23.418  12.943  1.00  0.00     0.257 C 
HETATM   17  C2  UNL     1       7.179  22.526  13.607  1.00  0.00     0.159 C 
BRANCH  17  18
HETATM   18  N1  UNL     1       6.961  21.641  14.649  1.00  0.00    -0.374 N 
HETATM   19  C1  UNL     1       6.935  20.183  14.360  1.00  0.00     0.148 C 
ATOM     20  H1  UNL     1       6.820  21.983  15.599  1.00  0.00     0.161 HD
ENDBRANCH  17  18
BRANCH  17  21
HETATM   21  O1  UNL     1       8.406  22.558  13.153  1.00  0.00    -0.345 OA
ATOM     22  H1  UNL     1       9.073  22.747  13.802  1.00  0.00     0.219 HD
ENDBRANCH  17  21
ENDBRANCH  12  16
ENDBRANCH   8   9
ENDBRANCH   4   8
ENDBRANCH   1   2
BRANCH   1  23
HETATM   23  C12 UNL     1      -2.197  19.903  18.263  1.00  0.00     0.216 C 
HETATM   24  C13 UNL     1      -1.223  20.268  19.374  1.00  0.00     0.058 C 
HETATM   25  C14 UNL     1      -1.479  19.457  20.586  1.00  0.00     0.003 A 
HETATM   26  C15 UNL     1      -1.346  18.014  20.342  1.00  0.00     0.019 A 
HETATM   27  C22 UNL     1      -0.383  18.663  21.213  1.00  0.00    -0.038 A 
HETATM   28  C16 UNL     1      -1.132  17.682  18.878  1.00  0.00     0.155 C 
HETATM   29  C21 UNL     1      -2.128  18.456  18.057  1.00  0.00     0.181 C 
HETATM   30  O4  UNL     1      -2.830  17.885  17.270  1.00  0.00    -0.294 OA
HETATM   31  C23 UNL     1       1.027  19.020  20.820  1.00  0.00     0.015 C 
HETATM   32  C24 UNL     1      -0.559  18.405  22.707  1.00  0.00     0.015 C 
BRANCH  23  33
HETATM   33  N5  UNL     1      -3.526  20.203  18.803  1.00  0.00    -0.059 N 
ATOM     34  H53 UNL     1      -3.583  21.172  19.118  1.00  0.00     0.276 HD
ATOM     35  H52 UNL     1      -4.225  20.230  18.061  1.00  0.00     0.276 HD
ATOM     36  H51 UNL     1      -3.803  19.560  19.545  1.00  0.00     0.276 HD
ENDBRANCH  23  33
BRANCH  28  37
HETATM   37  C17 UNL     1      -1.321  16.225  18.707  1.00  0.00     0.229 C 
HETATM   38  O3  UNL     1      -1.519  15.524  19.733  1.00  0.00    -0.273 OA
HETATM   39  N6  UNL     1      -1.296  15.558  17.470  1.00  0.00    -0.356 N 
ATOM     40  H6  UNL     1      -1.135  16.115  16.631  1.00  0.00     0.162 HD
BRANCH  39  41
HETATM   41  C18 UNL     1      -1.481  14.139  17.311  1.00  0.00     0.076 C 
HETATM   42  C19 UNL     1      -0.204  13.437  17.673  1.00  0.00     0.032 C 
HETATM   43  C20 UNL     1      -1.791  13.798  15.847  1.00  0.00     0.032 C 
ENDBRANCH  39  41
ENDBRANCH  28  37
ENDBRANCH   1  23
TORSDOF 10
ENDMDL
MODEL 5
REMARK VINA RESULT: -6.789089242      4.174      9.628
REMARK  10 active torsions:
REMARK  status: ('A' for Active; 'I' for Inactive)
REMARK    1  A    between atoms: N1_2  and  C2_4 
REMARK    2  A    between atoms: C2_4  and  O1_5 
REMARK    3  A    between atoms: C3_7  and  N2_8 
REMARK    4  A    between atoms: C7_12  and  C8_13 
REMARK    5  A    between atoms: C8_13  and  N3_14 
REMARK       I    between atoms: N3_14  and  C9_16 
REMARK       I    between atoms: C9_16  and  N4_18 
REMARK    6  A    between atoms: N4_18  and  C11_20 
REMARK    7  A    between atoms: C11_20  and  C12_21 
REMARK    8  A    between atoms: C12_21  and  N5_22 
REMARK    9  A    between atoms: C16_29  and  C17_30 
REMARK       I    between atoms: C17_30  and  N6_32 
REMARK   10  A    between atoms: N6_32  and  C18_34 
ROOT
HETATM    1  C11 UNL     1      -0.565  21.646  17.457  1.00  0.00     0.114 C 
ENDROOT
BRANCH   1   2
HETATM    2  N4  UNL     1       0.759  21.246  17.640  1.00  0.00    -0.315 N 
HETATM    3  C9  UNL     1       1.232  20.651  18.829  1.00  0.00     0.321 C 
HETATM    4  N3  UNL     1       2.594  20.236  18.981  1.00  0.00    -0.342 N 
HETATM    5  O2  UNL     1       0.466  20.469  19.789  1.00  0.00    -0.247 OA
ATOM      6  H3  UNL     1       3.219  20.391  18.190  1.00  0.00     0.164 HD
HETATM    7  C10 UNL     1       1.734  21.411  16.555  1.00  0.00     0.160 C 
BRANCH   4   8
HETATM    8  C8  UNL     1       3.151  19.627  20.134  1.00  0.00     0.129 C 
BRANCH   8   9
HETATM    9  C7  UNL     1       3.974  20.493  21.024  1.00  0.00     0.007 C 
HETATM   10  C6  UNL     1       3.266  21.031  22.215  1.00  0.00     0.034 C 
HETATM   11  C5  UNL     1       4.159  21.878  23.038  1.00  0.00     0.243 C 
HETATM   12  N2  UNL     1       5.156  22.675  22.454  1.00  0.00    -0.047 N 
HETATM   13  C4  UNL     1       4.854  24.117  22.676  1.00  0.00     0.278 C 
HETATM   14  C26 UNL     1       5.409  22.490  21.031  1.00  0.00     0.243 C 
HETATM   15  C25 UNL     1       4.396  21.766  20.253  1.00  0.00     0.034 C 
BRANCH  12  16
HETATM   16  C3  UNL     1       6.436  22.445  23.069  1.00  0.00     0.257 C 
HETATM   17  C2  UNL     1       6.578  22.038  24.430  1.00  0.00     0.159 C 
BRANCH  17  18
HETATM   18  N1  UNL     1       5.623  21.790  25.401  1.00  0.00    -0.374 N 
HETATM   19  C1  UNL     1       5.632  22.606  26.643  1.00  0.00     0.148 C 
ATOM     20  H1  UNL     1       4.923  21.061  25.266  1.00  0.00     0.161 HD
ENDBRANCH  17  18
BRANCH  17  21
HETATM   21  O1  UNL     1       7.818  21.875  24.817  1.00  0.00    -0.345 OA
ATOM     22  H1  UNL     1       7.955  21.183  25.452  1.00  0.00     0.219 HD
ENDBRANCH  17  21
ENDBRANCH  12  16
ENDBRANCH   8   9
ENDBRANCH   4   8
ENDBRANCH   1   2
BRANCH   1  23
HETATM   23  C12 UNL     1      -1.499  20.761  16.674  1.00  0.00     0.216 C 
HETATM   24  C13 UNL     1      -2.916  21.265  16.904  1.00  0.00     0.058 C 
HETATM   25  C14 UNL     1      -3.898  20.422  16.185  1.00  0.00     0.003 A 
HETATM   26  C15 UNL     1      -3.858  19.015  16.610  1.00  0.00     0.019 A 
HETATM   27  C22 UNL     1      -5.041  19.799  16.915  1.00  0.00    -0.038 A 
HETATM   28  C16 UNL     1      -2.720  18.723  17.569  1.00  0.00     0.155 C 
HETATM   29  C21 UNL     1      -1.459  19.341  17.025  1.00  0.00     0.181 C 
HETATM   30  O4  UNL     1      -0.473  18.674  16.892  1.00  0.00    -0.294 OA
HETATM   31  C23 UNL     1      -5.372  20.364  18.271  1.00  0.00     0.015 C 
HETATM   32  C24 UNL     1      -6.267  19.514  16.051  1.00  0.00     0.015 C 
BRANCH  23  33
HETATM   33  N5  UNL     1      -1.287  20.858  15.226  1.00  0.00    -0.059 N 
ATOM     34  H53 UNL     1      -1.759  20.098  14.736  1.00  0.00     0.276 HD
ATOM     35  H52 UNL     1      -1.797  21.650  14.834  1.00  0.00     0.276 HD
ATOM     36  H51 UNL     1      -0.299  20.898  14.976  1.00  0.00     0.276 HD
ENDBRANCH  23  33
BRANCH  28  37
HETATM   37  C17 UNL     1      -2.584  17.255  17.682  1.00  0.00     0.229 C 
HETATM   38  O3  UNL     1      -2.625  16.738  18.829  1.00  0.00    -0.273 OA
HETATM   39  N6  UNL     1      -2.409  16.384  16.593  1.00  0.00    -0.356 N 
ATOM     40  H6  UNL     1      -2.373  16.790  15.658  1.00  0.00     0.162 HD
BRANCH  39  41
HETATM   41  C18 UNL     1      -2.278  14.955  16.711  1.00  0.00     0.076 C 
HETATM   42  C19 UNL     1      -0.993  14.641  17.423  1.00  0.00     0.032 C 
HETATM   43  C20 UNL     1      -2.201  14.306  15.323  1.00  0.00     0.032 C 
ENDBRANCH  39  41
ENDBRANCH  28  37
ENDBRANCH   1  23
TORSDOF 10
ENDMDL
