MODEL 1
REMARK VINA RESULT: -6.752236404      0.000      0.000
REMARK  10 active torsions:
REMARK  status: ('A' for Active; 'I' for Inactive)
REMARK    1  A    between atoms: C2_2  and  C3_3 
REMARK    2  A    between atoms: C3_3  and  N1_4 
REMARK    3  A    between atoms: C7_8  and  C8_9 
REMARK    4  A    between atoms: C8_9  and  N2_10 
REMARK    5  A    between atoms: N4_23  and  C21_25 
REMARK    6  A    between atoms: C21_25  and  C22_26 
REMARK    7  A    between atoms: C22_26  and  O1_27 
REMARK    8  A    between atoms: C22_26  and  C23_29 
REMARK    9  A    between atoms: C23_29  and  O2_30 
REMARK   10  A    between atoms: C23_29  and  O3_32 
ROOT
HETATM    1  N2  UNL     1      -2.629   2.524  26.394  1.00  0.00    -0.003 N 
HETATM    2  C9  UNL     1      -2.900   1.748  27.594  1.00  0.00     0.283 C 
HETATM    3  C10 UNL     1      -3.808   2.427  25.585  1.00  0.00     0.248 C 
HETATM    4  C11 UNL     1      -4.077   1.151  24.874  1.00  0.00     0.038 C 
HETATM    5  C12 UNL     1      -3.344   0.880  23.620  1.00  0.00    -0.029 C 
HETATM    6  C13 UNL     1      -4.200   0.258  22.505  1.00  0.00     0.040 C 
HETATM    7  C14 UNL     1      -3.280  -0.624  21.684  1.00  0.00     0.273 C 
HETATM    8  N3  UNL     1      -1.911  -0.221  21.660  1.00  0.00     0.090 N 
HETATM    9  C15 UNL     1      -1.148  -1.269  21.012  1.00  0.00     0.310 C 
HETATM   10  C16 UNL     1      -1.299   0.070  22.920  1.00  0.00     0.238 C 
HETATM   11  C17 UNL     1      -2.383  -0.261  23.942  1.00  0.00     0.047 C 
HETATM   12  C18 UNL     1      -1.169   1.548  23.215  1.00  0.00     0.053 C 
HETATM   13  C19 UNL     1      -0.467   2.345  22.173  1.00  0.00     0.254 C 
HETATM   14  N4  UNL     1      -1.417   3.049  21.362  1.00  0.00    -0.067 N 
HETATM   15  C20 UNL     1      -1.247   2.890  19.946  1.00  0.00     0.272 C 
HETATM   16  C24 UNL     1      -2.745   2.521  21.735  1.00  0.00     0.243 C 
HETATM   17  C25 UNL     1      -2.581   2.032  23.091  1.00  0.00     0.037 C 
HETATM   18  C26 UNL     1      -0.712   1.803  24.608  1.00  0.00     0.027 C 
HETATM   19  C27 UNL     1       0.590   1.836  24.685  1.00  0.00    -0.018 C 
HETATM   20  C28 UNL     1       1.443   2.064  25.867  1.00  0.00     0.036 C 
HETATM   21  C29 UNL     1      -1.437   2.003  25.859  1.00  0.00     0.348 C 
HETATM   22  O4  UNL     1      -0.723   1.531  26.784  1.00  0.00    -0.260 OA
ENDROOT
BRANCH   1  23
HETATM   23  C8  UNL     1      -2.492   3.923  26.698  1.00  0.00     0.283 C 
BRANCH  23  24
HETATM   24  C7  UNL     1      -3.473   4.622  27.503  1.00  0.00     0.250 C 
HETATM   25  N1  UNL     1      -2.816   5.181  28.674  1.00  0.00     0.098 N 
HETATM   26  C4  UNL     1      -4.001   5.746  29.342  1.00  0.00     0.273 C 
HETATM   27  C5  UNL     1      -4.605   6.553  28.183  1.00  0.00     0.032 C 
HETATM   28  C6  UNL     1      -4.129   5.845  26.924  1.00  0.00     0.039 C 
BRANCH  25  29
HETATM   29  C3  UNL     1      -1.945   6.290  28.406  1.00  0.00     0.299 C 
BRANCH  29  30
HETATM   30  C2  UNL     1      -1.094   6.592  29.597  1.00  0.00    -0.007 C 
HETATM   31  C1  UNL     1      -1.062   7.822  30.084  1.00  0.00     0.008 C 
ENDBRANCH  29  30
ENDBRANCH  25  29
ENDBRANCH  23  24
ENDBRANCH   1  23
BRANCH  14  32
HETATM   32  C21 UNL     1      -1.325   4.455  21.688  1.00  0.00     0.273 C 
BRANCH  32  33
HETATM   33  C22 UNL     1      -1.454   5.297  20.459  1.00  0.00     0.199 C 
BRANCH  33  34
HETATM   34  O1  UNL     1      -0.437   6.235  20.292  1.00  0.00    -0.389 OA
ATOM     35  H1  UNL     1      -0.588   6.861  19.593  1.00  0.00     0.210 HD
ENDBRANCH  33  34
BRANCH  33  36
HETATM   36  C23 UNL     1      -2.740   6.148  20.524  1.00  0.00     0.284 C 
BRANCH  36  37
HETATM   37  O2  UNL     1      -3.252   6.174  21.798  1.00  0.00    -0.369 OA
ATOM     38  H2  UNL     1      -4.202   6.168  21.786  1.00  0.00     0.212 HD
ENDBRANCH  36  37
BRANCH  36  39
HETATM   39  O3  UNL     1      -3.717   5.593  19.699  1.00  0.00    -0.369 OA
ATOM     40  H3  UNL     1      -4.578   5.876  19.983  1.00  0.00     0.212 HD
ENDBRANCH  36  39
ENDBRANCH  33  36
ENDBRANCH  32  33
ENDBRANCH  14  32
TORSDOF 10
ENDMDL
MODEL 2
REMARK VINA RESULT: -6.618857037      1.086      1.234
REMARK  10 active torsions:
REMARK  status: ('A' for Active; 'I' for Inactive)
REMARK    1  A    between atoms: C2_2  and  C3_3 
REMARK    2  A    between atoms: C3_3  and  N1_4 
REMARK    3  A    between atoms: C7_8  and  C8_9 
REMARK    4  A    between atoms: C8_9  and  N2_10 
REMARK    5  A    between atoms: N4_23  and  C21_25 
REMARK    6  A    between atoms: C21_25  and  C22_26 
REMARK    7  A    between atoms: C22_26  and  O1_27 
REMARK    8  A    between atoms: C22_26  and  C23_29 
REMARK    9  A    between atoms: C23_29  and  O2_30 
REMARK   10  A    between atoms: C23_29  and  O3_32 
ROOT
HETATM    1  N2  UNL     1      -4.413   3.226  26.112  1.00  0.00    -0.003 N 
HETATM    2  C9  UNL     1      -5.129   2.610  27.219  1.00  0.00     0.283 C 
HETATM    3  C10 UNL     1      -5.224   3.016  24.949  1.00  0.00     0.248 C 
HETATM    4  C11 UNL     1      -5.271   1.657  24.353  1.00  0.00     0.038 C 
HETATM    5  C12 UNL     1      -4.146   1.230  23.494  1.00  0.00    -0.029 C 
HETATM    6  C13 UNL     1      -4.567   0.462  22.231  1.00  0.00     0.040 C 
HETATM    7  C14 UNL     1      -3.449  -0.512  21.914  1.00  0.00     0.273 C 
HETATM    8  N3  UNL     1      -2.149  -0.105  22.339  1.00  0.00     0.090 N 
HETATM    9  C15 UNL     1      -1.247  -1.223  22.147  1.00  0.00     0.310 C 
HETATM   10  C16 UNL     1      -2.021   0.351  23.689  1.00  0.00     0.238 C 
HETATM   11  C17 UNL     1      -3.412   0.148  24.281  1.00  0.00     0.047 C 
HETATM   12  C18 UNL     1      -1.946   1.856  23.825  1.00  0.00     0.053 C 
HETATM   13  C19 UNL     1      -0.885   2.516  23.018  1.00  0.00     0.254 C 
HETATM   14  N4  UNL     1      -1.450   3.102  21.838  1.00  0.00    -0.067 N 
HETATM   15  C20 UNL     1      -0.788   2.761  20.611  1.00  0.00     0.272 C 
HETATM   16  C24 UNL     1      -2.843   2.617  21.766  1.00  0.00     0.243 C 
HETATM   17  C25 UNL     1      -3.198   2.309  23.139  1.00  0.00     0.037 C 
HETATM   18  C26 UNL     1      -2.012   2.293  25.246  1.00  0.00     0.027 C 
HETATM   19  C27 UNL     1      -0.825   2.346  25.784  1.00  0.00    -0.018 C 
HETATM   20  C28 UNL     1      -0.447   2.731  27.157  1.00  0.00     0.036 C 
HETATM   21  C29 UNL     1      -3.130   2.649  26.114  1.00  0.00     0.348 C 
HETATM   22  O4  UNL     1      -2.817   2.306  27.286  1.00  0.00    -0.260 OA
ENDROOT
BRANCH   1  23
HETATM   23  C8  UNL     1      -4.339   4.654  26.270  1.00  0.00     0.283 C 
BRANCH  23  24
HETATM   24  C7  UNL     1      -4.816   5.308  27.471  1.00  0.00     0.250 C 
HETATM   25  N1  UNL     1      -3.743   5.341  28.452  1.00  0.00     0.098 N 
HETATM   26  C4  UNL     1      -4.483   5.958  29.567  1.00  0.00     0.273 C 
HETATM   27  C5  UNL     1      -5.080   7.179  28.851  1.00  0.00     0.032 C 
HETATM   28  C6  UNL     1      -5.183   6.764  27.391  1.00  0.00     0.039 C 
BRANCH  25  29
HETATM   29  C3  UNL     1      -2.668   6.240  28.143  1.00  0.00     0.299 C 
BRANCH  29  30
HETATM   30  C2  UNL     1      -1.585   6.139  29.168  1.00  0.00    -0.007 C 
HETATM   31  C1  UNL     1      -0.877   7.213  29.481  1.00  0.00     0.008 C 
ENDBRANCH  29  30
ENDBRANCH  25  29
ENDBRANCH  23  24
ENDBRANCH   1  23
BRANCH  14  32
HETATM   32  C21 UNL     1      -1.425   4.539  21.998  1.00  0.00     0.273 C 
BRANCH  32  33
HETATM   33  C22 UNL     1      -1.482   5.225  20.671  1.00  0.00     0.199 C 
BRANCH  33  34
HETATM   34  O1  UNL     1      -0.445   6.129  20.442  1.00  0.00    -0.389 OA
ATOM     35  H1  UNL     1       0.407   5.836  20.744  1.00  0.00     0.210 HD
ENDBRANCH  33  34
BRANCH  33  36
HETATM   36  C23 UNL     1      -2.758   6.086  20.566  1.00  0.00     0.284 C 
BRANCH  36  37
HETATM   37  O2  UNL     1      -3.388   6.187  21.782  1.00  0.00    -0.369 OA
ATOM     38  H2  UNL     1      -4.215   5.717  21.780  1.00  0.00     0.212 HD
ENDBRANCH  36  37
BRANCH  36  39
HETATM   39  O3  UNL     1      -3.658   5.492  19.683  1.00  0.00    -0.369 OA
ATOM     40  H3  UNL     1      -4.516   5.434  20.088  1.00  0.00     0.212 HD
ENDBRANCH  36  39
ENDBRANCH  33  36
ENDBRANCH  32  33
ENDBRANCH  14  32
TORSDOF 10
ENDMDL
MODEL 3
REMARK VINA RESULT: -6.297391620      1.847      2.507
REMARK  10 active torsions:
REMARK  status: ('A' for Active; 'I' for Inactive)
REMARK    1  A    between atoms: C2_2  and  C3_3 
REMARK    2  A    between atoms: C3_3  and  N1_4 
REMARK    3  A    between atoms: C7_8  and  C8_9 
REMARK    4  A    between atoms: C8_9  and  N2_10 
REMARK    5  A    between atoms: N4_23  and  C21_25 
REMARK    6  A    between atoms: C21_25  and  C22_26 
REMARK    7  A    between atoms: C22_26  and  O1_27 
REMARK    8  A    between atoms: C22_26  and  C23_29 
REMARK    9  A    between atoms: C23_29  and  O2_30 
REMARK   10  A    between atoms: C23_29  and  O3_32 
ROOT
HETATM    1  N2  UNL     1      -1.762   2.772  27.822  1.00  0.00    -0.003 N 
HETATM    2  C9  UNL     1      -0.900   2.230  28.861  1.00  0.00     0.283 C 
HETATM    3  C10 UNL     1      -3.081   2.288  28.108  1.00  0.00     0.248 C 
HETATM    4  C11 UNL     1      -3.391   0.864  27.825  1.00  0.00     0.038 C 
HETATM    5  C12 UNL     1      -3.685   0.476  26.429  1.00  0.00    -0.029 C 
HETATM    6  C13 UNL     1      -4.849  -0.515  26.277  1.00  0.00     0.040 C 
HETATM    7  C14 UNL     1      -4.550  -1.363  25.056  1.00  0.00     0.273 C 
HETATM    8  N3  UNL     1      -3.763  -0.725  24.051  1.00  0.00     0.090 N 
HETATM    9  C15 UNL     1      -3.402  -1.725  23.065  1.00  0.00     0.310 C 
HETATM   10  C16 UNL     1      -2.569  -0.067  24.483  1.00  0.00     0.238 C 
HETATM   11  C17 UNL     1      -2.499  -0.371  25.977  1.00  0.00     0.047 C 
HETATM   12  C18 UNL     1      -2.695   1.438  24.576  1.00  0.00     0.053 C 
HETATM   13  C19 UNL     1      -3.165   2.114  23.337  1.00  0.00     0.254 C 
HETATM   14  N4  UNL     1      -4.556   2.441  23.447  1.00  0.00    -0.067 N 
HETATM   15  C20 UNL     1      -5.372   2.022  22.342  1.00  0.00     0.272 C 
HETATM   16  C24 UNL     1      -5.042   1.765  24.667  1.00  0.00     0.243 C 
HETATM   17  C25 UNL     1      -3.862   1.613  25.498  1.00  0.00     0.037 C 
HETATM   18  C26 UNL     1      -1.503   2.061  25.212  1.00  0.00     0.027 C 
HETATM   19  C27 UNL     1      -0.588   2.353  24.329  1.00  0.00    -0.018 C 
HETATM   20  C28 UNL     1       0.732   2.979  24.535  1.00  0.00     0.036 C 
HETATM   21  C29 UNL     1      -1.185   2.382  26.600  1.00  0.00     0.348 C 
HETATM   22  O4  UNL     1       0.061   2.257  26.736  1.00  0.00    -0.260 OA
ENDROOT
BRANCH   1  23
HETATM   23  C8  UNL     1      -1.855   4.204  27.918  1.00  0.00     0.283 C 
BRANCH  23  24
HETATM   24  C7  UNL     1      -3.067   4.856  28.369  1.00  0.00     0.250 C 
HETATM   25  N1  UNL     1      -2.745   5.746  29.473  1.00  0.00     0.098 N 
HETATM   26  C4  UNL     1      -4.109   6.205  29.790  1.00  0.00     0.273 C 
HETATM   27  C5  UNL     1      -4.578   6.642  28.395  1.00  0.00     0.032 C 
HETATM   28  C6  UNL     1      -3.762   5.799  27.426  1.00  0.00     0.039 C 
BRANCH  25  29
HETATM   29  C3  UNL     1      -2.006   6.921  29.107  1.00  0.00     0.299 C 
BRANCH  29  30
HETATM   30  C2  UNL     1      -1.058   7.308  30.196  1.00  0.00    -0.007 C 
HETATM   31  C1  UNL     1      -1.316   8.370  30.942  1.00  0.00     0.008 C 
ENDBRANCH  29  30
ENDBRANCH  25  29
ENDBRANCH  23  24
ENDBRANCH   1  23
BRANCH  14  32
HETATM   32  C21 UNL     1      -4.667   3.877  23.589  1.00  0.00     0.273 C 
BRANCH  32  33
HETATM   33  C22 UNL     1      -3.581   4.573  22.833  1.00  0.00     0.199 C 
BRANCH  33  34
HETATM   34  O1  UNL     1      -2.913   5.559  23.557  1.00  0.00    -0.389 OA
ATOM     35  H1  UNL     1      -2.988   5.475  24.500  1.00  0.00     0.210 HD
ENDBRANCH  33  34
BRANCH  33  36
HETATM   36  C23 UNL     1      -4.171   5.331  21.625  1.00  0.00     0.284 C 
BRANCH  36  37
HETATM   37  O2  UNL     1      -3.581   6.562  21.477  1.00  0.00    -0.369 OA
ATOM     38  H2  UNL     1      -4.209   7.210  21.180  1.00  0.00     0.212 HD
ENDBRANCH  36  37
BRANCH  36  39
HETATM   39  O3  UNL     1      -5.534   5.549  21.822  1.00  0.00    -0.369 OA
ATOM     40  H3  UNL     1      -5.723   6.478  21.768  1.00  0.00     0.212 HD
ENDBRANCH  36  39
ENDBRANCH  33  36
ENDBRANCH  32  33
ENDBRANCH  14  32
TORSDOF 10
ENDMDL
MODEL 4
REMARK VINA RESULT: -6.259940555      2.749      7.274
REMARK  10 active torsions:
REMARK  status: ('A' for Active; 'I' for Inactive)
REMARK    1  A    between atoms: C2_2  and  C3_3 
REMARK    2  A    between atoms: C3_3  and  N1_4 
REMARK    3  A    between atoms: C7_8  and  C8_9 
REMARK    4  A    between atoms: C8_9  and  N2_10 
REMARK    5  A    between atoms: N4_23  and  C21_25 
REMARK    6  A    between atoms: C21_25  and  C22_26 
REMARK    7  A    between atoms: C22_26  and  O1_27 
REMARK    8  A    between atoms: C22_26  and  C23_29 
REMARK    9  A    between atoms: C23_29  and  O2_30 
REMARK   10  A    between atoms: C23_29  and  O3_32 
ROOT
HETATM    1  N2  UNL     1       0.570  -1.699  22.660  1.00  0.00    -0.003 N 
HETATM    2  C9  UNL     1       0.883  -3.049  23.102  1.00  0.00     0.283 C 
HETATM    3  C10 UNL     1       1.655  -0.874  23.104  1.00  0.00     0.248 C 
HETATM    4  C11 UNL     1       1.744  -0.537  24.548  1.00  0.00     0.038 C 
HETATM    5  C12 UNL     1       0.875   0.540  25.070  1.00  0.00    -0.029 C 
HETATM    6  C13 UNL     1       1.566   1.487  26.064  1.00  0.00     0.040 C 
HETATM    7  C14 UNL     1       0.499   1.964  27.030  1.00  0.00     0.273 C 
HETATM    8  N3  UNL     1      -0.825   2.011  26.501  1.00  0.00     0.090 N 
HETATM    9  C15 UNL     1      -1.735   2.285  27.596  1.00  0.00     0.310 C 
HETATM   10  C16 UNL     1      -1.289   0.847  25.810  1.00  0.00     0.238 C 
HETATM   11  C17 UNL     1      -0.147  -0.153  25.966  1.00  0.00     0.047 C 
HETATM   12  C18 UNL     1      -1.261   0.973  24.303  1.00  0.00     0.053 C 
HETATM   13  C19 UNL     1      -1.985   2.149  23.750  1.00  0.00     0.254 C 
HETATM   14  N4  UNL     1      -1.057   3.186  23.404  1.00  0.00    -0.067 N 
HETATM   15  C20 UNL     1      -1.372   4.486  23.925  1.00  0.00     0.272 C 
HETATM   16  C24 UNL     1       0.249   2.768  23.953  1.00  0.00     0.243 C 
HETATM   17  C25 UNL     1       0.170   1.320  24.030  1.00  0.00     0.037 C 
HETATM   18  C26 UNL     1      -1.562  -0.318  23.627  1.00  0.00     0.027 C 
HETATM   19  C27 UNL     1      -2.843  -0.467  23.431  1.00  0.00    -0.018 C 
HETATM   20  C28 UNL     1      -3.558  -1.590  22.796  1.00  0.00     0.036 C 
HETATM   21  C29 UNL     1      -0.708  -1.411  23.173  1.00  0.00     0.348 C 
HETATM   22  O4  UNL     1      -1.370  -2.477  23.292  1.00  0.00    -0.260 OA
ENDROOT
BRANCH   1  23
HETATM   23  C8  UNL     1       0.585  -1.604  21.225  1.00  0.00     0.283 C 
BRANCH  23  24
HETATM   24  C7  UNL     1       0.644  -0.323  20.551  1.00  0.00     0.250 C 
HETATM   25  N1  UNL     1       1.492  -0.443  19.376  1.00  0.00     0.098 N 
HETATM   26  C4  UNL     1       1.455   0.961  18.933  1.00  0.00     0.273 C 
HETATM   27  C5  UNL     1      -0.062   1.200  18.922  1.00  0.00     0.032 C 
HETATM   28  C6  UNL     1      -0.620   0.222  19.945  1.00  0.00     0.039 C 
BRANCH  25  29
HETATM   29  C3  UNL     1       0.931  -1.213  18.302  1.00  0.00     0.299 C 
BRANCH  29  30
HETATM   30  C2  UNL     1       1.865  -2.307  17.893  1.00  0.00    -0.007 C 
HETATM   31  C1  UNL     1       3.009  -2.466  18.538  1.00  0.00     0.008 C 
ENDBRANCH  29  30
ENDBRANCH  25  29
ENDBRANCH  23  24
ENDBRANCH   1  23
BRANCH  14  32
HETATM   32  C21 UNL     1      -0.994   3.265  21.961  1.00  0.00     0.273 C 
BRANCH  32  33
HETATM   33  C22 UNL     1      -2.130   4.074  21.421  1.00  0.00     0.199 C 
BRANCH  33  34
HETATM   34  O1  UNL     1      -3.106   3.332  20.760  1.00  0.00    -0.389 OA
ATOM     35  H1  UNL     1      -3.021   3.320  19.814  1.00  0.00     0.210 HD
ENDBRANCH  33  34
BRANCH  33  36
HETATM   36  C23 UNL     1      -1.622   5.062  20.349  1.00  0.00     0.284 C 
BRANCH  36  37
HETATM   37  O2  UNL     1      -1.237   4.400  19.209  1.00  0.00    -0.369 OA
ATOM     38  H2  UNL     1      -1.889   3.762  18.946  1.00  0.00     0.212 HD
ENDBRANCH  36  37
BRANCH  36  39
HETATM   39  O3  UNL     1      -0.505   5.745  20.827  1.00  0.00    -0.369 OA
ATOM     40  H3  UNL     1      -0.448   6.599  20.414  1.00  0.00     0.212 HD
ENDBRANCH  36  39
ENDBRANCH  33  36
ENDBRANCH  32  33
ENDBRANCH  14  32
TORSDOF 10
ENDMDL
MODEL 5
REMARK VINA RESULT: -6.201587038      2.373      7.101
REMARK  10 active torsions:
REMARK  status: ('A' for Active; 'I' for Inactive)
REMARK    1  A    between atoms: C2_2  and  C3_3 
REMARK    2  A    between atoms: C3_3  and  N1_4 
REMARK    3  A    between atoms: C7_8  and  C8_9 
REMARK    4  A    between atoms: C8_9  and  N2_10 
REMARK    5  A    between atoms: N4_23  and  C21_25 
REMARK    6  A    between atoms: C21_25  and  C22_26 
REMARK    7  A    between atoms: C22_26  and  O1_27 
REMARK    8  A    between atoms: C22_26  and  C23_29 
REMARK    9  A    between atoms: C23_29  and  O2_30 
REMARK   10  A    between atoms: C23_29  and  O3_32 
ROOT
HETATM    1  N2  UNL     1      -0.228  -1.144  22.556  1.00  0.00    -0.003 N 
HETATM    2  C9  UNL     1       0.156  -2.428  23.122  1.00  0.00     0.283 C 
HETATM    3  C10 UNL     1       0.742  -0.198  23.024  1.00  0.00     0.248 C 
HETATM    4  C11 UNL     1       0.677   0.242  24.441  1.00  0.00     0.038 C 
HETATM    5  C12 UNL     1      -0.320   1.269  24.809  1.00  0.00    -0.029 C 
HETATM    6  C13 UNL     1       0.200   2.339  25.783  1.00  0.00     0.040 C 
HETATM    7  C14 UNL     1      -0.982   2.783  26.621  1.00  0.00     0.273 C 
HETATM    8  N3  UNL     1      -2.255   2.676  25.984  1.00  0.00     0.090 N 
HETATM    9  C15 UNL     1      -3.276   2.942  26.979  1.00  0.00     0.310 C 
HETATM   10  C16 UNL     1      -2.559   1.432  25.347  1.00  0.00     0.238 C 
HETATM   11  C17 UNL     1      -1.356   0.550  25.669  1.00  0.00     0.047 C 
HETATM   12  C18 UNL     1      -2.410   1.459  23.842  1.00  0.00     0.053 C 
HETATM   13  C19 UNL     1      -3.178   2.526  23.147  1.00  0.00     0.254 C 
HETATM   14  N4  UNL     1      -2.313   3.615  22.801  1.00  0.00    -0.067 N 
HETATM   15  C20 UNL     1      -2.779   4.914  23.196  1.00  0.00     0.272 C 
HETATM   16  C24 UNL     1      -1.030   3.353  23.483  1.00  0.00     0.243 C 
HETATM   17  C25 UNL     1      -0.995   1.913  23.661  1.00  0.00     0.037 C 
HETATM   18  C26 UNL     1      -2.543   0.103  23.242  1.00  0.00     0.027 C 
HETATM   19  C27 UNL     1      -3.785  -0.172  22.955  1.00  0.00    -0.018 C 
HETATM   20  C28 UNL     1      -4.346  -1.395  22.349  1.00  0.00     0.036 C 
HETATM   21  C29 UNL     1      -1.565  -0.938  22.941  1.00  0.00     0.348 C 
HETATM   22  O4  UNL     1      -2.144  -2.048  23.085  1.00  0.00    -0.260 OA
ENDROOT
BRANCH   1  23
HETATM   23  C8  UNL     1      -0.096  -1.146  21.124  1.00  0.00     0.283 C 
BRANCH  23  24
HETATM   24  C7  UNL     1       0.346   0.031  20.403  1.00  0.00     0.250 C 
HETATM   25  N1  UNL     1       1.322  -0.365  19.400  1.00  0.00     0.098 N 
HETATM   26  C4  UNL     1       1.662   0.972  18.884  1.00  0.00     0.273 C 
HETATM   27  C5  UNL     1       0.254   1.516  18.598  1.00  0.00     0.032 C 
HETATM   28  C6  UNL     1      -0.657   0.769  19.560  1.00  0.00     0.039 C 
BRANCH  25  29
HETATM   29  C3  UNL     1       0.784  -1.095  18.288  1.00  0.00     0.299 C 
BRANCH  29  30
HETATM   30  C2  UNL     1       1.633  -2.286  17.978  1.00  0.00    -0.007 C 
HETATM   31  C1  UNL     1       2.836  -2.391  18.520  1.00  0.00     0.008 C 
ENDBRANCH  29  30
ENDBRANCH  25  29
ENDBRANCH  23  24
ENDBRANCH   1  23
BRANCH  14  32
HETATM   32  C21 UNL     1      -2.132   3.603  21.365  1.00  0.00     0.273 C 
BRANCH  32  33
HETATM   33  C22 UNL     1      -2.615   4.879  20.755  1.00  0.00     0.199 C 
BRANCH  33  34
HETATM   34  O1  UNL     1      -3.633   4.722  19.815  1.00  0.00    -0.389 OA
ATOM     35  H1  UNL     1      -3.360   4.843  18.913  1.00  0.00     0.210 HD
ENDBRANCH  33  34
BRANCH  33  36
HETATM   36  C23 UNL     1      -1.478   5.559  19.964  1.00  0.00     0.284 C 
BRANCH  36  37
HETATM   37  O2  UNL     1      -1.093   4.792  18.892  1.00  0.00    -0.369 OA
ATOM     38  H2  UNL     1      -0.693   5.325  18.215  1.00  0.00     0.212 HD
ENDBRANCH  36  37
BRANCH  36  39
HETATM   39  O3  UNL     1      -0.360   5.714  20.782  1.00  0.00    -0.369 OA
ATOM     40  H3  UNL     1       0.363   6.068  20.276  1.00  0.00     0.212 HD
ENDBRANCH  36  39
ENDBRANCH  33  36
ENDBRANCH  32  33
ENDBRANCH  14  32
TORSDOF 10
ENDMDL
