MODEL 1
REMARK VINA RESULT: -8.518274930      0.000      0.000
REMARK  11 active torsions:
REMARK  status: ('A' for Active; 'I' for Inactive)
REMARK    1  A    between atoms: C6_6  and  C7_7 
REMARK    2  A    between atoms: C7_7  and  C8_8 
REMARK    3  A    between atoms: C8_8  and  C9_9 
REMARK    4  A    between atoms: N1_13  and  C13_14 
REMARK    5  A    between atoms: C15_18  and  C16_19 
REMARK    6  A    between atoms: C15_18  and  C17_25 
REMARK    7  A    between atoms: N3_20  and  N4_22 
REMARK    8  A    between atoms: C17_25  and  S1_26 
REMARK    9  A    between atoms: C19_29  and  O2_30 
REMARK   10  A    between atoms: C20_32  and  C21_33 
REMARK   11  A    between atoms: C21_33  and  O3_34 
ROOT
HETATM    1  C13 UNL     1      18.981 -12.955  21.782  1.00  0.00     0.121 C 
HETATM    2  C14 UNL     1      19.778 -13.923  22.152  1.00  0.00     0.031 C 
HETATM    3  N2  UNL     1      21.153 -13.688  22.583  1.00  0.00    -0.374 N 
ATOM      4  H2  UNL     1      21.889 -13.116  22.169  1.00  0.00     0.160 HD
HETATM    5  C15 UNL     1      21.158 -14.532  23.807  1.00  0.00     0.101 C 
HETATM    6  C19 UNL     1      20.608 -15.810  23.287  1.00  0.00     0.164 C 
HETATM    7  C20 UNL     1      19.567 -15.386  22.242  1.00  0.00     0.092 C 
ENDROOT
BRANCH   1   8
HETATM    8  N1  UNL     1      17.644 -13.047  21.350  1.00  0.00    -0.341 N 
HETATM    9  C12 UNL     1      17.094 -14.240  20.979  1.00  0.00     0.096 A 
HETATM   10  C11 UNL     1      15.799 -14.320  20.522  1.00  0.00     0.018 A 
HETATM   11  C10 UNL     1      15.062 -13.152  20.447  1.00  0.00     0.010 A 
HETATM   12  C9  UNL     1      15.577 -11.940  20.811  1.00  0.00    -0.042 A 
HETATM   13  C22 UNL     1      16.893 -11.909  21.268  1.00  0.00     0.103 A 
BRANCH  12  14
HETATM   14  C8  UNL     1      14.818 -10.690  20.687  1.00  0.00     0.044 C 
BRANCH  14  15
HETATM   15  C7  UNL     1      13.356 -10.770  20.658  1.00  0.00     0.043 C 
BRANCH  15  16
HETATM   16  C6  UNL     1      12.596 -10.624  21.885  1.00  0.00    -0.057 A 
HETATM   17  C5  UNL     1      11.910 -11.612  22.527  1.00  0.00     0.007 A 
HETATM   18  C4  UNL     1      11.262 -11.346  23.705  1.00  0.00     0.001 A 
HETATM   19  C3  UNL     1      11.270 -10.111  24.285  1.00  0.00     0.007 A 
HETATM   20  C2  UNL     1      11.953  -9.089  23.664  1.00  0.00    -0.061 A 
HETATM   21  C1  UNL     1      12.007  -7.722  24.258  1.00  0.00     0.048 C 
HETATM   22  C23 UNL     1      12.599  -9.359  22.486  1.00  0.00     0.013 A 
ENDBRANCH  15  16
ENDBRANCH  14  15
ENDBRANCH  12  14
ENDBRANCH   1   8
BRANCH   7  23
HETATM   23  C21 UNL     1      19.888 -16.093  20.929  1.00  0.00     0.177 C 
BRANCH  23  24
HETATM   24  O3  UNL     1      19.377 -17.360  20.912  1.00  0.00    -0.400 OA
ATOM     25  H3  UNL     1      20.002 -17.978  20.550  1.00  0.00     0.209 HD
ENDBRANCH  23  24
ENDBRANCH   7  23
BRANCH   5  26
HETATM   26  C16 UNL     1      22.568 -14.667  24.279  1.00  0.00     0.114 C 
HETATM   27  N3  UNL     1      23.506 -14.289  23.506  1.00  0.00    -0.320 N 
ATOM     28  H3  UNL     1      23.259 -13.908  22.593  1.00  0.00     0.185 HD
BRANCH  27  29
HETATM   29  N4  UNL     1      24.865 -14.371  23.851  1.00  0.00    -0.346 N 
ATOM     30  H42 UNL     1      25.195 -15.247  24.256  1.00  0.00     0.176 HD
ATOM     31  H41 UNL     1      25.522 -13.602  23.716  1.00  0.00     0.176 HD
ENDBRANCH  27  29
ENDBRANCH   5  26
BRANCH   5  32
HETATM   32  C17 UNL     1      20.334 -13.794  24.800  1.00  0.00     0.147 C 
BRANCH  32  33
HETATM   33  S1  UNL     1      20.285 -14.414  26.422  1.00  0.00     0.013 S 
HETATM   34  C18 UNL     1      18.900 -15.372  26.866  1.00  0.00     0.127 C 
HETATM   35  O1  UNL     1      20.472 -13.157  27.521  1.00  0.00    -0.258 OA
ENDBRANCH  32  33
ENDBRANCH   5  32
BRANCH   6  36
HETATM   36  O2  UNL     1      21.652 -16.453  22.586  1.00  0.00    -0.392 OA
ATOM     37  H2  UNL     1      21.619 -17.373  22.823  1.00  0.00     0.210 HD
ENDBRANCH   6  36
TORSDOF 11
ENDMDL
MODEL 2
REMARK VINA RESULT: -8.355666329      4.920      8.772
REMARK  11 active torsions:
REMARK  status: ('A' for Active; 'I' for Inactive)
REMARK    1  A    between atoms: C6_6  and  C7_7 
REMARK    2  A    between atoms: C7_7  and  C8_8 
REMARK    3  A    between atoms: C8_8  and  C9_9 
REMARK    4  A    between atoms: N1_13  and  C13_14 
REMARK    5  A    between atoms: C15_18  and  C16_19 
REMARK    6  A    between atoms: C15_18  and  C17_25 
REMARK    7  A    between atoms: N3_20  and  N4_22 
REMARK    8  A    between atoms: C17_25  and  S1_26 
REMARK    9  A    between atoms: C19_29  and  O2_30 
REMARK   10  A    between atoms: C20_32  and  C21_33 
REMARK   11  A    between atoms: C21_33  and  O3_34 
ROOT
HETATM    1  C13 UNL     1      15.370 -13.964  19.027  1.00  0.00     0.121 C 
HETATM    2  C14 UNL     1      14.469 -14.832  19.407  1.00  0.00     0.031 C 
HETATM    3  N2  UNL     1      13.586 -15.513  18.464  1.00  0.00    -0.374 N 
ATOM      4  H2  UNL     1      13.038 -15.146  17.686  1.00  0.00     0.160 HD
HETATM    5  C15 UNL     1      13.726 -16.901  18.979  1.00  0.00     0.101 C 
HETATM    6  C19 UNL     1      13.476 -16.704  20.431  1.00  0.00     0.164 C 
HETATM    7  C20 UNL     1      14.102 -15.339  20.749  1.00  0.00     0.092 C 
ENDROOT
BRANCH   1   8
HETATM    8  N1  UNL     1      16.278 -13.245  19.828  1.00  0.00    -0.341 N 
HETATM    9  C12 UNL     1      16.250 -11.881  19.889  1.00  0.00     0.096 A 
HETATM   10  C11 UNL     1      17.163 -11.181  20.643  1.00  0.00     0.018 A 
HETATM   11  C10 UNL     1      18.117 -11.898  21.343  1.00  0.00     0.010 A 
HETATM   12  C9  UNL     1      18.175 -13.262  21.306  1.00  0.00    -0.042 A 
HETATM   13  C22 UNL     1      17.229 -13.928  20.529  1.00  0.00     0.103 A 
BRANCH  12  14
HETATM   14  C8  UNL     1      19.214 -14.027  22.006  1.00  0.00     0.044 C 
BRANCH  14  15
HETATM   15  C7  UNL     1      20.230 -13.285  22.756  1.00  0.00     0.043 C 
BRANCH  15  16
HETATM   16  C6  UNL     1      20.308 -13.417  24.198  1.00  0.00    -0.057 A 
HETATM   17  C5  UNL     1      20.912 -12.543  25.053  1.00  0.00     0.007 A 
HETATM   18  C4  UNL     1      20.880 -12.769  26.405  1.00  0.00     0.001 A 
HETATM   19  C3  UNL     1      20.258 -13.853  26.953  1.00  0.00     0.007 A 
HETATM   20  C2  UNL     1      19.638 -14.756  26.119  1.00  0.00    -0.061 A 
HETATM   21  C1  UNL     1      18.931 -15.952  26.663  1.00  0.00     0.048 C 
HETATM   22  C23 UNL     1      19.672 -14.527  24.768  1.00  0.00     0.013 A 
ENDBRANCH  15  16
ENDBRANCH  14  15
ENDBRANCH  12  14
ENDBRANCH   1   8
BRANCH   7  23
HETATM   23  C21 UNL     1      13.044 -14.469  21.421  1.00  0.00     0.177 C 
BRANCH  23  24
HETATM   24  O3  UNL     1      13.060 -14.632  22.777  1.00  0.00    -0.400 OA
ATOM     25  H3  UNL     1      13.029 -13.794  23.224  1.00  0.00     0.209 HD
ENDBRANCH  23  24
ENDBRANCH   7  23
BRANCH   5  26
HETATM   26  C16 UNL     1      12.684 -17.750  18.330  1.00  0.00     0.114 C 
HETATM   27  N3  UNL     1      11.842 -17.192  17.555  1.00  0.00    -0.320 N 
ATOM     28  H3  UNL     1      11.911 -16.185  17.407  1.00  0.00     0.185 HD
BRANCH  27  29
HETATM   29  N4  UNL     1      10.823 -17.898  16.894  1.00  0.00    -0.346 N 
ATOM     30  H42 UNL     1      10.637 -18.853  17.202  1.00  0.00     0.176 HD
ATOM     31  H41 UNL     1      10.272 -17.500  16.134  1.00  0.00     0.176 HD
ENDBRANCH  27  29
ENDBRANCH   5  26
BRANCH   5  32
HETATM   32  C17 UNL     1      15.090 -17.335  18.579  1.00  0.00     0.147 C 
BRANCH  32  33
HETATM   33  S1  UNL     1      15.383 -17.602  16.887  1.00  0.00     0.013 S 
HETATM   34  C18 UNL     1      16.841 -18.451  16.457  1.00  0.00     0.127 C 
HETATM   35  O1  UNL     1      15.318 -16.142  16.058  1.00  0.00    -0.258 OA
ENDBRANCH  32  33
ENDBRANCH   5  32
BRANCH   6  36
HETATM   36  O2  UNL     1      12.080 -16.562  20.593  1.00  0.00    -0.392 OA
ATOM     37  H2  UNL     1      11.700 -17.425  20.482  1.00  0.00     0.210 HD
ENDBRANCH   6  36
TORSDOF 11
ENDMDL
MODEL 3
REMARK VINA RESULT: -8.326571779      5.203      8.863
REMARK  11 active torsions:
REMARK  status: ('A' for Active; 'I' for Inactive)
REMARK    1  A    between atoms: C6_6  and  C7_7 
REMARK    2  A    between atoms: C7_7  and  C8_8 
REMARK    3  A    between atoms: C8_8  and  C9_9 
REMARK    4  A    between atoms: N1_13  and  C13_14 
REMARK    5  A    between atoms: C15_18  and  C16_19 
REMARK    6  A    between atoms: C15_18  and  C17_25 
REMARK    7  A    between atoms: N3_20  and  N4_22 
REMARK    8  A    between atoms: C17_25  and  S1_26 
REMARK    9  A    between atoms: C19_29  and  O2_30 
REMARK   10  A    between atoms: C20_32  and  C21_33 
REMARK   11  A    between atoms: C21_33  and  O3_34 
ROOT
HETATM    1  C13 UNL     1      14.221 -13.645  19.733  1.00  0.00     0.121 C 
HETATM    2  C14 UNL     1      13.811 -14.867  19.947  1.00  0.00     0.031 C 
HETATM    3  N2  UNL     1      12.462 -15.315  19.611  1.00  0.00    -0.374 N 
ATOM      4  H2  UNL     1      11.556 -14.882  19.790  1.00  0.00     0.160 HD
HETATM    5  C15 UNL     1      12.806 -16.592  18.931  1.00  0.00     0.101 C 
HETATM    6  C19 UNL     1      13.717 -17.219  19.923  1.00  0.00     0.164 C 
HETATM    7  C20 UNL     1      14.498 -16.044  20.527  1.00  0.00     0.092 C 
ENDROOT
BRANCH   1   8
HETATM    8  N1  UNL     1      15.486 -13.091  20.006  1.00  0.00    -0.341 N 
HETATM    9  C12 UNL     1      15.962 -12.019  19.307  1.00  0.00     0.096 A 
HETATM   10  C11 UNL     1      17.214 -11.505  19.551  1.00  0.00     0.018 A 
HETATM   11  C10 UNL     1      17.985 -12.105  20.531  1.00  0.00     0.010 A 
HETATM   12  C9  UNL     1      17.542 -13.177  21.251  1.00  0.00    -0.042 A 
HETATM   13  C22 UNL     1      16.267 -13.663  20.969  1.00  0.00     0.103 A 
BRANCH  12  14
HETATM   14  C8  UNL     1      18.373 -13.850  22.257  1.00  0.00     0.044 C 
BRANCH  14  15
HETATM   15  C7  UNL     1      19.482 -13.099  22.850  1.00  0.00     0.043 C 
BRANCH  15  16
HETATM   16  C6  UNL     1      19.853 -13.323  24.234  1.00  0.00    -0.057 A 
HETATM   17  C5  UNL     1      20.657 -12.523  24.990  1.00  0.00     0.007 A 
HETATM   18  C4  UNL     1      20.897 -12.832  26.304  1.00  0.00     0.001 A 
HETATM   19  C3  UNL     1      20.357 -13.928  26.911  1.00  0.00     0.007 A 
HETATM   20  C2  UNL     1      19.539 -14.759  26.177  1.00  0.00    -0.061 A 
HETATM   21  C1  UNL     1      18.911 -15.964  26.792  1.00  0.00     0.048 C 
HETATM   22  C23 UNL     1      19.302 -14.447  24.864  1.00  0.00     0.013 A 
ENDBRANCH  15  16
ENDBRANCH  14  15
ENDBRANCH  12  14
ENDBRANCH   1   8
BRANCH   7  23
HETATM   23  C21 UNL     1      14.355 -16.101  22.045  1.00  0.00     0.177 C 
BRANCH  23  24
HETATM   24  O3  UNL     1      13.373 -15.256  22.480  1.00  0.00    -0.400 OA
ATOM     25  H3  UNL     1      13.714 -14.383  22.634  1.00  0.00     0.209 HD
ENDBRANCH  23  24
ENDBRANCH   7  23
BRANCH   5  26
HETATM   26  C16 UNL     1      11.549 -17.373  18.736  1.00  0.00     0.114 C 
HETATM   27  N3  UNL     1      11.640 -18.620  18.496  1.00  0.00    -0.320 N 
ATOM     28  H3  UNL     1      12.569 -19.039  18.445  1.00  0.00     0.185 HD
BRANCH  27  29
HETATM   29  N4  UNL     1      10.522 -19.447  18.297  1.00  0.00    -0.346 N 
ATOM     30  H42 UNL     1       9.641 -19.155  18.719  1.00  0.00     0.176 HD
ATOM     31  H41 UNL     1      10.558 -20.312  17.757  1.00  0.00     0.176 HD
ENDBRANCH  27  29
ENDBRANCH   5  26
BRANCH   5  32
HETATM   32  C17 UNL     1      13.394 -16.197  17.624  1.00  0.00     0.147 C 
BRANCH  32  33
HETATM   33  S1  UNL     1      14.677 -17.183  16.991  1.00  0.00     0.013 S 
HETATM   34  C18 UNL     1      15.523 -16.584  15.591  1.00  0.00     0.127 C 
HETATM   35  O1  UNL     1      14.108 -18.732  16.682  1.00  0.00    -0.258 OA
ENDBRANCH  32  33
ENDBRANCH   5  32
BRANCH   6  36
HETATM   36  O2  UNL     1      12.906 -17.744  20.953  1.00  0.00    -0.392 OA
ATOM     37  H2  UNL     1      13.474 -18.252  21.521  1.00  0.00     0.210 HD
ENDBRANCH   6  36
TORSDOF 11
ENDMDL
MODEL 4
REMARK VINA RESULT: -8.310287128      3.784      7.858
REMARK  11 active torsions:
REMARK  status: ('A' for Active; 'I' for Inactive)
REMARK    1  A    between atoms: C6_6  and  C7_7 
REMARK    2  A    between atoms: C7_7  and  C8_8 
REMARK    3  A    between atoms: C8_8  and  C9_9 
REMARK    4  A    between atoms: N1_13  and  C13_14 
REMARK    5  A    between atoms: C15_18  and  C16_19 
REMARK    6  A    between atoms: C15_18  and  C17_25 
REMARK    7  A    between atoms: N3_20  and  N4_22 
REMARK    8  A    between atoms: C17_25  and  S1_26 
REMARK    9  A    between atoms: C19_29  and  O2_30 
REMARK   10  A    between atoms: C20_32  and  C21_33 
REMARK   11  A    between atoms: C21_33  and  O3_34 
ROOT
HETATM    1  C13 UNL     1      16.135 -15.522  20.872  1.00  0.00     0.121 C 
HETATM    2  C14 UNL     1      16.274 -14.224  20.803  1.00  0.00     0.031 C 
HETATM    3  N2  UNL     1      16.196 -13.490  19.544  1.00  0.00    -0.374 N 
ATOM      4  H2  UNL     1      16.631 -13.676  18.640  1.00  0.00     0.160 HD
HETATM    5  C15 UNL     1      15.295 -12.388  19.974  1.00  0.00     0.101 C 
HETATM    6  C19 UNL     1      15.963 -11.928  21.218  1.00  0.00     0.164 C 
HETATM    7  C20 UNL     1      16.523 -13.208  21.852  1.00  0.00     0.092 C 
ENDROOT
BRANCH   1   8
HETATM    8  N1  UNL     1      16.185 -16.343  22.015  1.00  0.00    -0.341 N 
HETATM    9  C12 UNL     1      15.106 -17.079  22.412  1.00  0.00     0.096 A 
HETATM   10  C11 UNL     1      15.147 -17.850  23.550  1.00  0.00     0.018 A 
HETATM   11  C10 UNL     1      16.317 -17.862  24.288  1.00  0.00     0.010 A 
HETATM   12  C9  UNL     1      17.416 -17.139  23.921  1.00  0.00    -0.042 A 
HETATM   13  C22 UNL     1      17.328 -16.373  22.761  1.00  0.00     0.103 A 
BRANCH  12  14
HETATM   14  C8  UNL     1      18.644 -17.107  24.725  1.00  0.00     0.044 C 
BRANCH  14  15
HETATM   15  C7  UNL     1      18.691 -16.204  25.877  1.00  0.00     0.043 C 
BRANCH  15  16
HETATM   16  C6  UNL     1      19.548 -15.034  25.848  1.00  0.00    -0.057 A 
HETATM   17  C5  UNL     1      19.894 -14.265  26.919  1.00  0.00     0.007 A 
HETATM   18  C4  UNL     1      20.748 -13.205  26.758  1.00  0.00     0.001 A 
HETATM   19  C3  UNL     1      21.284 -12.870  25.549  1.00  0.00     0.007 A 
HETATM   20  C2  UNL     1      20.956 -13.625  24.445  1.00  0.00    -0.061 A 
HETATM   21  C1  UNL     1      21.521 -13.315  23.100  1.00  0.00     0.048 C 
HETATM   22  C23 UNL     1      20.102 -14.685  24.610  1.00  0.00     0.013 A 
ENDBRANCH  15  16
ENDBRANCH  14  15
ENDBRANCH  12  14
ENDBRANCH   1   8
BRANCH   7  23
HETATM   23  C21 UNL     1      18.013 -13.005  22.110  1.00  0.00     0.177 C 
BRANCH  23  24
HETATM   24  O3  UNL     1      18.760 -13.413  21.041  1.00  0.00    -0.400 OA
ATOM     25  H3  UNL     1      18.373 -14.174  20.622  1.00  0.00     0.209 HD
ENDBRANCH  23  24
ENDBRANCH   7  23
BRANCH   5  26
HETATM   26  C16 UNL     1      15.288 -11.343  18.908  1.00  0.00     0.114 C 
HETATM   27  N3  UNL     1      16.066 -11.488  17.910  1.00  0.00    -0.320 N 
ATOM     28  H3  UNL     1      16.665 -12.313  17.877  1.00  0.00     0.185 HD
BRANCH  27  29
HETATM   29  N4  UNL     1      16.138 -10.565  16.854  1.00  0.00    -0.346 N 
ATOM     30  H42 UNL     1      16.411  -9.609  17.082  1.00  0.00     0.176 HD
ATOM     31  H41 UNL     1      15.931 -10.810  15.885  1.00  0.00     0.176 HD
ENDBRANCH  27  29
ENDBRANCH   5  26
BRANCH   5  32
HETATM   32  C17 UNL     1      13.952 -13.011  20.115  1.00  0.00     0.147 C 
BRANCH  32  33
HETATM   33  S1  UNL     1      12.809 -12.224  21.161  1.00  0.00     0.013 S 
HETATM   34  C18 UNL     1      12.813 -10.483  21.178  1.00  0.00     0.127 C 
HETATM   35  O1  UNL     1      12.977 -12.801  22.730  1.00  0.00    -0.258 OA
ENDBRANCH  32  33
ENDBRANCH   5  32
BRANCH   6  36
HETATM   36  O2  UNL     1      17.072 -11.147  20.825  1.00  0.00    -0.392 OA
ATOM     37  H2  UNL     1      17.517 -10.879  21.620  1.00  0.00     0.210 HD
ENDBRANCH   6  36
TORSDOF 11
ENDMDL
MODEL 5
REMARK VINA RESULT: -8.308112629      4.606      8.034
REMARK  11 active torsions:
REMARK  status: ('A' for Active; 'I' for Inactive)
REMARK    1  A    between atoms: C6_6  and  C7_7 
REMARK    2  A    between atoms: C7_7  and  C8_8 
REMARK    3  A    between atoms: C8_8  and  C9_9 
REMARK    4  A    between atoms: N1_13  and  C13_14 
REMARK    5  A    between atoms: C15_18  and  C16_19 
REMARK    6  A    between atoms: C15_18  and  C17_25 
REMARK    7  A    between atoms: N3_20  and  N4_22 
REMARK    8  A    between atoms: C17_25  and  S1_26 
REMARK    9  A    between atoms: C19_29  and  O2_30 
REMARK   10  A    between atoms: C20_32  and  C21_33 
REMARK   11  A    between atoms: C21_33  and  O3_34 
ROOT
HETATM    1  C13 UNL     1      15.440 -14.127  21.323  1.00  0.00     0.121 C 
HETATM    2  C14 UNL     1      15.373 -15.427  21.447  1.00  0.00     0.031 C 
HETATM    3  N2  UNL     1      14.186 -16.109  21.954  1.00  0.00    -0.374 N 
ATOM      4  H2  UNL     1      13.603 -15.910  22.766  1.00  0.00     0.160 HD
HETATM    5  C15 UNL     1      14.082 -17.183  20.929  1.00  0.00     0.101 C 
HETATM    6  C19 UNL     1      15.468 -17.719  20.923  1.00  0.00     0.164 C 
HETATM    7  C20 UNL     1      16.359 -16.491  21.150  1.00  0.00     0.092 C 
ENDROOT
BRANCH   1   8
HETATM    8  N1  UNL     1      16.515 -13.352  20.850  1.00  0.00    -0.341 N 
HETATM    9  C12 UNL     1      16.384 -12.539  19.762  1.00  0.00     0.096 A 
HETATM   10  C11 UNL     1      17.448 -11.813  19.279  1.00  0.00     0.018 A 
HETATM   11  C10 UNL     1      18.663 -11.927  19.930  1.00  0.00     0.010 A 
HETATM   12  C9  UNL     1      18.832 -12.730  21.021  1.00  0.00    -0.042 A 
HETATM   13  C22 UNL     1      17.726 -13.447  21.474  1.00  0.00     0.103 A 
BRANCH  12  14
HETATM   14  C8  UNL     1      20.131 -12.896  21.686  1.00  0.00     0.044 C 
BRANCH  14  15
HETATM   15  C7  UNL     1      20.314 -14.054  22.563  1.00  0.00     0.043 C 
BRANCH  15  16
HETATM   16  C6  UNL     1      20.362 -13.876  24.002  1.00  0.00    -0.057 A 
HETATM   17  C5  UNL     1      20.959 -12.844  24.663  1.00  0.00     0.007 A 
HETATM   18  C4  UNL     1      20.897 -12.775  26.031  1.00  0.00     0.001 A 
HETATM   19  C3  UNL     1      20.252 -13.712  26.785  1.00  0.00     0.007 A 
HETATM   20  C2  UNL     1      19.638 -14.769  26.149  1.00  0.00    -0.061 A 
HETATM   21  C1  UNL     1      18.907 -15.815  26.921  1.00  0.00     0.048 C 
HETATM   22  C23 UNL     1      19.703 -14.834  24.782  1.00  0.00     0.013 A 
ENDBRANCH  15  16
ENDBRANCH  14  15
ENDBRANCH  12  14
ENDBRANCH   1   8
BRANCH   7  23
HETATM   23  C21 UNL     1      17.273 -16.774  22.338  1.00  0.00     0.177 C 
BRANCH  23  24
HETATM   24  O3  UNL     1      16.707 -16.353  23.508  1.00  0.00    -0.400 OA
ATOM     25  H3  UNL     1      16.710 -15.404  23.569  1.00  0.00     0.209 HD
ENDBRANCH  23  24
ENDBRANCH   7  23
BRANCH   5  26
HETATM   26  C16 UNL     1      13.082 -18.186  21.400  1.00  0.00     0.114 C 
HETATM   27  N3  UNL     1      12.838 -19.193  20.659  1.00  0.00    -0.320 N 
ATOM     28  H3  UNL     1      13.334 -19.276  19.772  1.00  0.00     0.185 HD
BRANCH  27  29
HETATM   29  N4  UNL     1      11.917 -20.195  21.007  1.00  0.00    -0.346 N 
ATOM     30  H42 UNL     1      10.926 -19.957  20.964  1.00  0.00     0.176 HD
ATOM     31  H41 UNL     1      12.196 -21.133  21.295  1.00  0.00     0.176 HD
ENDBRANCH  27  29
ENDBRANCH   5  26
BRANCH   5  32
HETATM   32  C17 UNL     1      13.612 -16.504  19.693  1.00  0.00     0.147 C 
BRANCH  32  33
HETATM   33  S1  UNL     1      12.079 -15.690  19.758  1.00  0.00     0.013 S 
HETATM   34  C18 UNL     1      10.881 -16.154  18.582  1.00  0.00     0.127 C 
HETATM   35  O1  UNL     1      12.310 -14.027  19.695  1.00  0.00    -0.258 OA
ENDBRANCH  32  33
ENDBRANCH   5  32
BRANCH   6  36
HETATM   36  O2  UNL     1      15.597 -18.537  22.067  1.00  0.00    -0.392 OA
ATOM     37  H2  UNL     1      16.523 -18.571  22.279  1.00  0.00     0.210 HD
ENDBRANCH   6  36
TORSDOF 11
ENDMDL
