MODEL 1
REMARK VINA RESULT: -5.889859481      0.000      0.000
REMARK  12 active torsions:
REMARK  status: ('A' for Active; 'I' for Inactive)
REMARK    1  A    between atoms: C3_3  and  C4_4 
REMARK    2  A    between atoms: C4_4  and  C5_5 
REMARK       I    between atoms: C5_5  and  N1_7 
REMARK    3  A    between atoms: N1_7  and  C6_9 
REMARK    4  A    between atoms: C7_10  and  N2_11 
REMARK       I    between atoms: N2_11  and  C8_13 
REMARK       I    between atoms: N4_15  and  C9_17 
REMARK    5  A    between atoms: C11_20  and  O3_21 
REMARK    6  A    between atoms: C12_23  and  C13_24 
REMARK    7  A    between atoms: C13_24  and  O4_25 
REMARK    8  A    between atoms: N5_27  and  C14_28 
REMARK    9  A    between atoms: N5_27  and  C18_32 
REMARK   10  A    between atoms: C14_28  and  C15_29 
REMARK   11  A    between atoms: C18_32  and  C19_33 
REMARK   12  A    between atoms: C19_33  and  N6_34 
ROOT
HETATM    1  C1  UNL     1      11.508  -9.789  23.880  1.00  0.00     0.012 C 
HETATM    2  C2  UNL     1      11.951 -10.371  22.908  1.00  0.00    -0.117 C 
HETATM    3  C3  UNL     1      12.506 -11.076  21.742  1.00  0.00     0.102 C 
ENDROOT
BRANCH   3   4
HETATM    4  C4  UNL     1      12.619 -12.534  22.114  1.00  0.00     0.115 C 
BRANCH   4   5
HETATM    5  C5  UNL     1      13.263 -13.328  21.040  1.00  0.00     0.220 C 
HETATM    6  O1  UNL     1      13.202 -12.950  19.831  1.00  0.00    -0.274 OA
HETATM    7  N1  UNL     1      13.965 -14.530  21.321  1.00  0.00    -0.331 N 
ATOM      8  H1  UNL     1      14.018 -14.841  22.291  1.00  0.00     0.164 HD
BRANCH   7   9
HETATM    9  C6  UNL     1      14.603 -15.331  20.322  1.00  0.00     0.318 C 
HETATM   10  C7  UNL     1      16.092 -15.204  20.256  1.00  0.00     0.165 C 
HETATM   11  C11 UNL     1      16.591 -16.626  20.245  1.00  0.00     0.178 C 
HETATM   12  C12 UNL     1      15.487 -17.378  20.950  1.00  0.00     0.248 C 
HETATM   13  N5  UNL     1      14.290 -16.746  20.463  1.00  0.00    -0.024 N 
BRANCH  10  14
HETATM   14  N2  UNL     1      16.648 -14.390  21.290  1.00  0.00    -0.353 N 
HETATM   15  C8  UNL     1      17.214 -13.103  21.087  1.00  0.00     0.191 C 
HETATM   16  N3  UNL     1      16.643 -12.287  20.073  1.00  0.00    -0.063 NA
HETATM   17  N4  UNL     1      18.208 -12.662  21.783  1.00  0.00    -0.302 N 
HETATM   18  C9  UNL     1      18.856 -13.359  22.807  1.00  0.00     0.220 C 
ATOM     19  H4  UNL     1      18.549 -11.724  21.568  1.00  0.00     0.171 HD
HETATM   20  C10 UNL     1      20.295 -13.724  22.745  1.00  0.00     0.117 C 
HETATM   21  O2  UNL     1      18.224 -13.714  23.848  1.00  0.00    -0.274 OA
ATOM     22  H2  UNL     1      16.637 -14.759  22.242  1.00  0.00     0.162 HD
ENDBRANCH  10  14
BRANCH  11  23
HETATM   23  O3  UNL     1      17.819 -16.780  20.832  1.00  0.00    -0.391 OA
ATOM     24  H3  UNL     1      18.123 -17.680  20.844  1.00  0.00     0.210 HD
ENDBRANCH  11  23
BRANCH  12  25
HETATM   25  C13 UNL     1      15.659 -17.396  22.427  1.00  0.00     0.200 C 
BRANCH  25  26
HETATM   26  O4  UNL     1      16.342 -18.591  22.749  1.00  0.00    -0.399 OA
ATOM     27  H4  UNL     1      16.628 -18.513  23.652  1.00  0.00     0.209 HD
ENDBRANCH  25  26
ENDBRANCH  12  25
BRANCH  13  28
HETATM   28  C14 UNL     1      13.183 -16.952  21.377  1.00  0.00     0.334 C 
BRANCH  28  29
HETATM   29  C15 UNL     1      12.830 -18.378  21.361  1.00  0.00    -0.079 C 
HETATM   30  C16 UNL     1      12.557 -19.567  21.347  1.00  0.00    -0.109 C 
HETATM   31  C17 UNL     1      12.253 -21.001  21.333  1.00  0.00     0.112 C 
ENDBRANCH  28  29
ENDBRANCH  13  28
BRANCH  13  32
HETATM   32  C18 UNL     1      14.001 -17.270  19.169  1.00  0.00     0.269 C 
BRANCH  32  33
HETATM   33  C19 UNL     1      13.294 -16.362  18.229  1.00  0.00     0.264 C 
BRANCH  33  34
HETATM   34  N6  UNL     1      12.038 -16.926  17.781  1.00  0.00    -0.077 N 
HETATM   35  C20 UNL     1      11.985 -18.369  17.996  1.00  0.00     0.271 C 
HETATM   36  C21 UNL     1      10.896 -16.363  18.461  1.00  0.00     0.271 C 
HETATM   37  C22 UNL     1      11.842 -16.719  16.355  1.00  0.00     0.271 C 
ENDBRANCH  33  34
ENDBRANCH  32  33
ENDBRANCH  13  32
ENDBRANCH   7   9
ENDBRANCH   4   5
ENDBRANCH   3   4
TORSDOF 12
ENDMDL
MODEL 2
REMARK VINA RESULT: -5.882479576      3.396      5.363
REMARK  12 active torsions:
REMARK  status: ('A' for Active; 'I' for Inactive)
REMARK    1  A    between atoms: C3_3  and  C4_4 
REMARK    2  A    between atoms: C4_4  and  C5_5 
REMARK       I    between atoms: C5_5  and  N1_7 
REMARK    3  A    between atoms: N1_7  and  C6_9 
REMARK    4  A    between atoms: C7_10  and  N2_11 
REMARK       I    between atoms: N2_11  and  C8_13 
REMARK       I    between atoms: N4_15  and  C9_17 
REMARK    5  A    between atoms: C11_20  and  O3_21 
REMARK    6  A    between atoms: C12_23  and  C13_24 
REMARK    7  A    between atoms: C13_24  and  O4_25 
REMARK    8  A    between atoms: N5_27  and  C14_28 
REMARK    9  A    between atoms: N5_27  and  C18_32 
REMARK   10  A    between atoms: C14_28  and  C15_29 
REMARK   11  A    between atoms: C18_32  and  C19_33 
REMARK   12  A    between atoms: C19_33  and  N6_34 
ROOT
HETATM    1  C1  UNL     1      15.031 -12.142  21.407  1.00  0.00     0.012 C 
HETATM    2  C2  UNL     1      16.036 -11.810  20.807  1.00  0.00    -0.117 C 
HETATM    3  C3  UNL     1      17.252 -11.392  20.092  1.00  0.00     0.102 C 
ENDROOT
BRANCH   3   4
HETATM    4  C4  UNL     1      18.414 -11.595  21.033  1.00  0.00     0.115 C 
BRANCH   4   5
HETATM    5  C5  UNL     1      18.972 -12.965  20.928  1.00  0.00     0.220 C 
HETATM    6  O1  UNL     1      19.720 -13.286  19.957  1.00  0.00    -0.274 OA
HETATM    7  N1  UNL     1      18.693 -13.960  21.904  1.00  0.00    -0.331 N 
ATOM      8  H1  UNL     1      18.091 -13.709  22.688  1.00  0.00     0.164 HD
BRANCH   7   9
HETATM    9  C6  UNL     1      19.207 -15.293  21.849  1.00  0.00     0.318 C 
HETATM   10  C7  UNL     1      20.493 -15.513  22.582  1.00  0.00     0.165 C 
HETATM   11  C11 UNL     1      20.244 -16.744  23.416  1.00  0.00     0.178 C 
HETATM   12  C12 UNL     1      18.746 -16.724  23.611  1.00  0.00     0.248 C 
HETATM   13  N5  UNL     1      18.250 -16.276  22.338  1.00  0.00    -0.024 N 
BRANCH  10  14
HETATM   14  N2  UNL     1      20.935 -14.375  23.323  1.00  0.00    -0.353 N 
HETATM   15  C8  UNL     1      22.148 -14.315  24.060  1.00  0.00     0.191 C 
HETATM   16  N3  UNL     1      23.264 -15.033  23.548  1.00  0.00    -0.063 NA
HETATM   17  N4  UNL     1      22.266 -13.641  25.154  1.00  0.00    -0.302 N 
HETATM   18  C9  UNL     1      21.252 -12.893  25.761  1.00  0.00     0.220 C 
ATOM     19  H4  UNL     1      23.176 -13.655  25.616  1.00  0.00     0.171 HD
HETATM   20  C10 UNL     1      20.736 -13.194  27.121  1.00  0.00     0.117 C 
HETATM   21  O2  UNL     1      20.724 -11.910  25.158  1.00  0.00    -0.274 OA
ATOM     22  H2  UNL     1      20.339 -13.548  23.324  1.00  0.00     0.162 HD
ENDBRANCH  10  14
BRANCH  11  23
HETATM   23  O3  UNL     1      20.949 -16.760  24.590  1.00  0.00    -0.391 OA
ATOM     24  H3  UNL     1      20.621 -16.146  25.237  1.00  0.00     0.210 HD
ENDBRANCH  11  23
BRANCH  12  25
HETATM   25  C13 UNL     1      18.333 -15.919  24.791  1.00  0.00     0.200 C 
BRANCH  25  26
HETATM   26  O4  UNL     1      18.282 -16.800  25.896  1.00  0.00    -0.399 OA
ATOM     27  H4  UNL     1      18.459 -16.281  26.672  1.00  0.00     0.209 HD
ENDBRANCH  25  26
ENDBRANCH  12  25
BRANCH  13  28
HETATM   28  C14 UNL     1      16.925 -15.702  22.468  1.00  0.00     0.334 C 
BRANCH  28  29
HETATM   29  C15 UNL     1      16.318 -15.634  21.132  1.00  0.00    -0.079 C 
HETATM   30  C16 UNL     1      15.802 -15.560  20.029  1.00  0.00    -0.109 C 
HETATM   31  C17 UNL     1      15.170 -15.452  18.711  1.00  0.00     0.112 C 
ENDBRANCH  28  29
ENDBRANCH  13  28
BRANCH  13  32
HETATM   32  C18 UNL     1      18.252 -17.385  21.441  1.00  0.00     0.269 C 
BRANCH  32  33
HETATM   33  C19 UNL     1      17.716 -18.666  21.971  1.00  0.00     0.264 C 
BRANCH  33  34
HETATM   34  N6  UNL     1      16.977 -19.396  20.963  1.00  0.00    -0.077 N 
HETATM   35  C20 UNL     1      15.535 -19.255  21.141  1.00  0.00     0.271 C 
HETATM   36  C21 UNL     1      17.274 -18.955  19.621  1.00  0.00     0.271 C 
HETATM   37  C22 UNL     1      17.259 -20.822  21.026  1.00  0.00     0.271 C 
ENDBRANCH  33  34
ENDBRANCH  32  33
ENDBRANCH  13  32
ENDBRANCH   7   9
ENDBRANCH   4   5
ENDBRANCH   3   4
TORSDOF 12
ENDMDL
MODEL 3
REMARK VINA RESULT: -5.818987383      4.084      5.462
REMARK  12 active torsions:
REMARK  status: ('A' for Active; 'I' for Inactive)
REMARK    1  A    between atoms: C3_3  and  C4_4 
REMARK    2  A    between atoms: C4_4  and  C5_5 
REMARK       I    between atoms: C5_5  and  N1_7 
REMARK    3  A    between atoms: N1_7  and  C6_9 
REMARK    4  A    between atoms: C7_10  and  N2_11 
REMARK       I    between atoms: N2_11  and  C8_13 
REMARK       I    between atoms: N4_15  and  C9_17 
REMARK    5  A    between atoms: C11_20  and  O3_21 
REMARK    6  A    between atoms: C12_23  and  C13_24 
REMARK    7  A    between atoms: C13_24  and  O4_25 
REMARK    8  A    between atoms: N5_27  and  C14_28 
REMARK    9  A    between atoms: N5_27  and  C18_32 
REMARK   10  A    between atoms: C14_28  and  C15_29 
REMARK   11  A    between atoms: C18_32  and  C19_33 
REMARK   12  A    between atoms: C19_33  and  N6_34 
ROOT
HETATM    1  C1  UNL     1      16.069 -11.760  18.784  1.00  0.00     0.012 C 
HETATM    2  C2  UNL     1      17.158 -11.783  19.327  1.00  0.00    -0.117 C 
HETATM    3  C3  UNL     1      18.468 -11.796  19.997  1.00  0.00     0.102 C 
ENDROOT
BRANCH   3   4
HETATM    4  C4  UNL     1      18.276 -12.459  21.338  1.00  0.00     0.115 C 
BRANCH   4   5
HETATM    5  C5  UNL     1      18.944 -13.781  21.399  1.00  0.00     0.220 C 
HETATM    6  O1  UNL     1      19.942 -14.037  20.661  1.00  0.00    -0.274 OA
HETATM    7  N1  UNL     1      18.496 -14.803  22.280  1.00  0.00    -0.331 N 
ATOM      8  H1  UNL     1      17.693 -14.605  22.877  1.00  0.00     0.164 HD
BRANCH   7   9
HETATM    9  C6  UNL     1      19.106 -16.093  22.377  1.00  0.00     0.318 C 
HETATM   10  C7  UNL     1      20.445 -16.119  23.044  1.00  0.00     0.165 C 
HETATM   11  C11 UNL     1      20.339 -17.230  24.056  1.00  0.00     0.178 C 
HETATM   12  C12 UNL     1      18.858 -17.283  24.349  1.00  0.00     0.248 C 
HETATM   13  N5  UNL     1      18.256 -17.057  23.062  1.00  0.00    -0.024 N 
BRANCH  10  14
HETATM   14  N2  UNL     1      20.842 -14.858  23.587  1.00  0.00    -0.353 N 
HETATM   15  C8  UNL     1      22.099 -14.605  24.198  1.00  0.00     0.191 C 
HETATM   16  N3  UNL     1      23.230 -15.299  23.688  1.00  0.00    -0.063 NA
HETATM   17  N4  UNL     1      22.242 -13.779  25.181  1.00  0.00    -0.302 N 
HETATM   18  C9  UNL     1      21.216 -13.034  25.771  1.00  0.00     0.220 C 
ATOM     19  H4  UNL     1      23.183 -13.659  25.557  1.00  0.00     0.171 HD
HETATM   20  C10 UNL     1      20.837 -13.183  27.200  1.00  0.00     0.117 C 
HETATM   21  O2  UNL     1      20.559 -12.187  25.094  1.00  0.00    -0.274 OA
ATOM     22  H2  UNL     1      20.177 -14.087  23.533  1.00  0.00     0.162 HD
ENDBRANCH  10  14
BRANCH  11  23
HETATM   23  O3  UNL     1      21.110 -17.030  25.171  1.00  0.00    -0.391 OA
ATOM     24  H3  UNL     1      21.310 -17.831  25.642  1.00  0.00     0.210 HD
ENDBRANCH  11  23
BRANCH  12  25
HETATM   25  C13 UNL     1      18.454 -16.345  25.430  1.00  0.00     0.200 C 
BRANCH  25  26
HETATM   26  O4  UNL     1      18.566 -17.049  26.651  1.00  0.00    -0.399 OA
ATOM     27  H4  UNL     1      17.938 -16.665  27.252  1.00  0.00     0.209 HD
ENDBRANCH  25  26
ENDBRANCH  12  25
BRANCH  13  28
HETATM   28  C14 UNL     1      16.901 -16.560  23.201  1.00  0.00     0.334 C 
BRANCH  28  29
HETATM   29  C15 UNL     1      16.046 -17.668  23.650  1.00  0.00    -0.079 C 
HETATM   30  C16 UNL     1      15.322 -18.573  24.028  1.00  0.00    -0.109 C 
HETATM   31  C17 UNL     1      14.433 -19.645  24.486  1.00  0.00     0.112 C 
ENDBRANCH  28  29
ENDBRANCH  13  28
BRANCH  13  32
HETATM   32  C18 UNL     1      18.290 -18.280  22.331  1.00  0.00     0.269 C 
BRANCH  32  33
HETATM   33  C19 UNL     1      18.496 -18.170  20.863  1.00  0.00     0.264 C 
BRANCH  33  34
HETATM   34  N6  UNL     1      17.421 -18.795  20.122  1.00  0.00    -0.077 N 
HETATM   35  C20 UNL     1      17.874 -19.291  18.826  1.00  0.00     0.271 C 
HETATM   36  C21 UNL     1      16.840 -19.919  20.817  1.00  0.00     0.271 C 
HETATM   37  C22 UNL     1      16.348 -17.852  19.846  1.00  0.00     0.271 C 
ENDBRANCH  33  34
ENDBRANCH  32  33
ENDBRANCH  13  32
ENDBRANCH   7   9
ENDBRANCH   4   5
ENDBRANCH   3   4
TORSDOF 12
ENDMDL
MODEL 4
REMARK VINA RESULT: -5.815760847      4.610      5.944
REMARK  12 active torsions:
REMARK  status: ('A' for Active; 'I' for Inactive)
REMARK    1  A    between atoms: C3_3  and  C4_4 
REMARK    2  A    between atoms: C4_4  and  C5_5 
REMARK       I    between atoms: C5_5  and  N1_7 
REMARK    3  A    between atoms: N1_7  and  C6_9 
REMARK    4  A    between atoms: C7_10  and  N2_11 
REMARK       I    between atoms: N2_11  and  C8_13 
REMARK       I    between atoms: N4_15  and  C9_17 
REMARK    5  A    between atoms: C11_20  and  O3_21 
REMARK    6  A    between atoms: C12_23  and  C13_24 
REMARK    7  A    between atoms: C13_24  and  O4_25 
REMARK    8  A    between atoms: N5_27  and  C14_28 
REMARK    9  A    between atoms: N5_27  and  C18_32 
REMARK   10  A    between atoms: C14_28  and  C15_29 
REMARK   11  A    between atoms: C18_32  and  C19_33 
REMARK   12  A    between atoms: C19_33  and  N6_34 
ROOT
HETATM    1  C1  UNL     1      15.977 -11.734  18.866  1.00  0.00     0.012 C 
HETATM    2  C2  UNL     1      17.097 -11.830  19.332  1.00  0.00    -0.117 C 
HETATM    3  C3  UNL     1      18.446 -11.931  19.909  1.00  0.00     0.102 C 
ENDROOT
BRANCH   3   4
HETATM    4  C4  UNL     1      18.300 -12.536  21.283  1.00  0.00     0.115 C 
BRANCH   4   5
HETATM    5  C5  UNL     1      18.979 -13.851  21.380  1.00  0.00     0.220 C 
HETATM    6  O1  UNL     1      19.993 -14.110  20.665  1.00  0.00    -0.274 OA
HETATM    7  N1  UNL     1      18.523 -14.861  22.270  1.00  0.00    -0.331 N 
ATOM      8  H1  UNL     1      17.708 -14.661  22.848  1.00  0.00     0.164 HD
BRANCH   7   9
HETATM    9  C6  UNL     1      19.143 -16.144  22.400  1.00  0.00     0.318 C 
HETATM   10  C7  UNL     1      20.476 -16.143  23.080  1.00  0.00     0.165 C 
HETATM   11  C11 UNL     1      20.370 -17.233  24.116  1.00  0.00     0.178 C 
HETATM   12  C12 UNL     1      18.887 -17.292  24.396  1.00  0.00     0.248 C 
HETATM   13  N5  UNL     1      18.296 -17.099  23.099  1.00  0.00    -0.024 N 
BRANCH  10  14
HETATM   14  N2  UNL     1      20.858 -14.868  23.599  1.00  0.00    -0.353 N 
HETATM   15  C8  UNL     1      22.115 -14.584  24.196  1.00  0.00     0.191 C 
HETATM   16  N3  UNL     1      23.253 -15.269  23.688  1.00  0.00    -0.063 NA
HETATM   17  N4  UNL     1      22.253 -13.739  25.163  1.00  0.00    -0.302 N 
HETATM   18  C9  UNL     1      21.220 -13.002  25.749  1.00  0.00     0.220 C 
ATOM     19  H4  UNL     1      23.194 -13.599  25.530  1.00  0.00     0.171 HD
HETATM   20  C10 UNL     1      20.854 -13.132  27.183  1.00  0.00     0.117 C 
HETATM   21  O2  UNL     1      20.544 -12.177  25.063  1.00  0.00    -0.274 OA
ATOM     22  H2  UNL     1      20.180 -14.108  23.537  1.00  0.00     0.162 HD
ENDBRANCH  10  14
BRANCH  11  23
HETATM   23  O3  UNL     1      21.129 -17.002  25.233  1.00  0.00    -0.391 OA
ATOM     24  H3  UNL     1      21.607 -17.767  25.531  1.00  0.00     0.210 HD
ENDBRANCH  11  23
BRANCH  12  25
HETATM   25  C13 UNL     1      18.466 -16.334  25.452  1.00  0.00     0.200 C 
BRANCH  25  26
HETATM   26  O4  UNL     1      18.541 -17.020  26.686  1.00  0.00    -0.399 OA
ATOM     27  H4  UNL     1      17.648 -17.181  26.969  1.00  0.00     0.209 HD
ENDBRANCH  25  26
ENDBRANCH  12  25
BRANCH  13  28
HETATM   28  C14 UNL     1      16.935 -16.611  23.215  1.00  0.00     0.334 C 
BRANCH  28  29
HETATM   29  C15 UNL     1      16.091 -17.708  23.710  1.00  0.00    -0.079 C 
HETATM   30  C16 UNL     1      15.375 -18.604  24.124  1.00  0.00    -0.109 C 
HETATM   31  C17 UNL     1      14.495 -19.665  24.622  1.00  0.00     0.112 C 
ENDBRANCH  28  29
ENDBRANCH  13  28
BRANCH  13  32
HETATM   32  C18 UNL     1      18.347 -18.338  22.396  1.00  0.00     0.269 C 
BRANCH  32  33
HETATM   33  C19 UNL     1      18.569 -18.259  20.928  1.00  0.00     0.264 C 
BRANCH  33  34
HETATM   34  N6  UNL     1      19.491 -19.276  20.469  1.00  0.00    -0.077 N 
HETATM   35  C20 UNL     1      19.166 -19.732  19.121  1.00  0.00     0.271 C 
HETATM   36  C21 UNL     1      20.860 -18.817  20.434  1.00  0.00     0.271 C 
HETATM   37  C22 UNL     1      19.448 -20.455  21.320  1.00  0.00     0.271 C 
ENDBRANCH  33  34
ENDBRANCH  32  33
ENDBRANCH  13  32
ENDBRANCH   7   9
ENDBRANCH   4   5
ENDBRANCH   3   4
TORSDOF 12
ENDMDL
MODEL 5
REMARK VINA RESULT: -5.796355205      2.704      7.027
REMARK  12 active torsions:
REMARK  status: ('A' for Active; 'I' for Inactive)
REMARK    1  A    between atoms: C3_3  and  C4_4 
REMARK    2  A    between atoms: C4_4  and  C5_5 
REMARK       I    between atoms: C5_5  and  N1_7 
REMARK    3  A    between atoms: N1_7  and  C6_9 
REMARK    4  A    between atoms: C7_10  and  N2_11 
REMARK       I    between atoms: N2_11  and  C8_13 
REMARK       I    between atoms: N4_15  and  C9_17 
REMARK    5  A    between atoms: C11_20  and  O3_21 
REMARK    6  A    between atoms: C12_23  and  C13_24 
REMARK    7  A    between atoms: C13_24  and  O4_25 
REMARK    8  A    between atoms: N5_27  and  C14_28 
REMARK    9  A    between atoms: N5_27  and  C18_32 
REMARK   10  A    between atoms: C14_28  and  C15_29 
REMARK   11  A    between atoms: C18_32  and  C19_33 
REMARK   12  A    between atoms: C19_33  and  N6_34 
ROOT
HETATM    1  C1  UNL     1      20.094 -12.157  19.916  1.00  0.00     0.012 C 
HETATM    2  C2  UNL     1      18.943 -11.807  20.096  1.00  0.00    -0.117 C 
HETATM    3  C3  UNL     1      17.548 -11.383  20.294  1.00  0.00     0.102 C 
ENDROOT
BRANCH   3   4
HETATM    4  C4  UNL     1      16.670 -12.555  19.932  1.00  0.00     0.115 C 
BRANCH   4   5
HETATM    5  C5  UNL     1      16.378 -13.408  21.110  1.00  0.00     0.220 C 
HETATM    6  O1  UNL     1      15.926 -12.901  22.180  1.00  0.00    -0.274 OA
HETATM    7  N1  UNL     1      16.593 -14.813  21.085  1.00  0.00    -0.331 N 
ATOM      8  H1  UNL     1      16.957 -15.228  20.228  1.00  0.00     0.164 HD
BRANCH   7   9
HETATM    9  C6  UNL     1      16.327 -15.677  22.193  1.00  0.00     0.318 C 
HETATM   10  C7  UNL     1      15.066 -16.476  22.092  1.00  0.00     0.165 C 
HETATM   11  C11 UNL     1      15.487 -17.886  22.417  1.00  0.00     0.178 C 
HETATM   12  C12 UNL     1      16.945 -17.903  22.025  1.00  0.00     0.248 C 
HETATM   13  N5  UNL     1      17.417 -16.610  22.441  1.00  0.00    -0.024 N 
BRANCH  10  14
HETATM   14  N2  UNL     1      14.391 -16.333  20.841  1.00  0.00    -0.353 N 
HETATM   15  C8  UNL     1      13.155 -15.657  20.665  1.00  0.00     0.191 C 
HETATM   16  N3  UNL     1      12.897 -14.530  21.493  1.00  0.00    -0.063 NA
HETATM   17  N4  UNL     1      12.278 -16.025  19.791  1.00  0.00    -0.302 N 
HETATM   18  C9  UNL     1      12.408 -17.108  18.917  1.00  0.00     0.220 C 
ATOM     19  H4  UNL     1      11.417 -15.479  19.734  1.00  0.00     0.171 HD
HETATM   20  C10 UNL     1      11.481 -18.269  18.933  1.00  0.00     0.117 C 
HETATM   21  O2  UNL     1      13.342 -17.139  18.060  1.00  0.00    -0.274 OA
ATOM     22  H2  UNL     1      14.828 -16.745  20.016  1.00  0.00     0.162 HD
ENDBRANCH  10  14
BRANCH  11  23
HETATM   23  O3  UNL     1      14.738 -18.841  21.781  1.00  0.00    -0.391 OA
ATOM     24  H3  UNL     1      14.856 -19.714  22.137  1.00  0.00     0.210 HD
ENDBRANCH  11  23
BRANCH  12  25
HETATM   25  C13 UNL     1      17.149 -18.240  20.591  1.00  0.00     0.200 C 
BRANCH  25  26
HETATM   26  O4  UNL     1      17.267 -19.647  20.509  1.00  0.00    -0.399 OA
ATOM     27  H4  UNL     1      17.141 -19.884  19.598  1.00  0.00     0.209 HD
ENDBRANCH  25  26
ENDBRANCH  12  25
BRANCH  13  28
HETATM   28  C14 UNL     1      18.612 -16.232  21.710  1.00  0.00     0.334 C 
BRANCH  28  29
HETATM   29  C15 UNL     1      19.273 -15.141  22.439  1.00  0.00    -0.079 C 
HETATM   30  C16 UNL     1      19.813 -14.241  23.062  1.00  0.00    -0.109 C 
HETATM   31  C17 UNL     1      20.451 -13.170  23.832  1.00  0.00     0.112 C 
ENDBRANCH  28  29
ENDBRANCH  13  28
BRANCH  13  32
HETATM   32  C18 UNL     1      17.658 -16.652  23.846  1.00  0.00     0.269 C 
BRANCH  32  33
HETATM   33  C19 UNL     1      18.478 -17.786  24.344  1.00  0.00     0.264 C 
BRANCH  33  34
HETATM   34  N6  UNL     1      19.240 -17.422  25.520  1.00  0.00    -0.077 N 
HETATM   35  C20 UNL     1      20.656 -17.248  25.216  1.00  0.00     0.271 C 
HETATM   36  C21 UNL     1      18.790 -16.188  26.119  1.00  0.00     0.271 C 
HETATM   37  C22 UNL     1      19.165 -18.455  26.542  1.00  0.00     0.271 C 
ENDBRANCH  33  34
ENDBRANCH  32  33
ENDBRANCH  13  32
ENDBRANCH   7   9
ENDBRANCH   4   5
ENDBRANCH   3   4
TORSDOF 12
ENDMDL
