MODEL 1
REMARK VINA RESULT: -6.912620497      0.000      0.000
REMARK  8 active torsions:
REMARK  status: ('A' for Active; 'I' for Inactive)
REMARK       I    between atoms: C2_4  and  N2_5 
REMARK       I    between atoms: C2_4  and  N6_21 
REMARK    1  A    between atoms: N2_5  and  C3_7 
REMARK    2  A    between atoms: C3_7  and  O1_8 
REMARK    3  A    between atoms: C3_7  and  C4_10 
REMARK    4  A    between atoms: C4_10  and  N3_12 
REMARK    5  A    between atoms: N3_12  and  C6_14 
REMARK    6  A    between atoms: C6_14  and  N4_16 
REMARK    7  A    between atoms: N4_16  and  N5_18 
REMARK    8  A    between atoms: N6_21  and  N7_23 
ROOT
HETATM    1  C3  UNL     1      61.665  16.732  29.814  1.00  0.00     0.153 C 
ENDROOT
BRANCH   1   2
HETATM    2  N2  UNL     1      61.598  16.455  31.152  1.00  0.00    -0.171 N 
HETATM    3  C2  UNL     1      62.771  16.668  31.984  1.00  0.00     0.698 C 
HETATM    4  N1  UNL     1      62.582  16.506  33.264  1.00  0.00    -0.229 N 
HETATM    5  N6  UNL     1      64.003  17.028  31.485  1.00  0.00    -0.072 N 
HETATM    6  C1  UNL     1      61.348  16.139  33.883  1.00  0.00     0.165 C 
ATOM      7  H1  UNL     1      63.384  16.655  33.876  1.00  0.00     0.177 HD
ATOM      8  H6  UNL     1      64.219  17.990  31.224  1.00  0.00     0.212 HD
ATOM      9  H2  UNL     1      60.733  16.103  31.561  1.00  0.00     0.186 HD
BRANCH   5  10
HETATM   10  N7  UNL     1      64.967  15.970  31.354  1.00  0.00    -0.024 N 
HETATM   11  O2  UNL     1      64.577  14.819  31.039  1.00  0.00    -0.516 OA
HETATM   12  O3  UNL     1      66.276  16.245  31.592  1.00  0.00    -0.516 OA
ENDBRANCH   5  10
ENDBRANCH   1   2
BRANCH   1  13
HETATM   13  O1  UNL     1      62.423  15.917  29.124  1.00  0.00    -0.347 OA
ATOM     14  H1  UNL     1      62.538  16.158  28.213  1.00  0.00     0.219 HD
ENDBRANCH   1  13
BRANCH   1  15
HETATM   15  C4  UNL     1      60.997  17.807  29.113  1.00  0.00     0.155 C 
HETATM   16  C5  UNL     1      59.433  17.592  29.568  1.00  0.00     0.041 C 
BRANCH  15  17
HETATM   17  N3  UNL     1      60.861  17.871  27.717  1.00  0.00    -0.354 N 
ATOM     18  H3  UNL     1      61.498  18.586  27.365  1.00  0.00     0.162 HD
BRANCH  17  19
HETATM   19  C6  UNL     1      60.185  17.324  26.637  1.00  0.00     0.186 C 
HETATM   20  S1  UNL     1      59.306  18.436  25.687  1.00  0.00    -0.040 SA
BRANCH  19  21
HETATM   21  N4  UNL     1      60.102  16.016  26.171  1.00  0.00    -0.283 N 
ATOM     22  H4  UNL     1      59.608  15.844  25.295  1.00  0.00     0.188 HD
BRANCH  21  23
HETATM   23  N5  UNL     1      60.678  14.895  26.861  1.00  0.00    -0.343 N 
ATOM     24  H52 UNL     1      60.126  14.039  26.907  1.00  0.00     0.176 HD
ATOM     25  H51 UNL     1      61.599  14.921  27.298  1.00  0.00     0.176 HD
ENDBRANCH  21  23
ENDBRANCH  19  21
ENDBRANCH  17  19
ENDBRANCH  15  17
ENDBRANCH   1  15
TORSDOF 8
ENDMDL
MODEL 2
REMARK VINA RESULT: -6.854206895      2.190      2.828
REMARK  8 active torsions:
REMARK  status: ('A' for Active; 'I' for Inactive)
REMARK       I    between atoms: C2_4  and  N2_5 
REMARK       I    between atoms: C2_4  and  N6_21 
REMARK    1  A    between atoms: N2_5  and  C3_7 
REMARK    2  A    between atoms: C3_7  and  O1_8 
REMARK    3  A    between atoms: C3_7  and  C4_10 
REMARK    4  A    between atoms: C4_10  and  N3_12 
REMARK    5  A    between atoms: N3_12  and  C6_14 
REMARK    6  A    between atoms: C6_14  and  N4_16 
REMARK    7  A    between atoms: N4_16  and  N5_18 
REMARK    8  A    between atoms: N6_21  and  N7_23 
ROOT
HETATM    1  C3  UNL     1      61.893  17.016  29.148  1.00  0.00     0.153 C 
ENDROOT
BRANCH   1   2
HETATM    2  N2  UNL     1      62.975  16.774  29.949  1.00  0.00    -0.171 N 
HETATM    3  C2  UNL     1      62.856  15.819  31.040  1.00  0.00     0.698 C 
HETATM    4  N1  UNL     1      63.967  15.551  31.668  1.00  0.00    -0.229 N 
HETATM    5  N6  UNL     1      61.671  15.215  31.397  1.00  0.00    -0.072 N 
HETATM    6  C1  UNL     1      65.245  16.117  31.375  1.00  0.00     0.165 C 
ATOM      7  H1  UNL     1      63.918  14.879  32.434  1.00  0.00     0.177 HD
ATOM      8  H6  UNL     1      61.293  14.421  30.881  1.00  0.00     0.212 HD
ATOM      9  H2  UNL     1      63.856  17.258  29.783  1.00  0.00     0.186 HD
BRANCH   5  10
HETATM   10  N7  UNL     1      60.997  15.769  32.539  1.00  0.00    -0.024 N 
HETATM   11  O2  UNL     1      61.155  16.984  32.817  1.00  0.00    -0.516 OA
HETATM   12  O3  UNL     1      60.218  14.955  33.298  1.00  0.00    -0.516 OA
ENDBRANCH   5  10
ENDBRANCH   1   2
BRANCH   1  13
HETATM   13  O1  UNL     1      61.710  16.137  28.195  1.00  0.00    -0.347 OA
ATOM     14  H1  UNL     1      61.350  16.492  27.391  1.00  0.00     0.219 HD
ENDBRANCH   1  13
BRANCH   1  15
HETATM   15  C4  UNL     1      60.961  18.118  29.252  1.00  0.00     0.155 C 
HETATM   16  C5  UNL     1      59.568  17.350  29.663  1.00  0.00     0.041 C 
BRANCH  15  17
HETATM   17  N3  UNL     1      60.529  18.888  28.161  1.00  0.00    -0.354 N 
ATOM     18  H3  UNL     1      60.686  19.872  28.382  1.00  0.00     0.162 HD
BRANCH  17  19
HETATM   19  C6  UNL     1      59.968  18.811  26.896  1.00  0.00     0.186 C 
HETATM   20  S1  UNL     1      59.049  20.169  26.421  1.00  0.00    -0.040 SA
BRANCH  19  21
HETATM   21  N4  UNL     1      60.030  17.821  25.922  1.00  0.00    -0.283 N 
ATOM     22  H4  UNL     1      60.454  18.051  25.023  1.00  0.00     0.188 HD
BRANCH  21  23
HETATM   23  N5  UNL     1      59.527  16.489  26.119  1.00  0.00    -0.343 N 
ATOM     24  H52 UNL     1      58.974  16.317  26.958  1.00  0.00     0.176 HD
ATOM     25  H51 UNL     1      59.699  15.724  25.466  1.00  0.00     0.176 HD
ENDBRANCH  21  23
ENDBRANCH  19  21
ENDBRANCH  17  19
ENDBRANCH  15  17
ENDBRANCH   1  15
TORSDOF 8
ENDMDL
MODEL 3
REMARK VINA RESULT: -6.807860408      2.583      3.432
REMARK  8 active torsions:
REMARK  status: ('A' for Active; 'I' for Inactive)
REMARK       I    between atoms: C2_4  and  N2_5 
REMARK       I    between atoms: C2_4  and  N6_21 
REMARK    1  A    between atoms: N2_5  and  C3_7 
REMARK    2  A    between atoms: C3_7  and  O1_8 
REMARK    3  A    between atoms: C3_7  and  C4_10 
REMARK    4  A    between atoms: C4_10  and  N3_12 
REMARK    5  A    between atoms: N3_12  and  C6_14 
REMARK    6  A    between atoms: C6_14  and  N4_16 
REMARK    7  A    between atoms: N4_16  and  N5_18 
REMARK    8  A    between atoms: N6_21  and  N7_23 
ROOT
HETATM    1  C3  UNL     1      60.427  16.767  29.287  1.00  0.00     0.153 C 
ENDROOT
BRANCH   1   2
HETATM    2  N2  UNL     1      61.697  16.695  29.791  1.00  0.00    -0.171 N 
HETATM    3  C2  UNL     1      61.993  15.738  30.846  1.00  0.00     0.698 C 
HETATM    4  N1  UNL     1      63.252  15.643  31.173  1.00  0.00    -0.229 N 
HETATM    5  N6  UNL     1      61.035  14.965  31.463  1.00  0.00    -0.072 N 
HETATM    6  C1  UNL     1      64.321  16.393  30.594  1.00  0.00     0.165 C 
ATOM      7  H1  UNL     1      63.493  14.976  31.906  1.00  0.00     0.177 HD
ATOM      8  H6  UNL     1      60.662  14.121  31.030  1.00  0.00     0.212 HD
ATOM      9  H2  UNL     1      62.429  17.305  29.429  1.00  0.00     0.186 HD
BRANCH   5  10
HETATM   10  N7  UNL     1      60.591  15.418  32.753  1.00  0.00    -0.024 N 
HETATM   11  O2  UNL     1      60.751  16.622  33.071  1.00  0.00    -0.516 OA
HETATM   12  O3  UNL     1      60.022  14.521  33.600  1.00  0.00    -0.516 OA
ENDBRANCH   5  10
ENDBRANCH   1   2
BRANCH   1  13
HETATM   13  O1  UNL     1      59.510  17.096  30.162  1.00  0.00    -0.347 OA
ATOM     14  H1  UNL     1      58.743  17.519  29.793  1.00  0.00     0.219 HD
ENDBRANCH   1  13
BRANCH   1  15
HETATM   15  C4  UNL     1      60.017  16.522  27.922  1.00  0.00     0.155 C 
HETATM   16  C5  UNL     1      61.037  15.315  27.471  1.00  0.00     0.041 C 
BRANCH  15  17
HETATM   17  N3  UNL     1      60.200  17.433  26.869  1.00  0.00    -0.354 N 
ATOM     18  H3  UNL     1      61.076  17.204  26.398  1.00  0.00     0.162 HD
BRANCH  17  19
HETATM   19  C6  UNL     1      59.636  18.527  26.232  1.00  0.00     0.186 C 
HETATM   20  S1  UNL     1      59.800  20.015  27.053  1.00  0.00    -0.040 SA
BRANCH  19  21
HETATM   21  N4  UNL     1      58.962  18.638  25.021  1.00  0.00    -0.283 N 
ATOM     22  H4  UNL     1      59.280  19.341  24.353  1.00  0.00     0.188 HD
BRANCH  21  23
HETATM   23  N5  UNL     1      57.841  17.813  24.663  1.00  0.00    -0.343 N 
ATOM     24  H52 UNL     1      56.932  18.268  24.583  1.00  0.00     0.176 HD
ATOM     25  H51 UNL     1      57.917  16.811  24.490  1.00  0.00     0.176 HD
ENDBRANCH  21  23
ENDBRANCH  19  21
ENDBRANCH  17  19
ENDBRANCH  15  17
ENDBRANCH   1  15
TORSDOF 8
ENDMDL
MODEL 4
REMARK VINA RESULT: -6.795151048      1.344      1.668
REMARK  8 active torsions:
REMARK  status: ('A' for Active; 'I' for Inactive)
REMARK       I    between atoms: C2_4  and  N2_5 
REMARK       I    between atoms: C2_4  and  N6_21 
REMARK    1  A    between atoms: N2_5  and  C3_7 
REMARK    2  A    between atoms: C3_7  and  O1_8 
REMARK    3  A    between atoms: C3_7  and  C4_10 
REMARK    4  A    between atoms: C4_10  and  N3_12 
REMARK    5  A    between atoms: N3_12  and  C6_14 
REMARK    6  A    between atoms: C6_14  and  N4_16 
REMARK    7  A    between atoms: N4_16  and  N5_18 
REMARK    8  A    between atoms: N6_21  and  N7_23 
ROOT
HETATM    1  C3  UNL     1      61.162  17.259  29.918  1.00  0.00     0.153 C 
ENDROOT
BRANCH   1   2
HETATM    2  N2  UNL     1      61.169  16.796  31.205  1.00  0.00    -0.171 N 
HETATM    3  C2  UNL     1      62.418  16.778  31.950  1.00  0.00     0.698 C 
HETATM    4  N1  UNL     1      62.312  16.448  33.207  1.00  0.00    -0.229 N 
HETATM    5  N6  UNL     1      63.639  17.096  31.397  1.00  0.00    -0.072 N 
HETATM    6  C1  UNL     1      61.097  16.105  33.877  1.00  0.00     0.165 C 
ATOM      7  H1  UNL     1      63.169  16.432  33.759  1.00  0.00     0.177 HD
ATOM      8  H6  UNL     1      63.931  18.062  31.254  1.00  0.00     0.212 HD
ATOM      9  H2  UNL     1      60.307  16.467  31.638  1.00  0.00     0.186 HD
BRANCH   5  10
HETATM   10  N7  UNL     1      64.477  15.987  31.034  1.00  0.00    -0.024 N 
HETATM   11  O2  UNL     1      63.950  14.880  30.762  1.00  0.00    -0.516 OA
HETATM   12  O3  UNL     1      65.824  16.166  31.011  1.00  0.00    -0.516 OA
ENDBRANCH   5  10
ENDBRANCH   1   2
BRANCH   1  13
HETATM   13  O1  UNL     1      61.875  18.339  29.721  1.00  0.00    -0.347 OA
ATOM     14  H1  UNL     1      61.385  19.086  29.398  1.00  0.00     0.219 HD
ENDBRANCH   1  13
BRANCH   1  15
HETATM   15  C4  UNL     1      60.460  16.685  28.791  1.00  0.00     0.155 C 
HETATM   16  C5  UNL     1      61.248  15.257  28.589  1.00  0.00     0.041 C 
BRANCH  15  17
HETATM   17  N3  UNL     1      60.510  17.203  27.486  1.00  0.00    -0.354 N 
ATOM     18  H3  UNL     1      61.472  17.136  27.152  1.00  0.00     0.162 HD
BRANCH  17  19
HETATM   19  C6  UNL     1      59.740  17.771  26.483  1.00  0.00     0.186 C 
HETATM   20  S1  UNL     1      59.619  19.473  26.533  1.00  0.00    -0.040 SA
BRANCH  19  21
HETATM   21  N4  UNL     1      59.050  17.201  25.419  1.00  0.00    -0.283 N 
ATOM     22  H4  UNL     1      59.276  16.242  25.154  1.00  0.00     0.188 HD
BRANCH  21  23
HETATM   23  N5  UNL     1      58.035  17.894  24.676  1.00  0.00    -0.343 N 
ATOM     24  H52 UNL     1      58.337  18.659  24.072  1.00  0.00     0.176 HD
ATOM     25  H51 UNL     1      57.044  17.658  24.727  1.00  0.00     0.176 HD
ENDBRANCH  21  23
ENDBRANCH  19  21
ENDBRANCH  17  19
ENDBRANCH  15  17
ENDBRANCH   1  15
TORSDOF 8
ENDMDL
MODEL 5
REMARK VINA RESULT: -6.747313728      2.706      3.492
REMARK  8 active torsions:
REMARK  status: ('A' for Active; 'I' for Inactive)
REMARK       I    between atoms: C2_4  and  N2_5 
REMARK       I    between atoms: C2_4  and  N6_21 
REMARK    1  A    between atoms: N2_5  and  C3_7 
REMARK    2  A    between atoms: C3_7  and  O1_8 
REMARK    3  A    between atoms: C3_7  and  C4_10 
REMARK    4  A    between atoms: C4_10  and  N3_12 
REMARK    5  A    between atoms: N3_12  and  C6_14 
REMARK    6  A    between atoms: C6_14  and  N4_16 
REMARK    7  A    between atoms: N4_16  and  N5_18 
REMARK    8  A    between atoms: N6_21  and  N7_23 
ROOT
HETATM    1  C3  UNL     1      61.343  15.995  28.211  1.00  0.00     0.153 C 
ENDROOT
BRANCH   1   2
HETATM    2  N2  UNL     1      62.255  16.219  29.205  1.00  0.00    -0.171 N 
HETATM    3  C2  UNL     1      62.172  15.450  30.437  1.00  0.00     0.698 C 
HETATM    4  N1  UNL     1      63.155  15.632  31.274  1.00  0.00    -0.229 N 
HETATM    5  N6  UNL     1      61.147  14.575  30.720  1.00  0.00    -0.072 N 
HETATM    6  C1  UNL     1      64.264  16.510  31.076  1.00  0.00     0.165 C 
ATOM      7  H1  UNL     1      63.130  15.102  32.145  1.00  0.00     0.177 HD
ATOM      8  H6  UNL     1      61.117  13.635  30.326  1.00  0.00     0.212 HD
ATOM      9  H2  UNL     1      62.987  16.919  29.084  1.00  0.00     0.186 HD
BRANCH   5  10
HETATM   10  N7  UNL     1      60.124  15.063  31.602  1.00  0.00    -0.024 N 
HETATM   11  O2  UNL     1      60.343  15.102  32.838  1.00  0.00    -0.516 OA
HETATM   12  O3  UNL     1      58.936  15.455  31.071  1.00  0.00    -0.516 OA
ENDBRANCH   5  10
ENDBRANCH   1   2
BRANCH   1  13
HETATM   13  O1  UNL     1      61.532  14.891  27.534  1.00  0.00    -0.347 OA
ATOM     14  H1  UNL     1      61.425  14.093  28.038  1.00  0.00     0.219 HD
ENDBRANCH   1  13
BRANCH   1  15
HETATM   15  C4  UNL     1      60.226  16.840  27.849  1.00  0.00     0.155 C 
HETATM   16  C5  UNL     1      59.158  15.750  27.239  1.00  0.00     0.041 C 
BRANCH  15  17
HETATM   17  N3  UNL     1      60.259  17.788  26.814  1.00  0.00    -0.354 N 
ATOM     18  H3  UNL     1      61.093  17.618  26.251  1.00  0.00     0.162 HD
BRANCH  17  19
HETATM   19  C6  UNL     1      59.580  18.868  26.271  1.00  0.00     0.186 C 
HETATM   20  S1  UNL     1      59.801  20.352  27.086  1.00  0.00    -0.040 SA
BRANCH  19  21
HETATM   21  N4  UNL     1      58.752  18.969  25.158  1.00  0.00    -0.283 N 
ATOM     22  H4  UNL     1      58.669  19.875  24.697  1.00  0.00     0.188 HD
BRANCH  21  23
HETATM   23  N5  UNL     1      58.009  17.860  24.625  1.00  0.00    -0.343 N 
ATOM     24  H52 UNL     1      58.511  17.204  24.028  1.00  0.00     0.176 HD
ATOM     25  H51 UNL     1      57.019  17.706  24.817  1.00  0.00     0.176 HD
ENDBRANCH  21  23
ENDBRANCH  19  21
ENDBRANCH  17  19
ENDBRANCH  15  17
ENDBRANCH   1  15
TORSDOF 8
ENDMDL
