MODEL 1
REMARK VINA RESULT: -7.124214055      0.000      0.000
REMARK  7 active torsions:
REMARK  status: ('A' for Active; 'I' for Inactive)
REMARK    1  A    between atoms: O1_2  and  C2_3 
REMARK       I    between atoms: C2_3  and  N1_5 
REMARK    2  A    between atoms: N1_5  and  C3_7 
REMARK    3  A    between atoms: C3_7  and  C4_8 
REMARK    4  A    between atoms: C4_8  and  O3_9 
REMARK    5  A    between atoms: C4_8  and  C5_11 
REMARK    6  A    between atoms: C8_15  and  O4_16 
REMARK    7  A    between atoms: C12_21  and  O5_22 
ROOT
HETATM    1  C5  UNL     1      15.305  16.066  19.685  1.00  0.00     0.047 A 
HETATM    2  S1  UNL     1      14.554  16.307  21.195  1.00  0.00    -0.090 SA
HETATM    3  C6  UNL     1      15.794  17.156  21.988  1.00  0.00     0.021 A 
HETATM    4  C7  UNL     1      16.783  17.233  21.041  1.00  0.00    -0.008 A 
HETATM    5  C8  UNL     1      16.523  16.664  19.845  1.00  0.00     0.088 A 
HETATM    6  C9  UNL     1      18.028  17.968  21.541  1.00  0.00     0.043 C 
HETATM    7  C10 UNL     1      18.398  17.276  22.822  1.00  0.00     0.007 C 
HETATM    8  C11 UNL     1      17.368  17.499  23.879  1.00  0.00     0.037 C 
HETATM    9  C12 UNL     1      15.979  17.761  23.364  1.00  0.00     0.158 C 
ENDROOT
BRANCH   1  10
HETATM   10  C4  UNL     1      14.778  15.368  18.450  1.00  0.00     0.178 C 
BRANCH  10  11
HETATM   11  C3  UNL     1      13.372  14.943  18.782  1.00  0.00     0.162 C 
BRANCH  11  12
HETATM   12  N1  UNL     1      12.494  15.321  17.702  1.00  0.00    -0.334 N 
HETATM   13  C2  UNL     1      12.002  16.644  17.546  1.00  0.00     0.360 C 
HETATM   14  O2  UNL     1      12.329  17.537  18.365  1.00  0.00    -0.239 OA
ATOM     15  H1  UNL     1      12.215  14.611  17.025  1.00  0.00     0.164 HD
BRANCH  13  16
HETATM   16  O1  UNL     1      11.162  16.989  16.505  1.00  0.00    -0.309 OA
HETATM   17  C1  UNL     1      11.458  16.521  15.211  1.00  0.00     0.215 C 
ENDBRANCH  13  16
ENDBRANCH  11  12
ENDBRANCH  10  11
BRANCH  10  18
HETATM   18  O3  UNL     1      15.518  14.216  18.195  1.00  0.00    -0.389 OA
ATOM     19  H3  UNL     1      16.283  14.235  18.758  1.00  0.00     0.210 HD
ENDBRANCH  10  18
ENDBRANCH   1  10
BRANCH   5  20
HETATM   20  O4  UNL     1      17.464  16.675  18.779  1.00  0.00    -0.359 OA
ATOM     21  H4  UNL     1      17.933  15.883  18.545  1.00  0.00     0.217 HD
ENDBRANCH   5  20
BRANCH   9  22
HETATM   22  O5  UNL     1      15.055  17.114  24.182  1.00  0.00    -0.390 OA
ATOM     23  H5  UNL     1      15.155  16.188  23.995  1.00  0.00     0.210 HD
ENDBRANCH   9  22
TORSDOF 7
ENDMDL
MODEL 2
REMARK VINA RESULT: -7.094044330      3.012      4.832
REMARK  7 active torsions:
REMARK  status: ('A' for Active; 'I' for Inactive)
REMARK    1  A    between atoms: O1_2  and  C2_3 
REMARK       I    between atoms: C2_3  and  N1_5 
REMARK    2  A    between atoms: N1_5  and  C3_7 
REMARK    3  A    between atoms: C3_7  and  C4_8 
REMARK    4  A    between atoms: C4_8  and  O3_9 
REMARK    5  A    between atoms: C4_8  and  C5_11 
REMARK    6  A    between atoms: C8_15  and  O4_16 
REMARK    7  A    between atoms: C12_21  and  O5_22 
ROOT
HETATM    1  C5  UNL     1      14.588  16.880  18.431  1.00  0.00     0.047 A 
HETATM    2  S1  UNL     1      15.124  17.726  17.054  1.00  0.00    -0.090 SA
HETATM    3  C6  UNL     1      16.766  17.896  17.455  1.00  0.00     0.021 A 
HETATM    4  C7  UNL     1      16.861  17.279  18.675  1.00  0.00    -0.008 A 
HETATM    5  C8  UNL     1      15.725  16.752  19.179  1.00  0.00     0.088 A 
HETATM    6  C9  UNL     1      18.278  17.311  19.249  1.00  0.00     0.043 C 
HETATM    7  C10 UNL     1      18.678  18.759  19.213  1.00  0.00     0.007 C 
HETATM    8  C11 UNL     1      18.818  19.250  17.810  1.00  0.00     0.037 C 
HETATM    9  C12 UNL     1      17.979  18.520  16.797  1.00  0.00     0.158 C 
ENDROOT
BRANCH   1  10
HETATM   10  C4  UNL     1      13.201  16.377  18.772  1.00  0.00     0.178 C 
BRANCH  10  11
HETATM   11  C3  UNL     1      12.614  17.391  19.717  1.00  0.00     0.162 C 
BRANCH  11  12
HETATM   12  N1  UNL     1      12.767  16.920  21.073  1.00  0.00    -0.334 N 
HETATM   13  C2  UNL     1      11.956  17.391  22.140  1.00  0.00     0.360 C 
HETATM   14  O2  UNL     1      11.067  18.248  21.922  1.00  0.00    -0.239 OA
ATOM     15  H1  UNL     1      13.484  16.223  21.272  1.00  0.00     0.164 HD
BRANCH  13  16
HETATM   16  O1  UNL     1      12.116  16.928  23.432  1.00  0.00    -0.309 OA
HETATM   17  C1  UNL     1      13.354  16.372  23.805  1.00  0.00     0.215 C 
ENDBRANCH  13  16
ENDBRANCH  11  12
ENDBRANCH  10  11
BRANCH  10  18
HETATM   18  O3  UNL     1      13.281  15.164  19.450  1.00  0.00    -0.389 OA
ATOM     19  H3  UNL     1      12.776  14.526  18.960  1.00  0.00     0.210 HD
ENDBRANCH  10  18
ENDBRANCH   1  10
BRANCH   5  20
HETATM   20  O4  UNL     1      15.687  16.086  20.435  1.00  0.00    -0.359 OA
ATOM     21  H4  UNL     1      16.379  15.483  20.678  1.00  0.00     0.217 HD
ENDBRANCH   5  20
BRANCH   9  22
HETATM   22  O5  UNL     1      17.474  19.434  15.874  1.00  0.00    -0.390 OA
ATOM     23  H5  UNL     1      16.672  19.767  16.261  1.00  0.00     0.210 HD
ENDBRANCH   9  22
TORSDOF 7
ENDMDL
MODEL 3
REMARK VINA RESULT: -6.933115141      3.000      5.354
REMARK  7 active torsions:
REMARK  status: ('A' for Active; 'I' for Inactive)
REMARK    1  A    between atoms: O1_2  and  C2_3 
REMARK       I    between atoms: C2_3  and  N1_5 
REMARK    2  A    between atoms: N1_5  and  C3_7 
REMARK    3  A    between atoms: C3_7  and  C4_8 
REMARK    4  A    between atoms: C4_8  and  O3_9 
REMARK    5  A    between atoms: C4_8  and  C5_11 
REMARK    6  A    between atoms: C8_15  and  O4_16 
REMARK    7  A    between atoms: C12_21  and  O5_22 
ROOT
HETATM    1  C5  UNL     1      16.916  17.348  22.311  1.00  0.00     0.047 A 
HETATM    2  S1  UNL     1      15.680  16.987  21.196  1.00  0.00    -0.090 SA
HETATM    3  C6  UNL     1      16.562  17.126  19.750  1.00  0.00     0.021 A 
HETATM    4  C7  UNL     1      17.823  17.456  20.177  1.00  0.00    -0.008 A 
HETATM    5  C8  UNL     1      18.002  17.571  21.510  1.00  0.00     0.088 A 
HETATM    6  C9  UNL     1      18.811  17.641  19.025  1.00  0.00     0.043 C 
HETATM    7  C10 UNL     1      18.151  18.625  18.102  1.00  0.00     0.007 C 
HETATM    8  C11 UNL     1      16.928  18.046  17.473  1.00  0.00     0.037 C 
HETATM    9  C12 UNL     1      16.251  16.970  18.277  1.00  0.00     0.158 C 
ENDROOT
BRANCH   1  10
HETATM   10  C4  UNL     1      16.860  17.412  23.822  1.00  0.00     0.178 C 
BRANCH  10  11
HETATM   11  C3  UNL     1      15.694  16.550  24.229  1.00  0.00     0.162 C 
BRANCH  11  12
HETATM   12  N1  UNL     1      14.465  17.257  23.966  1.00  0.00    -0.334 N 
HETATM   13  C2  UNL     1      13.198  16.615  23.973  1.00  0.00     0.360 C 
HETATM   14  O2  UNL     1      13.117  15.387  24.215  1.00  0.00    -0.239 OA
ATOM     15  H1  UNL     1      14.507  18.257  23.766  1.00  0.00     0.164 HD
BRANCH  13  16
HETATM   16  O1  UNL     1      12.031  17.309  23.718  1.00  0.00    -0.309 OA
HETATM   17  C1  UNL     1      11.667  17.559  22.382  1.00  0.00     0.215 C 
ENDBRANCH  13  16
ENDBRANCH  11  12
ENDBRANCH  10  11
BRANCH  10  18
HETATM   18  O3  UNL     1      16.588  18.712  24.240  1.00  0.00    -0.389 OA
ATOM     19  H3  UNL     1      17.244  19.281  23.854  1.00  0.00     0.210 HD
ENDBRANCH  10  18
ENDBRANCH   1  10
BRANCH   5  20
HETATM   20  O4  UNL     1      19.259  17.909  22.082  1.00  0.00    -0.359 OA
ATOM     21  H4  UNL     1      19.994  18.134  21.525  1.00  0.00     0.217 HD
ENDBRANCH   5  20
BRANCH   9  22
HETATM   22  O5  UNL     1      14.869  17.117  18.171  1.00  0.00    -0.390 OA
ATOM     23  H5  UNL     1      14.519  16.233  18.185  1.00  0.00     0.210 HD
ENDBRANCH   9  22
TORSDOF 7
ENDMDL
MODEL 4
REMARK VINA RESULT: -6.732874707      1.098      1.185
REMARK  7 active torsions:
REMARK  status: ('A' for Active; 'I' for Inactive)
REMARK    1  A    between atoms: O1_2  and  C2_3 
REMARK       I    between atoms: C2_3  and  N1_5 
REMARK    2  A    between atoms: N1_5  and  C3_7 
REMARK    3  A    between atoms: C3_7  and  C4_8 
REMARK    4  A    between atoms: C4_8  and  O3_9 
REMARK    5  A    between atoms: C4_8  and  C5_11 
REMARK    6  A    between atoms: C8_15  and  O4_16 
REMARK    7  A    between atoms: C12_21  and  O5_22 
ROOT
HETATM    1  C5  UNL     1      15.582  16.193  19.492  1.00  0.00     0.047 A 
HETATM    2  S1  UNL     1      14.749  16.405  20.962  1.00  0.00    -0.090 SA
HETATM    3  C6  UNL     1      15.963  17.187  21.858  1.00  0.00     0.021 A 
HETATM    4  C7  UNL     1      17.008  17.267  20.975  1.00  0.00    -0.008 A 
HETATM    5  C8  UNL     1      16.806  16.748  19.745  1.00  0.00     0.088 A 
HETATM    6  C9  UNL     1      18.241  17.946  21.573  1.00  0.00     0.043 C 
HETATM    7  C10 UNL     1      18.514  17.200  22.848  1.00  0.00     0.007 C 
HETATM    8  C11 UNL     1      17.428  17.418  23.850  1.00  0.00     0.037 C 
HETATM    9  C12 UNL     1      16.081  17.739  23.263  1.00  0.00     0.158 C 
ENDROOT
BRANCH   1  10
HETATM   10  C4  UNL     1      15.111  15.554  18.203  1.00  0.00     0.178 C 
BRANCH  10  11
HETATM   11  C3  UNL     1      13.647  15.885  18.088  1.00  0.00     0.162 C 
BRANCH  11  12
HETATM   12  N1  UNL     1      13.502  17.204  17.522  1.00  0.00    -0.334 N 
HETATM   13  C2  UNL     1      12.306  17.637  16.891  1.00  0.00     0.360 C 
HETATM   14  O2  UNL     1      11.322  16.862  16.809  1.00  0.00    -0.239 OA
ATOM     15  H1  UNL     1      14.289  17.851  17.578  1.00  0.00     0.164 HD
BRANCH  13  16
HETATM   16  O1  UNL     1      12.185  18.904  16.355  1.00  0.00    -0.309 OA
HETATM   17  C1  UNL     1      12.928  19.230  15.205  1.00  0.00     0.215 C 
ENDBRANCH  13  16
ENDBRANCH  11  12
ENDBRANCH  10  11
BRANCH  10  18
HETATM   18  O3  UNL     1      15.226  14.169  18.282  1.00  0.00    -0.389 OA
ATOM     19  H3  UNL     1      15.570  13.957  19.143  1.00  0.00     0.210 HD
ENDBRANCH  10  18
ENDBRANCH   1  10
BRANCH   5  20
HETATM   20  O4  UNL     1      17.808  16.767  18.737  1.00  0.00    -0.359 OA
ATOM     21  H4  UNL     1      17.666  17.243  17.928  1.00  0.00     0.217 HD
ENDBRANCH   5  20
BRANCH   9  22
HETATM   22  O5  UNL     1      15.092  17.093  24.002  1.00  0.00    -0.390 OA
ATOM     23  H5  UNL     1      14.369  17.708  24.050  1.00  0.00     0.210 HD
ENDBRANCH   9  22
TORSDOF 7
ENDMDL
MODEL 5
REMARK VINA RESULT: -6.721174613      1.509      1.749
REMARK  7 active torsions:
REMARK  status: ('A' for Active; 'I' for Inactive)
REMARK    1  A    between atoms: O1_2  and  C2_3 
REMARK       I    between atoms: C2_3  and  N1_5 
REMARK    2  A    between atoms: N1_5  and  C3_7 
REMARK    3  A    between atoms: C3_7  and  C4_8 
REMARK    4  A    between atoms: C4_8  and  O3_9 
REMARK    5  A    between atoms: C4_8  and  C5_11 
REMARK    6  A    between atoms: C8_15  and  O4_16 
REMARK    7  A    between atoms: C12_21  and  O5_22 
ROOT
HETATM    1  C5  UNL     1      15.039  16.012  19.645  1.00  0.00     0.047 A 
HETATM    2  S1  UNL     1      13.717  15.937  20.716  1.00  0.00    -0.090 SA
HETATM    3  C6  UNL     1      14.414  16.690  22.070  1.00  0.00     0.021 A 
HETATM    4  C7  UNL     1      15.685  16.988  21.649  1.00  0.00    -0.008 A 
HETATM    5  C8  UNL     1      16.005  16.632  20.387  1.00  0.00     0.088 A 
HETATM    6  C9  UNL     1      16.520  17.682  22.726  1.00  0.00     0.043 C 
HETATM    7  C10 UNL     1      16.419  16.790  23.930  1.00  0.00     0.007 C 
HETATM    8  C11 UNL     1      15.030  16.765  24.475  1.00  0.00     0.037 C 
HETATM    9  C12 UNL     1      13.949  17.045  23.467  1.00  0.00     0.158 C 
ENDROOT
BRANCH   1  10
HETATM   10  C4  UNL     1      15.149  15.522  18.217  1.00  0.00     0.178 C 
BRANCH  10  11
HETATM   11  C3  UNL     1      13.770  15.655  17.627  1.00  0.00     0.162 C 
BRANCH  11  12
HETATM   12  N1  UNL     1      13.605  16.988  17.099  1.00  0.00    -0.334 N 
HETATM   13  C2  UNL     1      12.329  17.553  16.837  1.00  0.00     0.360 C 
HETATM   14  O2  UNL     1      11.289  16.889  17.065  1.00  0.00    -0.239 OA
ATOM     15  H1  UNL     1      14.438  17.545  16.907  1.00  0.00     0.164 HD
BRANCH  13  16
HETATM   16  O1  UNL     1      12.191  18.832  16.333  1.00  0.00    -0.309 OA
HETATM   17  C1  UNL     1      13.011  19.231  15.261  1.00  0.00     0.215 C 
ENDBRANCH  13  16
ENDBRANCH  11  12
ENDBRANCH  10  11
BRANCH  10  18
HETATM   18  O3  UNL     1      15.489  14.173  18.194  1.00  0.00    -0.389 OA
ATOM     19  H3  UNL     1      15.222  13.822  17.352  1.00  0.00     0.210 HD
ENDBRANCH  10  18
ENDBRANCH   1  10
BRANCH   5  20
HETATM   20  O4  UNL     1      17.289  16.883  19.829  1.00  0.00    -0.359 OA
ATOM     21  H4  UNL     1      17.628  17.769  19.784  1.00  0.00     0.217 HD
ENDBRANCH   5  20
BRANCH   9  22
HETATM   22  O5  UNL     1      12.859  16.215  23.718  1.00  0.00    -0.390 OA
ATOM     23  H5  UNL     1      13.211  15.469  24.191  1.00  0.00     0.210 HD
ENDBRANCH   9  22
TORSDOF 7
ENDMDL
