MODEL 1
REMARK VINA RESULT: -7.179796047      0.000      0.000
REMARK  5 active torsions:
REMARK  status: ('A' for Active; 'I' for Inactive)
REMARK    1  A    between atoms: C3_4  and  O1_5 
REMARK    2  A    between atoms: O1_5  and  C4_6 
REMARK    3  A    between atoms: C6_11  and  C7_12 
REMARK    4  A    between atoms: C7_12  and  O2_16 
REMARK    5  A    between atoms: C8_18  and  N3_19 
ROOT
HETATM    1  C4  UNL     1      13.605  15.792  19.196  1.00  0.00     0.188 C 
HETATM    2  C5  UNL     1      13.608  14.268  19.026  1.00  0.00     0.267 C 
HETATM    3  N1  UNL     1      13.614  14.186  17.557  1.00  0.00    -0.059 N 
ATOM      4  H11 UNL     1      13.649  13.246  17.164  1.00  0.00     0.278 HD
ATOM      5  H12 UNL     1      14.469  14.497  17.097  1.00  0.00     0.278 HD
HETATM    6  C6  UNL     1      12.404  14.963  17.257  1.00  0.00     0.292 C 
HETATM    7  C8  UNL     1      12.556  16.166  18.140  1.00  0.00     0.252 C 
ENDROOT
BRANCH   1   8
HETATM    8  O1  UNL     1      14.797  16.349  18.803  1.00  0.00    -0.332 OA
BRANCH   8   9
HETATM    9  C3  UNL     1      15.793  16.894  19.588  1.00  0.00     0.144 A 
HETATM   10  S1  UNL     1      17.316  17.344  18.969  1.00  0.00    -0.067 SA
HETATM   11  C2  UNL     1      18.032  17.920  20.403  1.00  0.00    -0.010 A 
HETATM   12  C1  UNL     1      19.420  18.486  20.577  1.00  0.00     0.057 C 
HETATM   13  C10 UNL     1      17.047  17.743  21.340  1.00  0.00    -0.009 A 
HETATM   14  C9  UNL     1      15.881  17.205  20.899  1.00  0.00     0.116 A 
HETATM   15  C11 UNL     1      17.202  18.112  22.811  1.00  0.00     0.044 C 
HETATM   16  O3  UNL     1      14.845  17.013  21.854  1.00  0.00    -0.347 OA
HETATM   17  C13 UNL     1      15.134  16.713  23.186  1.00  0.00     0.176 C 
HETATM   18  C12 UNL     1      16.468  17.123  23.677  1.00  0.00     0.031 C 
ENDBRANCH   8   9
ENDBRANCH   1   8
BRANCH   7  19
HETATM   19  N3  UNL     1      12.984  17.306  17.375  1.00  0.00    -0.070 N 
ATOM     20  H33 UNL     1      13.130  18.124  17.966  1.00  0.00     0.274 HD
ATOM     21  H32 UNL     1      13.937  17.193  17.030  1.00  0.00     0.274 HD
ATOM     22  H31 UNL     1      12.330  17.501  16.617  1.00  0.00     0.274 HD
ENDBRANCH   7  19
BRANCH   6  23
HETATM   23  C7  UNL     1      12.334  15.294  15.828  1.00  0.00     0.142 C 
HETATM   24  N2  UNL     1      13.285  14.928  15.044  1.00  0.00    -0.382 N 
ATOM     25  H22 UNL     1      14.068  14.412  15.444  1.00  0.00     0.158 HD
ATOM     26  H21 UNL     1      13.236  15.158  14.051  1.00  0.00     0.158 HD
BRANCH  23  27
HETATM   27  O2  UNL     1      11.270  15.995  15.284  1.00  0.00    -0.348 OA
ATOM     28  H2  UNL     1      11.120  16.914  15.473  1.00  0.00     0.219 HD
ENDBRANCH  23  27
ENDBRANCH   6  23
TORSDOF 5
ENDMDL
MODEL 2
REMARK VINA RESULT: -7.147080848      1.738      2.855
REMARK  5 active torsions:
REMARK  status: ('A' for Active; 'I' for Inactive)
REMARK    1  A    between atoms: C3_4  and  O1_5 
REMARK    2  A    between atoms: O1_5  and  C4_6 
REMARK    3  A    between atoms: C6_11  and  C7_12 
REMARK    4  A    between atoms: C7_12  and  O2_16 
REMARK    5  A    between atoms: C8_18  and  N3_19 
ROOT
HETATM    1  C4  UNL     1      13.962  15.592  17.797  1.00  0.00     0.188 C 
HETATM    2  C5  UNL     1      14.839  15.672  16.542  1.00  0.00     0.267 C 
HETATM    3  N1  UNL     1      14.151  16.761  15.831  1.00  0.00    -0.059 N 
ATOM      4  H11 UNL     1      14.565  17.046  14.944  1.00  0.00     0.278 HD
ATOM      5  H12 UNL     1      14.224  17.686  16.254  1.00  0.00     0.278 HD
HETATM    6  C6  UNL     1      12.797  16.195  15.755  1.00  0.00     0.292 C 
HETATM    7  C8  UNL     1      12.575  15.681  17.147  1.00  0.00     0.252 C 
ENDROOT
BRANCH   1   8
HETATM    8  O1  UNL     1      14.112  16.702  18.593  1.00  0.00    -0.332 OA
BRANCH   8   9
HETATM    9  C3  UNL     1      14.897  16.854  19.718  1.00  0.00     0.144 A 
HETATM   10  S1  UNL     1      14.283  16.704  21.301  1.00  0.00    -0.067 SA
HETATM   11  C2  UNL     1      15.715  16.995  22.176  1.00  0.00    -0.010 A 
HETATM   12  C1  UNL     1      15.892  17.013  23.674  1.00  0.00     0.057 C 
HETATM   13  C10 UNL     1      16.648  17.204  21.193  1.00  0.00    -0.009 A 
HETATM   14  C9  UNL     1      16.206  17.127  19.912  1.00  0.00     0.116 A 
HETATM   15  C11 UNL     1      18.115  17.511  21.470  1.00  0.00     0.044 C 
HETATM   16  O3  UNL     1      17.156  17.339  18.876  1.00  0.00    -0.347 OA
HETATM   17  C13 UNL     1      18.232  18.212  19.048  1.00  0.00     0.176 C 
HETATM   18  C12 UNL     1      18.650  18.472  20.443  1.00  0.00     0.031 C 
ENDBRANCH   8   9
ENDBRANCH   1   8
BRANCH   7  19
HETATM   19  N3  UNL     1      11.720  16.572  17.886  1.00  0.00    -0.070 N 
ATOM     20  H33 UNL     1      11.949  16.577  18.879  1.00  0.00     0.274 HD
ATOM     21  H32 UNL     1      11.921  17.549  17.675  1.00  0.00     0.274 HD
ATOM     22  H31 UNL     1      10.737  16.346  17.727  1.00  0.00     0.274 HD
ENDBRANCH   7  19
BRANCH   6  23
HETATM   23  C7  UNL     1      11.824  17.217  15.348  1.00  0.00     0.142 C 
HETATM   24  N2  UNL     1      12.235  18.387  15.009  1.00  0.00    -0.382 N 
ATOM     25  H22 UNL     1      13.238  18.571  15.033  1.00  0.00     0.158 HD
ATOM     26  H21 UNL     1      11.559  19.096  14.727  1.00  0.00     0.158 HD
BRANCH  23  27
HETATM   27  O2  UNL     1      10.462  16.967  15.316  1.00  0.00    -0.348 OA
ATOM     28  H2  UNL     1       9.861  17.502  14.811  1.00  0.00     0.219 HD
ENDBRANCH  23  27
ENDBRANCH   6  23
TORSDOF 5
ENDMDL
MODEL 3
REMARK VINA RESULT: -7.077869274      1.382      1.660
REMARK  5 active torsions:
REMARK  status: ('A' for Active; 'I' for Inactive)
REMARK    1  A    between atoms: C3_4  and  O1_5 
REMARK    2  A    between atoms: O1_5  and  C4_6 
REMARK    3  A    between atoms: C6_11  and  C7_12 
REMARK    4  A    between atoms: C7_12  and  O2_16 
REMARK    5  A    between atoms: C8_18  and  N3_19 
ROOT
HETATM    1  C4  UNL     1      13.753  15.458  18.341  1.00  0.00     0.188 C 
HETATM    2  C5  UNL     1      14.693  15.209  17.155  1.00  0.00     0.267 C 
HETATM    3  N1  UNL     1      14.217  16.258  16.241  1.00  0.00    -0.059 N 
ATOM      4  H11 UNL     1      14.714  16.336  15.354  1.00  0.00     0.278 HD
ATOM      5  H12 UNL     1      14.410  17.219  16.525  1.00  0.00     0.278 HD
HETATM    6  C6  UNL     1      12.798  15.889  16.152  1.00  0.00     0.292 C 
HETATM    7  C8  UNL     1      12.430  15.641  17.585  1.00  0.00     0.252 C 
ENDROOT
BRANCH   1   8
HETATM    8  O1  UNL     1      14.032  16.646  18.970  1.00  0.00    -0.332 OA
BRANCH   8   9
HETATM    9  C3  UNL     1      14.918  16.888  20.000  1.00  0.00     0.144 A 
HETATM   10  S1  UNL     1      16.574  17.195  19.742  1.00  0.00    -0.067 SA
HETATM   11  C2  UNL     1      17.067  17.400  21.360  1.00  0.00    -0.010 A 
HETATM   12  C1  UNL     1      18.455  17.706  21.868  1.00  0.00     0.057 C 
HETATM   13  C10 UNL     1      15.907  17.220  22.067  1.00  0.00    -0.009 A 
HETATM   14  C9  UNL     1      14.790  16.953  21.343  1.00  0.00     0.116 A 
HETATM   15  C11 UNL     1      15.821  17.305  23.587  1.00  0.00     0.044 C 
HETATM   16  O3  UNL     1      13.575  16.764  22.056  1.00  0.00    -0.347 OA
HETATM   17  C13 UNL     1      13.565  16.201  23.333  1.00  0.00     0.176 C 
HETATM   18  C12 UNL     1      14.820  16.309  24.109  1.00  0.00     0.031 C 
ENDBRANCH   8   9
ENDBRANCH   1   8
BRANCH   7  19
HETATM   19  N3  UNL     1      11.686  16.752  18.117  1.00  0.00    -0.070 N 
ATOM     20  H33 UNL     1      11.588  17.502  17.433  1.00  0.00     0.274 HD
ATOM     21  H32 UNL     1      10.700  16.522  18.236  1.00  0.00     0.274 HD
ATOM     22  H31 UNL     1      12.104  17.085  18.986  1.00  0.00     0.274 HD
ENDBRANCH   7  19
BRANCH   6  23
HETATM   23  C7  UNL     1      12.015  16.962  15.526  1.00  0.00     0.142 C 
HETATM   24  N2  UNL     1      12.618  17.990  15.042  1.00  0.00    -0.382 N 
ATOM     25  H22 UNL     1      13.635  18.027  15.108  1.00  0.00     0.158 HD
ATOM     26  H21 UNL     1      12.074  18.735  14.607  1.00  0.00     0.158 HD
BRANCH  23  27
HETATM   27  O2  UNL     1      10.633  16.912  15.436  1.00  0.00    -0.348 OA
ATOM     28  H2  UNL     1      10.124  17.622  15.064  1.00  0.00     0.219 HD
ENDBRANCH  23  27
ENDBRANCH   6  23
TORSDOF 5
ENDMDL
MODEL 4
REMARK VINA RESULT: -7.032716231      1.598      2.161
REMARK  5 active torsions:
REMARK  status: ('A' for Active; 'I' for Inactive)
REMARK    1  A    between atoms: C3_4  and  O1_5 
REMARK    2  A    between atoms: O1_5  and  C4_6 
REMARK    3  A    between atoms: C6_11  and  C7_12 
REMARK    4  A    between atoms: C7_12  and  O2_16 
REMARK    5  A    between atoms: C8_18  and  N3_19 
ROOT
HETATM    1  C4  UNL     1      15.018  16.165  17.778  1.00  0.00     0.188 C 
HETATM    2  C5  UNL     1      15.115  17.536  17.099  1.00  0.00     0.267 C 
HETATM    3  N1  UNL     1      13.683  17.854  16.984  1.00  0.00    -0.059 N 
ATOM      4  H11 UNL     1      13.460  18.763  16.579  1.00  0.00     0.278 HD
ATOM      5  H12 UNL     1      13.195  18.036  17.861  1.00  0.00     0.278 HD
HETATM    6  C6  UNL     1      13.225  16.683  16.226  1.00  0.00     0.292 C 
HETATM    7  C8  UNL     1      13.889  15.545  16.943  1.00  0.00     0.252 C 
ENDROOT
BRANCH   1   8
HETATM    8  O1  UNL     1      14.561  16.268  19.069  1.00  0.00    -0.332 OA
BRANCH   8   9
HETATM    9  C3  UNL     1      15.268  16.592  20.209  1.00  0.00     0.144 A 
HETATM   10  S1  UNL     1      16.947  16.881  20.204  1.00  0.00    -0.067 SA
HETATM   11  C2  UNL     1      17.169  17.216  21.860  1.00  0.00    -0.010 A 
HETATM   12  C1  UNL     1      18.457  17.563  22.565  1.00  0.00     0.057 C 
HETATM   13  C10 UNL     1      15.907  17.091  22.379  1.00  0.00    -0.009 A 
HETATM   14  C9  UNL     1      14.921  16.765  21.503  1.00  0.00     0.116 A 
HETATM   15  C11 UNL     1      15.572  17.296  23.852  1.00  0.00     0.044 C 
HETATM   16  O3  UNL     1      13.603  16.631  22.019  1.00  0.00    -0.347 OA
HETATM   17  C13 UNL     1      13.377  16.171  23.317  1.00  0.00     0.176 C 
HETATM   18  C12 UNL     1      14.488  16.343  24.278  1.00  0.00     0.031 C 
ENDBRANCH   8   9
ENDBRANCH   1   8
BRANCH   7  19
HETATM   19  N3  UNL     1      12.947  14.857  17.785  1.00  0.00    -0.070 N 
ATOM     20  H33 UNL     1      12.159  14.494  17.250  1.00  0.00     0.274 HD
ATOM     21  H32 UNL     1      13.322  13.972  18.126  1.00  0.00     0.274 HD
ATOM     22  H31 UNL     1      12.640  15.457  18.551  1.00  0.00     0.274 HD
ENDBRANCH   7  19
BRANCH   6  23
HETATM   23  C7  UNL     1      11.759  16.597  16.228  1.00  0.00     0.142 C 
HETATM   24  N2  UNL     1      11.138  16.308  15.139  1.00  0.00    -0.382 N 
ATOM     25  H22 UNL     1      11.691  16.145  14.298  1.00  0.00     0.158 HD
ATOM     26  H21 UNL     1      10.120  16.249  15.141  1.00  0.00     0.158 HD
BRANCH  23  27
HETATM   27  O2  UNL     1      11.008  16.818  17.371  1.00  0.00    -0.348 OA
ATOM     28  H2  UNL     1      10.823  17.693  17.693  1.00  0.00     0.219 HD
ENDBRANCH  23  27
ENDBRANCH   6  23
TORSDOF 5
ENDMDL
MODEL 5
REMARK VINA RESULT: -7.030408538      1.836      3.048
REMARK  5 active torsions:
REMARK  status: ('A' for Active; 'I' for Inactive)
REMARK    1  A    between atoms: C3_4  and  O1_5 
REMARK    2  A    between atoms: O1_5  and  C4_6 
REMARK    3  A    between atoms: C6_11  and  C7_12 
REMARK    4  A    between atoms: C7_12  and  O2_16 
REMARK    5  A    between atoms: C8_18  and  N3_19 
ROOT
HETATM    1  C4  UNL     1      15.083  16.144  17.234  1.00  0.00     0.188 C 
HETATM    2  C5  UNL     1      15.073  17.637  16.885  1.00  0.00     0.267 C 
HETATM    3  N1  UNL     1      13.627  17.896  16.957  1.00  0.00    -0.059 N 
ATOM      4  H11 UNL     1      13.338  18.860  16.791  1.00  0.00     0.278 HD
ATOM      5  H12 UNL     1      13.212  17.848  17.888  1.00  0.00     0.278 HD
HETATM    6  C6  UNL     1      13.145  16.904  15.987  1.00  0.00     0.292 C 
HETATM    7  C8  UNL     1      13.908  15.670  16.369  1.00  0.00     0.252 C 
ENDROOT
BRANCH   1   8
HETATM    8  O1  UNL     1      14.737  15.927  18.546  1.00  0.00    -0.332 OA
BRANCH   8   9
HETATM    9  C3  UNL     1      15.365  16.383  19.688  1.00  0.00     0.144 A 
HETATM   10  S1  UNL     1      14.555  16.568  21.176  1.00  0.00    -0.067 SA
HETATM   11  C2  UNL     1      15.853  17.139  22.121  1.00  0.00    -0.010 A 
HETATM   12  C1  UNL     1      15.833  17.514  23.582  1.00  0.00     0.057 C 
HETATM   13  C10 UNL     1      16.898  17.169  21.235  1.00  0.00    -0.009 A 
HETATM   14  C9  UNL     1      16.629  16.771  19.965  1.00  0.00     0.116 A 
HETATM   15  C11 UNL     1      18.307  17.619  21.604  1.00  0.00     0.044 C 
HETATM   16  O3  UNL     1      17.698  16.794  19.029  1.00  0.00    -0.347 OA
HETATM   17  C13 UNL     1      18.716  17.745  19.116  1.00  0.00     0.176 C 
HETATM   18  C12 UNL     1      18.942  18.346  20.448  1.00  0.00     0.031 C 
ENDBRANCH   8   9
ENDBRANCH   1   8
BRANCH   7  19
HETATM   19  N3  UNL     1      13.067  14.760  17.100  1.00  0.00    -0.070 N 
ATOM     20  H33 UNL     1      13.609  14.018  17.541  1.00  0.00     0.274 HD
ATOM     21  H32 UNL     1      12.685  15.193  17.941  1.00  0.00     0.274 HD
ATOM     22  H31 UNL     1      12.331  14.385  16.501  1.00  0.00     0.274 HD
ENDBRANCH   7  19
BRANCH   6  23
HETATM   23  C7  UNL     1      11.689  16.742  16.082  1.00  0.00     0.142 C 
HETATM   24  N2  UNL     1      10.999  16.547  15.015  1.00  0.00    -0.382 N 
ATOM     25  H22 UNL     1      11.493  16.510  14.123  1.00  0.00     0.158 HD
ATOM     26  H21 UNL     1       9.988  16.435  15.081  1.00  0.00     0.158 HD
BRANCH  23  27
HETATM   27  O2  UNL     1      11.018  16.793  17.294  1.00  0.00    -0.348 OA
ATOM     28  H2  UNL     1      11.372  17.247  18.050  1.00  0.00     0.219 HD
ENDBRANCH  23  27
ENDBRANCH   6  23
TORSDOF 5
ENDMDL
