MODEL 1
REMARK VINA RESULT: -9.585707184      0.000      0.000
REMARK  12 active torsions:
REMARK  status: ('A' for Active; 'I' for Inactive)
REMARK    1  A    between atoms: C2_2  and  C3_3 
REMARK    2  A    between atoms: C3_3  and  C4_4 
REMARK    3  A    between atoms: C4_4  and  N1_5 
REMARK    4  A    between atoms: C4_4  and  C27_43 
REMARK       I    between atoms: N1_5  and  C5_7 
REMARK    5  A    between atoms: C5_7  and  C6_9 
REMARK       I    between atoms: N2_14  and  C11_15 
REMARK    6  A    between atoms: C11_15  and  C12_17 
REMARK    7  A    between atoms: C12_17  and  C13_18 
REMARK    8  A    between atoms: C13_18  and  C14_19 
REMARK    9  A    between atoms: C16_23  and  N4_24 
REMARK       I    between atoms: N4_24  and  C17_26 
REMARK       I    between atoms: C17_26  and  N6_31 
REMARK   10  A    between atoms: N5_27  and  C18_29 
REMARK       I    between atoms: N6_31  and  C20_32 
REMARK       I    between atoms: C20_32  and  N7_34 
REMARK       I    between atoms: C27_43  and  N9_45 
REMARK   11  A    between atoms: N9_45  and  C28_47 
REMARK   12  A    between atoms: C28_47  and  C30_49 
ROOT
HETATM    1  C12 UNL     1       8.020  -4.197  14.724  1.00  0.00     0.132 C 
ENDROOT
BRANCH   1   2
HETATM    2  C11 UNL     1       7.660  -4.823  15.999  1.00  0.00     0.224 C 
HETATM    3  N2  UNL     1       8.101  -6.083  16.414  1.00  0.00    -0.338 N 
HETATM    4  C6  UNL     1       7.730  -6.961  17.460  1.00  0.00     0.179 C 
HETATM    5  C10 UNL     1       9.350  -6.563  15.723  1.00  0.00     0.127 C 
HETATM    6  C7  UNL     1       8.638  -6.568  18.641  1.00  0.00     0.035 C 
HETATM    7  C8  UNL     1       9.912  -5.950  18.055  1.00  0.00     0.004 C 
HETATM    8  C9  UNL     1      10.364  -6.746  16.872  1.00  0.00     0.020 C 
HETATM    9  O2  UNL     1       6.874  -4.128  16.735  1.00  0.00    -0.273 OA
BRANCH   4  10
HETATM   10  C5  UNL     1       6.351  -7.131  17.832  1.00  0.00     0.241 C 
HETATM   11  N1  UNL     1       5.396  -7.787  16.979  1.00  0.00    -0.346 N 
ATOM     12  H1  UNL     1       5.719  -8.169  16.090  1.00  0.00     0.163 HD
HETATM   13  O1  UNL     1       5.888  -6.713  18.910  1.00  0.00    -0.271 OA
BRANCH  11  14
HETATM   14  C4  UNL     1       3.981  -7.932  17.328  1.00  0.00     0.180 C 
BRANCH  14  15
HETATM   15  C3  UNL     1       3.465  -9.263  16.914  1.00  0.00     0.061 C 
BRANCH  15  16
HETATM   16  C2  UNL     1       4.287  -9.957  15.913  1.00  0.00    -0.034 C 
HETATM   17  C1  UNL     1       3.900 -10.279  14.694  1.00  0.00     0.007 C 
ENDBRANCH  15  16
ENDBRANCH  14  15
BRANCH  14  18
HETATM   18  C27 UNL     1       3.245  -6.766  16.737  1.00  0.00     0.241 C 
HETATM   19  O4  UNL     1       2.384  -6.991  15.818  1.00  0.00    -0.271 OA
HETATM   20  N9  UNL     1       3.441  -5.430  17.118  1.00  0.00    -0.347 N 
ATOM     21  H9  UNL     1       4.121  -5.207  17.844  1.00  0.00     0.163 HD
BRANCH  20  22
HETATM   22  C28 UNL     1       2.682  -4.359  16.487  1.00  0.00     0.169 C 
HETATM   23  C29 UNL     1       2.226  -3.311  17.457  1.00  0.00     0.042 C 
BRANCH  22  24
HETATM   24  C30 UNL     1       3.564  -3.718  15.485  1.00  0.00     0.253 C 
HETATM   25  N10 UNL     1       4.081  -2.397  15.693  1.00  0.00    -0.060 NA
HETATM   26  O5  UNL     1       3.896  -4.293  14.416  1.00  0.00    -0.275 OA
ENDBRANCH  22  24
ENDBRANCH  20  22
ENDBRANCH  14  18
ENDBRANCH  11  14
ENDBRANCH   4  10
ENDBRANCH   1   2
BRANCH   1  27
HETATM   27  C13 UNL     1       7.122  -3.280  14.051  1.00  0.00     0.014 C 
BRANCH  27  28
HETATM   28  C14 UNL     1       7.180  -1.833  14.227  1.00  0.00     0.061 A 
HETATM   29  C15 UNL     1       8.352  -1.084  14.409  1.00  0.00     0.136 A 
HETATM   30  N3  UNL     1       8.032   0.218  14.437  1.00  0.00    -0.199 N 
HETATM   31  C16 UNL     1       6.727   0.340  14.287  1.00  0.00     0.686 A 
ATOM     32  H3  UNL     1       8.690   0.988  14.556  1.00  0.00     0.183 HD
HETATM   33  N8  UNL     1       6.203  -0.917  14.161  1.00  0.00    -0.191 N 
ATOM     34  H8  UNL     1       5.213  -1.127  14.035  1.00  0.00     0.184 HD
BRANCH  31  35
HETATM   35  N4  UNL     1       6.034   1.442  14.167  1.00  0.00    -0.149 N 
HETATM   36  C17 UNL     1       5.131   1.504  13.022  1.00  0.00     0.274 C 
HETATM   37  N5  UNL     1       5.618   2.040  11.974  1.00  0.00    -0.350 N 
HETATM   38  N6  UNL     1       3.844   1.017  13.045  1.00  0.00    -0.316 NA
ATOM     39  H5  UNL     1       5.016   2.099  11.153  1.00  0.00     0.163 HD
HETATM   40  C20 UNL     1       2.576   0.533  13.086  1.00  0.00     0.399 C 
HETATM   41  O3  UNL     1       1.983  -0.025  14.078  1.00  0.00    -0.230 OA
HETATM   42  N7  UNL     1       1.682   0.602  11.924  1.00  0.00    -0.322 N 
HETATM   43  C21 UNL     1       2.306   1.234  10.801  1.00  0.00     0.129 C 
HETATM   44  C26 UNL     1       0.378   0.057  12.158  1.00  0.00     0.129 C 
HETATM   45  C22 UNL     1       1.318   1.507   9.679  1.00  0.00     0.020 C 
HETATM   46  C23 UNL     1       0.200   2.396  10.085  1.00  0.00     0.002 C 
HETATM   47  C24 UNL     1      -0.120   2.377  11.563  1.00  0.00     0.002 C 
HETATM   48  C25 UNL     1      -0.718   1.086  12.033  1.00  0.00     0.020 C 
ATOM     49  H4  UNL     1       6.119   2.212  14.831  1.00  0.00     0.188 HD
BRANCH  37  50
HETATM   50  C18 UNL     1       6.941   2.564  11.861  1.00  0.00     0.119 C 
HETATM   51  C19 UNL     1       7.710   1.633  10.923  1.00  0.00     0.026 C 
ENDBRANCH  37  50
ENDBRANCH  31  35
ENDBRANCH  27  28
ENDBRANCH   1  27
TORSDOF 12
ENDMDL
MODEL 2
REMARK VINA RESULT: -9.468757110      1.421      3.787
REMARK  12 active torsions:
REMARK  status: ('A' for Active; 'I' for Inactive)
REMARK    1  A    between atoms: C2_2  and  C3_3 
REMARK    2  A    between atoms: C3_3  and  C4_4 
REMARK    3  A    between atoms: C4_4  and  N1_5 
REMARK    4  A    between atoms: C4_4  and  C27_43 
REMARK       I    between atoms: N1_5  and  C5_7 
REMARK    5  A    between atoms: C5_7  and  C6_9 
REMARK       I    between atoms: N2_14  and  C11_15 
REMARK    6  A    between atoms: C11_15  and  C12_17 
REMARK    7  A    between atoms: C12_17  and  C13_18 
REMARK    8  A    between atoms: C13_18  and  C14_19 
REMARK    9  A    between atoms: C16_23  and  N4_24 
REMARK       I    between atoms: N4_24  and  C17_26 
REMARK       I    between atoms: C17_26  and  N6_31 
REMARK   10  A    between atoms: N5_27  and  C18_29 
REMARK       I    between atoms: N6_31  and  C20_32 
REMARK       I    between atoms: C20_32  and  N7_34 
REMARK       I    between atoms: C27_43  and  N9_45 
REMARK   11  A    between atoms: N9_45  and  C28_47 
REMARK   12  A    between atoms: C28_47  and  C30_49 
ROOT
HETATM    1  C12 UNL     1       6.415  -3.211  16.540  1.00  0.00     0.132 C 
ENDROOT
BRANCH   1   2
HETATM    2  C11 UNL     1       5.551  -4.375  16.329  1.00  0.00     0.224 C 
HETATM    3  N2  UNL     1       4.202  -4.437  16.696  1.00  0.00    -0.338 N 
HETATM    4  C6  UNL     1       3.257  -5.484  16.794  1.00  0.00     0.179 C 
HETATM    5  C10 UNL     1       3.545  -3.093  16.871  1.00  0.00     0.127 C 
HETATM    6  C7  UNL     1       2.587  -5.536  15.408  1.00  0.00     0.035 C 
HETATM    7  C8  UNL     1       2.696  -4.136  14.792  1.00  0.00     0.004 C 
HETATM    8  C9  UNL     1       2.404  -3.101  15.831  1.00  0.00     0.020 C 
HETATM    9  O2  UNL     1       6.127  -5.379  15.779  1.00  0.00    -0.273 OA
BRANCH   4  10
HETATM   10  C5  UNL     1       3.630  -6.779  17.297  1.00  0.00     0.241 C 
HETATM   11  N1  UNL     1       4.169  -7.810  16.449  1.00  0.00    -0.346 N 
ATOM     12  H1  UNL     1       4.315  -7.601  15.462  1.00  0.00     0.163 HD
HETATM   13  O1  UNL     1       3.501  -7.099  18.493  1.00  0.00    -0.271 OA
BRANCH  11  14
HETATM   14  C4  UNL     1       4.515  -9.146  16.941  1.00  0.00     0.180 C 
BRANCH  14  15
HETATM   15  C3  UNL     1       3.396  -9.729  17.726  1.00  0.00     0.061 C 
BRANCH  15  16
HETATM   16  C2  UNL     1       2.553 -10.677  16.983  1.00  0.00    -0.034 C 
HETATM   17  C1  UNL     1       2.900 -11.309  15.879  1.00  0.00     0.007 C 
ENDBRANCH  15  16
ENDBRANCH  14  15
BRANCH  14  18
HETATM   18  C27 UNL     1       5.811  -9.034  17.688  1.00  0.00     0.241 C 
HETATM   19  O4  UNL     1       5.997  -9.794  18.701  1.00  0.00    -0.271 OA
HETATM   20  N9  UNL     1       6.841  -8.140  17.359  1.00  0.00    -0.347 N 
ATOM     21  H9  UNL     1       6.731  -7.514  16.562  1.00  0.00     0.163 HD
BRANCH  20  22
HETATM   22  C28 UNL     1       8.066  -8.099  18.144  1.00  0.00     0.169 C 
HETATM   23  C29 UNL     1       9.260  -8.618  17.400  1.00  0.00     0.042 C 
BRANCH  22  24
HETATM   24  C30 UNL     1       8.318  -6.684  18.504  1.00  0.00     0.253 C 
HETATM   25  N10 UNL     1       9.649  -6.151  18.520  1.00  0.00    -0.060 NA
HETATM   26  O5  UNL     1       7.388  -5.893  18.812  1.00  0.00    -0.275 OA
ENDBRANCH  22  24
ENDBRANCH  20  22
ENDBRANCH  14  18
ENDBRANCH  11  14
ENDBRANCH   4  10
ENDBRANCH   1   2
BRANCH   1  27
HETATM   27  C13 UNL     1       7.479  -2.880  15.614  1.00  0.00     0.014 C 
BRANCH  27  28
HETATM   28  C14 UNL     1       7.622  -1.565  14.998  1.00  0.00     0.061 A 
HETATM   29  C15 UNL     1       8.739  -1.128  14.270  1.00  0.00     0.136 A 
HETATM   30  N3  UNL     1       8.480   0.091  13.773  1.00  0.00    -0.199 N 
HETATM   31  C16 UNL     1       7.267   0.453  14.143  1.00  0.00     0.686 A 
ATOM     32  H3  UNL     1       9.116   0.646  13.202  1.00  0.00     0.183 HD
HETATM   33  N8  UNL     1       6.740  -0.560  14.897  1.00  0.00    -0.191 N 
ATOM     34  H8  UNL     1       5.813  -0.552  15.320  1.00  0.00     0.184 HD
BRANCH  31  35
HETATM   35  N4  UNL     1       6.609   1.526  13.790  1.00  0.00    -0.149 N 
HETATM   36  C17 UNL     1       5.610   1.342  12.741  1.00  0.00     0.274 C 
HETATM   37  N5  UNL     1       6.021   1.558  11.555  1.00  0.00    -0.350 N 
HETATM   38  N6  UNL     1       4.312   0.957  12.990  1.00  0.00    -0.316 NA
ATOM     39  H5  UNL     1       5.351   1.438  10.795  1.00  0.00     0.163 HD
HETATM   40  C20 UNL     1       3.036   0.578  13.254  1.00  0.00     0.399 C 
HETATM   41  O3  UNL     1       2.512   0.333  14.400  1.00  0.00    -0.230 OA
HETATM   42  N7  UNL     1       2.044   0.396  12.186  1.00  0.00    -0.322 N 
HETATM   43  C21 UNL     1       2.590   0.676  10.892  1.00  0.00     0.129 C 
HETATM   44  C26 UNL     1       0.747   0.010  12.654  1.00  0.00     0.129 C 
HETATM   45  C22 UNL     1       1.517   0.707   9.816  1.00  0.00     0.020 C 
HETATM   46  C23 UNL     1       0.474   1.737  10.058  1.00  0.00     0.002 C 
HETATM   47  C24 UNL     1       0.287   2.121  11.507  1.00  0.00     0.002 C 
HETATM   48  C25 UNL     1      -0.316   1.036  12.346  1.00  0.00     0.020 C 
ATOM     49  H4  UNL     1       6.782   2.435  14.219  1.00  0.00     0.188 HD
BRANCH  37  50
HETATM   50  C18 UNL     1       7.348   1.953  11.208  1.00  0.00     0.119 C 
HETATM   51  C19 UNL     1       7.927   0.846  10.327  1.00  0.00     0.026 C 
ENDBRANCH  37  50
ENDBRANCH  31  35
ENDBRANCH  27  28
ENDBRANCH   1  27
TORSDOF 12
ENDMDL
MODEL 3
REMARK VINA RESULT: -9.436830505      1.863      3.254
REMARK  12 active torsions:
REMARK  status: ('A' for Active; 'I' for Inactive)
REMARK    1  A    between atoms: C2_2  and  C3_3 
REMARK    2  A    between atoms: C3_3  and  C4_4 
REMARK    3  A    between atoms: C4_4  and  N1_5 
REMARK    4  A    between atoms: C4_4  and  C27_43 
REMARK       I    between atoms: N1_5  and  C5_7 
REMARK    5  A    between atoms: C5_7  and  C6_9 
REMARK       I    between atoms: N2_14  and  C11_15 
REMARK    6  A    between atoms: C11_15  and  C12_17 
REMARK    7  A    between atoms: C12_17  and  C13_18 
REMARK    8  A    between atoms: C13_18  and  C14_19 
REMARK    9  A    between atoms: C16_23  and  N4_24 
REMARK       I    between atoms: N4_24  and  C17_26 
REMARK       I    between atoms: C17_26  and  N6_31 
REMARK   10  A    between atoms: N5_27  and  C18_29 
REMARK       I    between atoms: N6_31  and  C20_32 
REMARK       I    between atoms: C20_32  and  N7_34 
REMARK       I    between atoms: C27_43  and  N9_45 
REMARK   11  A    between atoms: N9_45  and  C28_47 
REMARK   12  A    between atoms: C28_47  and  C30_49 
ROOT
HETATM    1  C12 UNL     1       6.276  -4.480  15.102  1.00  0.00     0.132 C 
ENDROOT
BRANCH   1   2
HETATM    2  C11 UNL     1       7.242  -4.841  16.144  1.00  0.00     0.224 C 
HETATM    3  N2  UNL     1       8.510  -5.376  15.895  1.00  0.00    -0.338 N 
HETATM    4  C6  UNL     1       9.495  -5.987  16.706  1.00  0.00     0.179 C 
HETATM    5  C10 UNL     1       9.035  -5.112  14.509  1.00  0.00     0.127 C 
HETATM    6  C7  UNL     1      10.391  -4.824  17.174  1.00  0.00     0.035 C 
HETATM    7  C8  UNL     1      10.291  -3.714  16.121  1.00  0.00     0.004 C 
HETATM    8  C9  UNL     1      10.332  -4.311  14.750  1.00  0.00     0.020 C 
HETATM    9  O2  UNL     1       6.837  -4.643  17.343  1.00  0.00    -0.273 OA
BRANCH   4  10
HETATM   10  C5  UNL     1       9.132  -6.890  17.765  1.00  0.00     0.241 C 
HETATM   11  N1  UNL     1       8.628  -8.213  17.511  1.00  0.00    -0.346 N 
ATOM     12  H1  UNL     1       8.552  -8.529  16.544  1.00  0.00     0.163 HD
HETATM   13  O1  UNL     1       9.218  -6.584  18.969  1.00  0.00    -0.271 OA
BRANCH  11  14
HETATM   14  C4  UNL     1       8.216  -9.128  18.579  1.00  0.00     0.180 C 
BRANCH  14  15
HETATM   15  C3  UNL     1       9.128 -10.299  18.656  1.00  0.00     0.061 C 
BRANCH  15  16
HETATM   16  C2  UNL     1       9.414 -10.941  17.365  1.00  0.00    -0.034 C 
HETATM   17  C1  UNL     1       8.965 -12.120  16.980  1.00  0.00     0.007 C 
ENDBRANCH  15  16
ENDBRANCH  14  15
BRANCH  14  18
HETATM   18  C27 UNL     1       6.774  -9.474  18.352  1.00  0.00     0.241 C 
HETATM   19  O4  UNL     1       6.208 -10.286  19.163  1.00  0.00    -0.271 OA
HETATM   20  N9  UNL     1       5.995  -8.973  17.298  1.00  0.00    -0.347 N 
ATOM     21  H9  UNL     1       6.411  -8.326  16.627  1.00  0.00     0.163 HD
BRANCH  20  22
HETATM   22  C28 UNL     1       4.602  -9.366  17.153  1.00  0.00     0.169 C 
HETATM   23  C29 UNL     1       3.655  -8.203  17.192  1.00  0.00     0.042 C 
BRANCH  22  24
HETATM   24  C30 UNL     1       4.462 -10.039  15.841  1.00  0.00     0.253 C 
HETATM   25  N10 UNL     1       5.194 -11.236  15.543  1.00  0.00    -0.060 NA
HETATM   26  O5  UNL     1       3.706  -9.598  14.936  1.00  0.00    -0.275 OA
ENDBRANCH  22  24
ENDBRANCH  20  22
ENDBRANCH  14  18
ENDBRANCH  11  14
ENDBRANCH   4  10
ENDBRANCH   1   2
BRANCH   1  27
HETATM   27  C13 UNL     1       6.613  -3.540  14.052  1.00  0.00     0.014 C 
BRANCH  27  28
HETATM   28  C14 UNL     1       6.737  -2.103  14.275  1.00  0.00     0.061 A 
HETATM   29  C15 UNL     1       7.937  -1.422  14.527  1.00  0.00     0.136 A 
HETATM   30  N3  UNL     1       7.684  -0.107  14.583  1.00  0.00    -0.199 N 
HETATM   31  C16 UNL     1       6.395   0.088  14.386  1.00  0.00     0.686 A 
ATOM     32  H3  UNL     1       8.375   0.624  14.751  1.00  0.00     0.183 HD
HETATM   33  N8  UNL     1       5.812  -1.136  14.199  1.00  0.00    -0.191 N 
ATOM     34  H8  UNL     1       4.819  -1.290  14.028  1.00  0.00     0.184 HD
BRANCH  31  35
HETATM   35  N4  UNL     1       5.764   1.228  14.273  1.00  0.00    -0.149 N 
HETATM   36  C17 UNL     1       4.924   1.375  13.089  1.00  0.00     0.274 C 
HETATM   37  N5  UNL     1       5.489   1.921  12.086  1.00  0.00    -0.350 N 
HETATM   38  N6  UNL     1       3.614   0.956  13.032  1.00  0.00    -0.316 NA
ATOM     39  H5  UNL     1       4.932   2.040  11.239  1.00  0.00     0.163 HD
HETATM   40  C20 UNL     1       2.324   0.537  12.993  1.00  0.00     0.399 C 
HETATM   41  O3  UNL     1       1.654  -0.024  13.934  1.00  0.00    -0.230 OA
HETATM   42  N7  UNL     1       1.493   0.692  11.793  1.00  0.00    -0.322 N 
HETATM   43  C21 UNL     1       2.204   1.329  10.725  1.00  0.00     0.129 C 
HETATM   44  C26 UNL     1       0.154   0.207  11.943  1.00  0.00     0.129 C 
HETATM   45  C22 UNL     1       1.289   1.691   9.567  1.00  0.00     0.020 C 
HETATM   46  C23 UNL     1       0.198   2.622   9.952  1.00  0.00     0.002 C 
HETATM   47  C24 UNL     1      -0.197   2.569  11.410  1.00  0.00     0.002 C 
HETATM   48  C25 UNL     1      -0.881   1.295  11.803  1.00  0.00     0.020 C 
ATOM     49  H4  UNL     1       5.854   1.968  14.969  1.00  0.00     0.188 HD
BRANCH  37  50
HETATM   50  C18 UNL     1       6.840   2.380  12.056  1.00  0.00     0.119 C 
HETATM   51  C19 UNL     1       7.615   1.424  11.149  1.00  0.00     0.026 C 
ENDBRANCH  37  50
ENDBRANCH  31  35
ENDBRANCH  27  28
ENDBRANCH   1  27
TORSDOF 12
ENDMDL
MODEL 4
REMARK VINA RESULT: -9.396909599      2.597      5.836
REMARK  12 active torsions:
REMARK  status: ('A' for Active; 'I' for Inactive)
REMARK    1  A    between atoms: C2_2  and  C3_3 
REMARK    2  A    between atoms: C3_3  and  C4_4 
REMARK    3  A    between atoms: C4_4  and  N1_5 
REMARK    4  A    between atoms: C4_4  and  C27_43 
REMARK       I    between atoms: N1_5  and  C5_7 
REMARK    5  A    between atoms: C5_7  and  C6_9 
REMARK       I    between atoms: N2_14  and  C11_15 
REMARK    6  A    between atoms: C11_15  and  C12_17 
REMARK    7  A    between atoms: C12_17  and  C13_18 
REMARK    8  A    between atoms: C13_18  and  C14_19 
REMARK    9  A    between atoms: C16_23  and  N4_24 
REMARK       I    between atoms: N4_24  and  C17_26 
REMARK       I    between atoms: C17_26  and  N6_31 
REMARK   10  A    between atoms: N5_27  and  C18_29 
REMARK       I    between atoms: N6_31  and  C20_32 
REMARK       I    between atoms: C20_32  and  N7_34 
REMARK       I    between atoms: C27_43  and  N9_45 
REMARK   11  A    between atoms: N9_45  and  C28_47 
REMARK   12  A    between atoms: C28_47  and  C30_49 
ROOT
HETATM    1  C12 UNL     1       2.974  -6.483  15.706  1.00  0.00     0.132 C 
ENDROOT
BRANCH   1   2
HETATM    2  C11 UNL     1       3.359  -7.892  15.833  1.00  0.00     0.224 C 
HETATM    3  N2  UNL     1       3.441  -8.582  17.047  1.00  0.00    -0.338 N 
HETATM    4  C6  UNL     1       3.981  -9.831  17.433  1.00  0.00     0.179 C 
HETATM    5  C10 UNL     1       2.647  -7.965  18.167  1.00  0.00     0.127 C 
HETATM    6  C7  UNL     1       2.816 -10.827  17.271  1.00  0.00     0.035 C 
HETATM    7  C8  UNL     1       1.512 -10.038  17.430  1.00  0.00     0.004 C 
HETATM    8  C9  UNL     1       1.641  -9.067  18.560  1.00  0.00     0.020 C 
HETATM    9  O2  UNL     1       3.642  -8.473  14.727  1.00  0.00    -0.273 OA
BRANCH   4  10
HETATM   10  C5  UNL     1       5.221 -10.309  16.880  1.00  0.00     0.241 C 
HETATM   11  N1  UNL     1       6.484 -10.118  17.541  1.00  0.00    -0.346 N 
ATOM     12  H1  UNL     1       6.494  -9.651  18.448  1.00  0.00     0.163 HD
HETATM   13  O1  UNL     1       5.285 -10.906  15.790  1.00  0.00    -0.271 OA
BRANCH  11  14
HETATM   14  C4  UNL     1       7.758 -10.563  16.970  1.00  0.00     0.180 C 
BRANCH  14  15
HETATM   15  C3  UNL     1       8.198 -11.842  17.586  1.00  0.00     0.061 C 
BRANCH  15  16
HETATM   16  C2  UNL     1       8.763 -12.816  16.642  1.00  0.00    -0.034 C 
HETATM   17  C1  UNL     1       8.853 -14.116  16.845  1.00  0.00     0.007 C 
ENDBRANCH  15  16
ENDBRANCH  14  15
BRANCH  14  18
HETATM   18  C27 UNL     1       8.737  -9.434  17.107  1.00  0.00     0.241 C 
HETATM   19  O4  UNL     1       9.834  -9.652  17.728  1.00  0.00    -0.271 OA
HETATM   20  N9  UNL     1       8.530  -8.140  16.606  1.00  0.00    -0.347 N 
ATOM     21  H9  UNL     1       7.667  -7.924  16.108  1.00  0.00     0.163 HD
BRANCH  20  22
HETATM   22  C28 UNL     1       9.536  -7.104  16.788  1.00  0.00     0.169 C 
HETATM   23  C29 UNL     1       9.674  -6.202  15.598  1.00  0.00     0.042 C 
BRANCH  22  24
HETATM   24  C30 UNL     1       9.127  -6.285  17.952  1.00  0.00     0.253 C 
HETATM   25  N10 UNL     1       9.937  -5.192  18.408  1.00  0.00    -0.060 NA
HETATM   26  O5  UNL     1       8.066  -6.507  18.591  1.00  0.00    -0.275 OA
ENDBRANCH  22  24
ENDBRANCH  20  22
ENDBRANCH  14  18
ENDBRANCH  11  14
ENDBRANCH   4  10
ENDBRANCH   1   2
BRANCH   1  27
HETATM   27  C13 UNL     1       3.847  -5.515  15.073  1.00  0.00     0.014 C 
BRANCH  27  28
HETATM   28  C14 UNL     1       4.769  -4.664  15.818  1.00  0.00     0.061 A 
HETATM   29  C15 UNL     1       5.576  -5.084  16.886  1.00  0.00     0.136 A 
HETATM   30  N3  UNL     1       6.361  -4.063  17.260  1.00  0.00    -0.199 N 
HETATM   31  C16 UNL     1       6.099  -3.021  16.497  1.00  0.00     0.686 A 
ATOM     32  H3  UNL     1       7.049  -4.088  18.013  1.00  0.00     0.183 HD
HETATM   33  N8  UNL     1       5.121  -3.387  15.613  1.00  0.00    -0.191 N 
ATOM     34  H8  UNL     1       4.718  -2.777  14.902  1.00  0.00     0.184 HD
BRANCH  31  35
HETATM   35  N4  UNL     1       6.711  -1.866  16.479  1.00  0.00    -0.149 N 
HETATM   36  C17 UNL     1       7.127  -1.386  15.165  1.00  0.00     0.274 C 
HETATM   37  N5  UNL     1       8.315  -1.692  14.825  1.00  0.00    -0.350 N 
HETATM   38  N6  UNL     1       6.308  -0.658  14.330  1.00  0.00    -0.316 NA
ATOM     39  H5  UNL     1       8.640  -1.374  13.911  1.00  0.00     0.163 HD
HETATM   40  C20 UNL     1       5.488   0.059  13.520  1.00  0.00     0.399 C 
HETATM   41  O3  UNL     1       4.280   0.423  13.754  1.00  0.00    -0.230 OA
HETATM   42  N7  UNL     1       5.922   0.532  12.200  1.00  0.00    -0.322 N 
HETATM   43  C21 UNL     1       7.273   0.157  11.911  1.00  0.00     0.129 C 
HETATM   44  C26 UNL     1       4.929   1.286  11.495  1.00  0.00     0.129 C 
HETATM   45  C22 UNL     1       7.795   0.831  10.653  1.00  0.00     0.020 C 
HETATM   46  C23 UNL     1       7.786   2.314  10.736  1.00  0.00     0.002 C 
HETATM   47  C24 UNL     1       6.766   2.889  11.692  1.00  0.00     0.002 C 
HETATM   48  C25 UNL     1       5.349   2.712  11.239  1.00  0.00     0.020 C 
ATOM     49  H4  UNL     1       6.888  -1.333  17.331  1.00  0.00     0.188 HD
BRANCH  37  50
HETATM   50  C18 UNL     1       9.227  -2.446  15.623  1.00  0.00     0.119 C 
HETATM   51  C19 UNL     1      10.528  -2.559  14.828  1.00  0.00     0.026 C 
ENDBRANCH  37  50
ENDBRANCH  31  35
ENDBRANCH  27  28
ENDBRANCH   1  27
TORSDOF 12
ENDMDL
MODEL 5
REMARK VINA RESULT: -9.329874324      3.269     10.686
REMARK  12 active torsions:
REMARK  status: ('A' for Active; 'I' for Inactive)
REMARK    1  A    between atoms: C2_2  and  C3_3 
REMARK    2  A    between atoms: C3_3  and  C4_4 
REMARK    3  A    between atoms: C4_4  and  N1_5 
REMARK    4  A    between atoms: C4_4  and  C27_43 
REMARK       I    between atoms: N1_5  and  C5_7 
REMARK    5  A    between atoms: C5_7  and  C6_9 
REMARK       I    between atoms: N2_14  and  C11_15 
REMARK    6  A    between atoms: C11_15  and  C12_17 
REMARK    7  A    between atoms: C12_17  and  C13_18 
REMARK    8  A    between atoms: C13_18  and  C14_19 
REMARK    9  A    between atoms: C16_23  and  N4_24 
REMARK       I    between atoms: N4_24  and  C17_26 
REMARK       I    between atoms: C17_26  and  N6_31 
REMARK   10  A    between atoms: N5_27  and  C18_29 
REMARK       I    between atoms: N6_31  and  C20_32 
REMARK       I    between atoms: C20_32  and  N7_34 
REMARK       I    between atoms: C27_43  and  N9_45 
REMARK   11  A    between atoms: N9_45  and  C28_47 
REMARK   12  A    between atoms: C28_47  and  C30_49 
ROOT
HETATM    1  C12 UNL     1       4.330   1.387  12.921  1.00  0.00     0.132 C 
ENDROOT
BRANCH   1   2
HETATM    2  C11 UNL     1       5.157   1.586  11.728  1.00  0.00     0.224 C 
HETATM    3  N2  UNL     1       6.469   2.072  11.747  1.00  0.00    -0.338 N 
HETATM    4  C6  UNL     1       7.358   2.541  10.753  1.00  0.00     0.179 C 
HETATM    5  C10 UNL     1       7.168   1.920  13.072  1.00  0.00     0.127 C 
HETATM    6  C7  UNL     1       8.132   1.288  10.298  1.00  0.00     0.035 C 
HETATM    7  C8  UNL     1       8.131   0.299  11.469  1.00  0.00     0.004 C 
HETATM    8  C9  UNL     1       8.385   1.028  12.750  1.00  0.00     0.020 C 
HETATM    9  O2  UNL     1       4.583   1.291  10.621  1.00  0.00    -0.273 OA
BRANCH   4  10
HETATM   10  C5  UNL     1       6.891   3.351   9.659  1.00  0.00     0.241 C 
HETATM   11  N1  UNL     1       6.253   2.789   8.499  1.00  0.00    -0.346 N 
ATOM     12  H1  UNL     1       6.103   1.780   8.467  1.00  0.00     0.163 HD
HETATM   13  O1  UNL     1       7.019   4.590   9.638  1.00  0.00    -0.271 OA
BRANCH  11  14
HETATM   14  C4  UNL     1       5.810   3.598   7.361  1.00  0.00     0.180 C 
BRANCH  14  15
HETATM   15  C3  UNL     1       6.870   4.552   6.943  1.00  0.00     0.061 C 
BRANCH  15  16
HETATM   16  C2  UNL     1       7.971   3.950   6.178  1.00  0.00    -0.034 C 
HETATM   17  C1  UNL     1       7.850   2.972   5.301  1.00  0.00     0.007 C 
ENDBRANCH  15  16
ENDBRANCH  14  15
BRANCH  14  18
HETATM   18  C27 UNL     1       4.507   4.239   7.739  1.00  0.00     0.241 C 
HETATM   19  O4  UNL     1       4.269   5.426   7.324  1.00  0.00    -0.271 OA
HETATM   20  N9  UNL     1       3.523   3.628   8.531  1.00  0.00    -0.347 N 
ATOM     21  H9  UNL     1       3.676   2.684   8.886  1.00  0.00     0.163 HD
BRANCH  20  22
HETATM   22  C28 UNL     1       2.287   4.328   8.850  1.00  0.00     0.169 C 
HETATM   23  C29 UNL     1       1.126   3.883   8.013  1.00  0.00     0.042 C 
BRANCH  22  24
HETATM   24  C30 UNL     1       1.973   4.052  10.272  1.00  0.00     0.253 C 
HETATM   25  N10 UNL     1       0.621   3.847  10.703  1.00  0.00    -0.060 NA
HETATM   26  O5  UNL     1       2.865   3.988  11.157  1.00  0.00    -0.275 OA
ENDBRANCH  22  24
ENDBRANCH  20  22
ENDBRANCH  14  18
ENDBRANCH  11  14
ENDBRANCH   4  10
ENDBRANCH   1   2
BRANCH   1  27
HETATM   27  C13 UNL     1       3.148   0.549  12.891  1.00  0.00     0.014 C 
BRANCH  27  28
HETATM   28  C14 UNL     1       2.843  -0.440  13.920  1.00  0.00     0.061 A 
HETATM   29  C15 UNL     1       1.566  -0.941  14.210  1.00  0.00     0.136 A 
HETATM   30  N3  UNL     1       1.679  -1.899  15.141  1.00  0.00    -0.199 N 
HETATM   31  C16 UNL     1       2.951  -2.034  15.462  1.00  0.00     0.686 A 
ATOM     32  H3  UNL     1       0.908  -2.436  15.537  1.00  0.00     0.183 HD
HETATM   33  N8  UNL     1       3.667  -1.138  14.716  1.00  0.00    -0.191 N 
ATOM     34  H8  UNL     1       4.678  -1.018  14.758  1.00  0.00     0.184 HD
BRANCH  31  35
HETATM   35  N4  UNL     1       3.487  -2.920  16.259  1.00  0.00    -0.149 N 
HETATM   36  C17 UNL     1       4.626  -3.655  15.720  1.00  0.00     0.274 C 
HETATM   37  N5  UNL     1       4.343  -4.761  15.157  1.00  0.00    -0.350 N 
HETATM   38  N6  UNL     1       5.924  -3.202  15.795  1.00  0.00    -0.316 NA
ATOM     39  H5  UNL     1       5.115  -5.303  14.766  1.00  0.00     0.163 HD
HETATM   40  C20 UNL     1       7.198  -2.741  15.879  1.00  0.00     0.399 C 
HETATM   41  O3  UNL     1       7.601  -1.648  16.417  1.00  0.00    -0.230 OA
HETATM   42  N7  UNL     1       8.333  -3.492  15.329  1.00  0.00    -0.322 N 
HETATM   43  C21 UNL     1       7.922  -4.728  14.732  1.00  0.00     0.129 C 
HETATM   44  C26 UNL     1       9.602  -2.859  15.524  1.00  0.00     0.129 C 
HETATM   45  C22 UNL     1       9.107  -5.605  14.365  1.00  0.00     0.020 C 
HETATM   46  C23 UNL     1       9.950  -5.969  15.533  1.00  0.00     0.002 C 
HETATM   47  C24 UNL     1       9.894  -4.992  16.685  1.00  0.00     0.002 C 
HETATM   48  C25 UNL     1      10.536  -3.672  16.387  1.00  0.00     0.020 C 
ATOM     49  H4  UNL     1       3.130  -3.088  17.200  1.00  0.00     0.188 HD
BRANCH  37  50
HETATM   50  C18 UNL     1       3.028  -5.302  15.030  1.00  0.00     0.119 C 
HETATM   51  C19 UNL     1       3.166  -6.824  15.082  1.00  0.00     0.026 C 
ENDBRANCH  37  50
ENDBRANCH  31  35
ENDBRANCH  27  28
ENDBRANCH   1  27
TORSDOF 12
ENDMDL
