MODEL 1
REMARK VINA RESULT: -8.381331710      0.000      0.000
REMARK  11 active torsions:
REMARK  status: ('A' for Active; 'I' for Inactive)
REMARK    1  A    between atoms: C2_2  and  C3_3 
REMARK    2  A    between atoms: C3_3  and  C5_5 
REMARK    3  A    between atoms: C5_5  and  N1_6 
REMARK    4  A    between atoms: C5_5  and  C30_49 
REMARK       I    between atoms: N1_6  and  C6_8 
REMARK    5  A    between atoms: C6_8  and  C7_10 
REMARK    6  A    between atoms: C7_10  and  N2_12 
REMARK    7  A    between atoms: N2_12  and  S1_14 
REMARK    8  A    between atoms: S1_14  and  C9_16 
REMARK    9  A    between atoms: S1_14  and  N6_37 
REMARK       I    between atoms: C9_16  and  N3_18 
REMARK       I    between atoms: C10_20  and  N4_21 
REMARK       I    between atoms: C10_20  and  N5_29 
REMARK   10  A    between atoms: N4_21  and  C11_23 
REMARK   11  A    between atoms: N5_29  and  C18_31 
REMARK       I    between atoms: N7_41  and  C27_42 
ROOT
HETATM    1  S1  UNL     1       5.562  -1.655  14.034  1.00  0.00     0.194 S 
HETATM    2  O2  UNL     1       5.576  -2.642  12.478  1.00  0.00    -0.218 OA
ENDROOT
BRANCH   1   3
HETATM    3  N2  UNL     1       7.090  -2.591  14.436  1.00  0.00    -0.315 N 
ATOM      4  H2  UNL     1       7.643  -2.980  13.673  1.00  0.00     0.172 HD
BRANCH   3   5
HETATM    5  C7  UNL     1       7.521  -2.789  15.750  1.00  0.00     0.179 C 
HETATM    6  C8  UNL     1       6.438  -2.813  16.812  1.00  0.00     0.043 C 
BRANCH   5   7
HETATM    7  C6  UNL     1       8.347  -4.035  15.916  1.00  0.00     0.241 C 
HETATM    8  N1  UNL     1       7.863  -5.036  16.780  1.00  0.00    -0.346 N 
ATOM      9  H1  UNL     1       6.974  -4.901  17.261  1.00  0.00     0.163 HD
HETATM   10  O1  UNL     1       9.423  -4.118  15.274  1.00  0.00    -0.271 OA
BRANCH   8  11
HETATM   11  C5  UNL     1       8.635  -6.291  16.998  1.00  0.00     0.177 C 
BRANCH  11  12
HETATM   12  C3  UNL     1       7.808  -7.192  17.818  1.00  0.00     0.013 C 
HETATM   13  C4  UNL     1       6.892  -6.538  18.836  1.00  0.00     0.012 C 
BRANCH  12  14
HETATM   14  C2  UNL     1       8.368  -8.466  18.290  1.00  0.00     0.002 C 
HETATM   15  C1  UNL     1       8.522  -9.572  17.305  1.00  0.00     0.005 C 
ENDBRANCH  12  14
ENDBRANCH  11  12
BRANCH  11  16
HETATM   16  C30 UNL     1       9.941  -5.977  17.553  1.00  0.00     0.254 C 
HETATM   17  N10 UNL     1      11.207  -6.396  17.073  1.00  0.00    -0.060 NA
HETATM   18  O4  UNL     1      10.008  -5.229  18.599  1.00  0.00    -0.275 OA
ENDBRANCH  11  16
ENDBRANCH   8  11
ENDBRANCH   5   7
ENDBRANCH   3   5
ENDBRANCH   1   3
BRANCH   1  19
HETATM   19  C9  UNL     1       3.839  -2.859  14.350  1.00  0.00     0.353 C 
HETATM   20  O3  UNL     1       2.839  -2.166  14.497  1.00  0.00    -0.254 OA
HETATM   21  N3  UNL     1       4.061  -4.202  14.349  1.00  0.00    -0.146 N 
HETATM   22  C10 UNL     1       3.373  -5.081  14.989  1.00  0.00     0.679 C 
ATOM     23  H3  UNL     1       4.844  -4.542  13.790  1.00  0.00     0.188 HD
HETATM   24  N4  UNL     1       3.804  -6.416  14.824  1.00  0.00    -0.221 N 
HETATM   25  N5  UNL     1       2.266  -4.768  15.784  1.00  0.00    -0.217 N 
ATOM     26  H4  UNL     1       4.502  -6.551  14.092  1.00  0.00     0.178 HD
HETATM   27  C17 UNL     1       0.963  -4.485  15.157  1.00  0.00     0.169 C 
BRANCH  24  28
HETATM   28  C11 UNL     1       3.422  -7.606  15.514  1.00  0.00     0.099 C 
HETATM   29  C12 UNL     1       3.447  -8.780  14.603  1.00  0.00     0.026 C 
HETATM   30  C13 UNL     1       3.802 -10.104  15.166  1.00  0.00     0.002 C 
HETATM   31  C14 UNL     1       4.764 -10.132  16.303  1.00  0.00     0.000 C 
HETATM   32  C15 UNL     1       4.271  -9.126  17.325  1.00  0.00     0.002 C 
HETATM   33  C16 UNL     1       4.398  -7.783  16.673  1.00  0.00     0.026 C 
ENDBRANCH  24  28
BRANCH  25  34
HETATM   34  C18 UNL     1       2.330  -4.706  17.208  1.00  0.00     0.101 C 
HETATM   35  C19 UNL     1       1.919  -3.337  17.739  1.00  0.00     0.026 C 
HETATM   36  C20 UNL     1       2.077  -3.349  19.231  1.00  0.00     0.002 C 
HETATM   37  C21 UNL     1       2.321  -4.722  19.783  1.00  0.00     0.000 C 
HETATM   38  C22 UNL     1       3.591  -5.268  19.220  1.00  0.00     0.002 C 
HETATM   39  C23 UNL     1       3.711  -5.002  17.711  1.00  0.00     0.026 C 
ENDBRANCH  25  34
ENDBRANCH   1  19
BRANCH   1  40
HETATM   40  N6  UNL     1       5.324  -0.193  13.147  1.00  0.00    -0.318 N 
HETATM   41  C24 UNL     1       5.834   0.017  11.804  1.00  0.00     0.135 C 
HETATM   42  C25 UNL     1       6.599   1.313  11.654  1.00  0.00     0.040 C 
HETATM   43  C26 UNL     1       5.722   2.211  10.769  1.00  0.00     0.127 C 
HETATM   44  N7  UNL     1       4.406   2.249  11.416  1.00  0.00    -0.354 N 
HETATM   45  C27 UNL     1       3.882   3.592  11.412  1.00  0.00     0.184 C 
HETATM   46  C28 UNL     1       3.605   1.207  12.023  1.00  0.00     0.146 C 
HETATM   47  N8  UNL     1       4.586   4.492  12.011  1.00  0.00    -0.374 N 
HETATM   48  N9  UNL     1       2.655   3.933  10.785  1.00  0.00    -0.064 NA
ATOM     49  H82 UNL     1       5.467   4.247  12.461  1.00  0.00     0.158 HD
ATOM     50  H81 UNL     1       4.216   5.442  12.008  1.00  0.00     0.158 HD
HETATM   51  C29 UNL     1       4.170   0.669  13.290  1.00  0.00     0.153 C 
ENDBRANCH   1  40
TORSDOF 11
ENDMDL
MODEL 2
REMARK VINA RESULT: -8.205171006      2.805      7.872
REMARK  11 active torsions:
REMARK  status: ('A' for Active; 'I' for Inactive)
REMARK    1  A    between atoms: C2_2  and  C3_3 
REMARK    2  A    between atoms: C3_3  and  C5_5 
REMARK    3  A    between atoms: C5_5  and  N1_6 
REMARK    4  A    between atoms: C5_5  and  C30_49 
REMARK       I    between atoms: N1_6  and  C6_8 
REMARK    5  A    between atoms: C6_8  and  C7_10 
REMARK    6  A    between atoms: C7_10  and  N2_12 
REMARK    7  A    between atoms: N2_12  and  S1_14 
REMARK    8  A    between atoms: S1_14  and  C9_16 
REMARK    9  A    between atoms: S1_14  and  N6_37 
REMARK       I    between atoms: C9_16  and  N3_18 
REMARK       I    between atoms: C10_20  and  N4_21 
REMARK       I    between atoms: C10_20  and  N5_29 
REMARK   10  A    between atoms: N4_21  and  C11_23 
REMARK   11  A    between atoms: N5_29  and  C18_31 
REMARK       I    between atoms: N7_41  and  C27_42 
ROOT
HETATM    1  S1  UNL     1       4.401  -5.766  17.460  1.00  0.00     0.194 S 
HETATM    2  O2  UNL     1       4.881  -6.500  19.082  1.00  0.00    -0.218 OA
ENDROOT
BRANCH   1   3
HETATM    3  N2  UNL     1       3.207  -4.787  18.453  1.00  0.00    -0.315 N 
ATOM      4  H2  UNL     1       3.271  -4.818  19.470  1.00  0.00     0.172 HD
BRANCH   3   5
HETATM    5  C7  UNL     1       2.214  -4.000  17.864  1.00  0.00     0.179 C 
HETATM    6  C8  UNL     1       1.911  -2.682  18.551  1.00  0.00     0.043 C 
BRANCH   5   7
HETATM    7  C6  UNL     1       2.484  -3.705  16.414  1.00  0.00     0.241 C 
HETATM    8  N1  UNL     1       3.019  -2.444  16.087  1.00  0.00    -0.346 N 
ATOM      9  H1  UNL     1       3.218  -1.772  16.828  1.00  0.00     0.163 HD
HETATM   10  O1  UNL     1       2.218  -4.597  15.572  1.00  0.00    -0.271 OA
BRANCH   8  11
HETATM   11  C5  UNL     1       3.300  -2.081  14.670  1.00  0.00     0.177 C 
BRANCH  11  12
HETATM   12  C3  UNL     1       4.755  -1.905  14.529  1.00  0.00     0.013 C 
HETATM   13  C4  UNL     1       5.392  -0.809  15.364  1.00  0.00     0.012 C 
BRANCH  12  14
HETATM   14  C2  UNL     1       5.382  -2.055  13.209  1.00  0.00     0.002 C 
HETATM   15  C1  UNL     1       6.485  -1.123  12.845  1.00  0.00     0.005 C 
ENDBRANCH  12  14
ENDBRANCH  11  12
BRANCH  11  16
HETATM   16  C30 UNL     1       2.499  -0.930  14.287  1.00  0.00     0.254 C 
HETATM   17  N10 UNL     1       2.911   0.195  13.529  1.00  0.00    -0.060 NA
HETATM   18  O4  UNL     1       1.265  -0.883  14.650  1.00  0.00    -0.275 OA
ENDBRANCH  11  16
ENDBRANCH   8  11
ENDBRANCH   5   7
ENDBRANCH   3   5
ENDBRANCH   1   3
BRANCH   1  19
HETATM   19  C9  UNL     1       3.697  -7.754  17.185  1.00  0.00     0.353 C 
HETATM   20  O3  UNL     1       3.491  -8.300  18.262  1.00  0.00    -0.254 OA
HETATM   21  N3  UNL     1       3.571  -8.150  15.889  1.00  0.00    -0.146 N 
HETATM   22  C10 UNL     1       3.673  -9.358  15.457  1.00  0.00     0.679 C 
ATOM     23  H3  UNL     1       3.378  -7.425  15.199  1.00  0.00     0.188 HD
HETATM   24  N4  UNL     1       3.499  -9.512  14.064  1.00  0.00    -0.221 N 
HETATM   25  N5  UNL     1       3.923 -10.457  16.284  1.00  0.00    -0.217 N 
ATOM     26  H4  UNL     1       3.150  -8.682  13.583  1.00  0.00     0.178 HD
HETATM   27  C17 UNL     1       2.832 -11.041  17.085  1.00  0.00     0.169 C 
BRANCH  24  28
HETATM   28  C11 UNL     1       3.731 -10.640  13.219  1.00  0.00     0.099 C 
HETATM   29  C12 UNL     1       2.840 -11.771  13.586  1.00  0.00     0.026 C 
HETATM   30  C13 UNL     1       2.380 -12.685  12.515  1.00  0.00     0.002 C 
HETATM   31  C14 UNL     1       2.185 -12.107  11.156  1.00  0.00     0.000 C 
HETATM   32  C15 UNL     1       3.442 -11.328  10.821  1.00  0.00     0.002 C 
HETATM   33  C16 UNL     1       3.484 -10.183  11.785  1.00  0.00     0.026 C 
ENDBRANCH  24  28
BRANCH  25  34
HETATM   34  C18 UNL     1       5.209 -11.063  16.398  1.00  0.00     0.101 C 
HETATM   35  C19 UNL     1       5.127 -12.584  16.388  1.00  0.00     0.026 C 
HETATM   36  C20 UNL     1       6.513 -13.128  16.575  1.00  0.00     0.002 C 
HETATM   37  C21 UNL     1       7.576 -12.077  16.452  1.00  0.00     0.000 C 
HETATM   38  C22 UNL     1       7.381 -11.043  17.511  1.00  0.00     0.002 C 
HETATM   39  C23 UNL     1       5.904 -10.646  17.660  1.00  0.00     0.026 C 
ENDBRANCH  25  34
ENDBRANCH   1  19
BRANCH   1  40
HETATM   40  N6  UNL     1       6.056  -5.478  17.061  1.00  0.00    -0.318 N 
HETATM   41  C24 UNL     1       6.658  -4.157  17.060  1.00  0.00     0.135 C 
HETATM   42  C25 UNL     1       7.412  -3.847  15.786  1.00  0.00     0.040 C 
HETATM   43  C26 UNL     1       8.895  -3.819  16.179  1.00  0.00     0.127 C 
HETATM   44  N7  UNL     1       9.156  -5.097  16.851  1.00  0.00    -0.354 N 
HETATM   45  C27 UNL     1      10.410  -5.652  16.405  1.00  0.00     0.184 C 
HETATM   46  C28 UNL     1       8.391  -5.839  17.830  1.00  0.00     0.146 C 
HETATM   47  N8  UNL     1      10.521  -5.898  15.144  1.00  0.00    -0.374 N 
HETATM   48  N9  UNL     1      11.485  -5.923  17.291  1.00  0.00    -0.064 NA
ATOM     49  H82 UNL     1       9.748  -5.703  14.508  1.00  0.00     0.158 HD
ATOM     50  H81 UNL     1      11.408  -6.291  14.828  1.00  0.00     0.158 HD
HETATM   51  C29 UNL     1       7.129  -6.420  17.300  1.00  0.00     0.153 C 
ENDBRANCH   1  40
TORSDOF 11
ENDMDL
MODEL 3
REMARK VINA RESULT: -8.151497607      2.797      7.951
REMARK  11 active torsions:
REMARK  status: ('A' for Active; 'I' for Inactive)
REMARK    1  A    between atoms: C2_2  and  C3_3 
REMARK    2  A    between atoms: C3_3  and  C5_5 
REMARK    3  A    between atoms: C5_5  and  N1_6 
REMARK    4  A    between atoms: C5_5  and  C30_49 
REMARK       I    between atoms: N1_6  and  C6_8 
REMARK    5  A    between atoms: C6_8  and  C7_10 
REMARK    6  A    between atoms: C7_10  and  N2_12 
REMARK    7  A    between atoms: N2_12  and  S1_14 
REMARK    8  A    between atoms: S1_14  and  C9_16 
REMARK    9  A    between atoms: S1_14  and  N6_37 
REMARK       I    between atoms: C9_16  and  N3_18 
REMARK       I    between atoms: C10_20  and  N4_21 
REMARK       I    between atoms: C10_20  and  N5_29 
REMARK   10  A    between atoms: N4_21  and  C11_23 
REMARK   11  A    between atoms: N5_29  and  C18_31 
REMARK       I    between atoms: N7_41  and  C27_42 
ROOT
HETATM    1  S1  UNL     1       4.401  -5.756  17.354  1.00  0.00     0.194 S 
HETATM    2  O2  UNL     1       4.852  -6.424  19.012  1.00  0.00    -0.218 OA
ENDROOT
BRANCH   1   3
HETATM    3  N2  UNL     1       3.194  -4.735  18.287  1.00  0.00    -0.315 N 
ATOM      4  H2  UNL     1       3.099  -4.880  19.292  1.00  0.00     0.172 HD
BRANCH   3   5
HETATM    5  C7  UNL     1       2.400  -3.766  17.668  1.00  0.00     0.179 C 
HETATM    6  C8  UNL     1       1.464  -2.990  18.574  1.00  0.00     0.043 C 
BRANCH   5   7
HETATM    7  C6  UNL     1       3.202  -2.766  16.880  1.00  0.00     0.241 C 
HETATM    8  N1  UNL     1       2.784  -2.475  15.567  1.00  0.00    -0.346 N 
ATOM      9  H1  UNL     1       1.956  -2.934  15.187  1.00  0.00     0.163 HD
HETATM   10  O1  UNL     1       4.199  -2.243  17.434  1.00  0.00    -0.271 OA
BRANCH   8  11
HETATM   11  C5  UNL     1       3.537  -1.503  14.727  1.00  0.00     0.177 C 
BRANCH  11  12
HETATM   12  C3  UNL     1       2.559  -0.732  13.941  1.00  0.00     0.013 C 
HETATM   13  C4  UNL     1       3.040   0.581  13.354  1.00  0.00     0.012 C 
BRANCH  12  14
HETATM   14  C2  UNL     1       1.155  -0.685  14.371  1.00  0.00     0.002 C 
HETATM   15  C1  UNL     1       0.152  -0.111  13.432  1.00  0.00     0.005 C 
ENDBRANCH  12  14
ENDBRANCH  11  12
BRANCH  11  16
HETATM   16  C30 UNL     1       4.543  -2.201  13.945  1.00  0.00     0.254 C 
HETATM   17  N10 UNL     1       5.605  -1.633  13.198  1.00  0.00    -0.060 NA
HETATM   18  O4  UNL     1       4.512  -3.488  13.899  1.00  0.00    -0.275 OA
ENDBRANCH  11  16
ENDBRANCH   8  11
ENDBRANCH   5   7
ENDBRANCH   3   5
ENDBRANCH   1   3
BRANCH   1  19
HETATM   19  C9  UNL     1       3.697  -7.752  17.150  1.00  0.00     0.353 C 
HETATM   20  O3  UNL     1       3.503  -8.265  18.245  1.00  0.00    -0.254 OA
HETATM   21  N3  UNL     1       3.557  -8.189  15.868  1.00  0.00    -0.146 N 
HETATM   22  C10 UNL     1       3.656  -9.410  15.473  1.00  0.00     0.679 C 
ATOM     23  H3  UNL     1       3.356  -7.486  15.157  1.00  0.00     0.188 HD
HETATM   24  N4  UNL     1       3.468  -9.607  14.087  1.00  0.00    -0.221 N 
HETATM   25  N5  UNL     1       3.916 -10.482  16.331  1.00  0.00    -0.217 N 
ATOM     26  H4  UNL     1       3.113  -8.794  13.584  1.00  0.00     0.178 HD
HETATM   27  C17 UNL     1       2.835 -11.041  17.161  1.00  0.00     0.169 C 
BRANCH  24  28
HETATM   28  C11 UNL     1       3.693 -10.761  13.276  1.00  0.00     0.099 C 
HETATM   29  C12 UNL     1       2.791 -11.874  13.673  1.00  0.00     0.026 C 
HETATM   30  C13 UNL     1       2.326 -12.814  12.626  1.00  0.00     0.002 C 
HETATM   31  C14 UNL     1       2.139 -12.273  11.251  1.00  0.00     0.000 C 
HETATM   32  C15 UNL     1       3.405 -11.515  10.897  1.00  0.00     0.002 C 
HETATM   33  C16 UNL     1       3.453 -10.344  11.829  1.00  0.00     0.026 C 
ENDBRANCH  24  28
BRANCH  25  34
HETATM   34  C18 UNL     1       5.205 -11.082  16.451  1.00  0.00     0.101 C 
HETATM   35  C19 UNL     1       5.138 -12.602  16.353  1.00  0.00     0.026 C 
HETATM   36  C20 UNL     1       6.523 -13.144  16.551  1.00  0.00     0.002 C 
HETATM   37  C21 UNL     1       7.579 -12.078  16.520  1.00  0.00     0.000 C 
HETATM   38  C22 UNL     1       7.342 -11.108  17.629  1.00  0.00     0.002 C 
HETATM   39  C23 UNL     1       5.857 -10.732  17.755  1.00  0.00     0.026 C 
ENDBRANCH  25  34
ENDBRANCH   1  19
BRANCH   1  40
HETATM   40  N6  UNL     1       6.063  -5.487  16.971  1.00  0.00    -0.318 N 
HETATM   41  C24 UNL     1       6.697  -4.183  17.040  1.00  0.00     0.135 C 
HETATM   42  C25 UNL     1       7.460  -3.824  15.784  1.00  0.00     0.040 C 
HETATM   43  C26 UNL     1       8.943  -3.853  16.179  1.00  0.00     0.127 C 
HETATM   44  N7  UNL     1       9.172  -5.171  16.781  1.00  0.00    -0.354 N 
HETATM   45  C27 UNL     1      10.413  -5.732  16.307  1.00  0.00     0.184 C 
HETATM   46  C28 UNL     1       8.388  -5.945  17.720  1.00  0.00     0.146 C 
HETATM   47  N8  UNL     1      10.519  -5.914  15.034  1.00  0.00    -0.374 N 
HETATM   48  N9  UNL     1      11.480  -6.076  17.177  1.00  0.00    -0.064 NA
ATOM     49  H82 UNL     1       9.752  -5.667  14.409  1.00  0.00     0.158 HD
ATOM     50  H81 UNL     1      11.397  -6.310  14.698  1.00  0.00     0.158 HD
HETATM   51  C29 UNL     1       7.112  -6.466  17.159  1.00  0.00     0.153 C 
ENDBRANCH   1  40
TORSDOF 11
ENDMDL
MODEL 4
REMARK VINA RESULT: -8.002870730      2.447      6.928
REMARK  11 active torsions:
REMARK  status: ('A' for Active; 'I' for Inactive)
REMARK    1  A    between atoms: C2_2  and  C3_3 
REMARK    2  A    between atoms: C3_3  and  C5_5 
REMARK    3  A    between atoms: C5_5  and  N1_6 
REMARK    4  A    between atoms: C5_5  and  C30_49 
REMARK       I    between atoms: N1_6  and  C6_8 
REMARK    5  A    between atoms: C6_8  and  C7_10 
REMARK    6  A    between atoms: C7_10  and  N2_12 
REMARK    7  A    between atoms: N2_12  and  S1_14 
REMARK    8  A    between atoms: S1_14  and  C9_16 
REMARK    9  A    between atoms: S1_14  and  N6_37 
REMARK       I    between atoms: C9_16  and  N3_18 
REMARK       I    between atoms: C10_20  and  N4_21 
REMARK       I    between atoms: C10_20  and  N5_29 
REMARK   10  A    between atoms: N4_21  and  C11_23 
REMARK   11  A    between atoms: N5_29  and  C18_31 
REMARK       I    between atoms: N7_41  and  C27_42 
ROOT
HETATM    1  S1  UNL     1       5.200  -0.910  13.477  1.00  0.00     0.194 S 
HETATM    2  O2  UNL     1       5.346  -1.779  11.858  1.00  0.00    -0.218 OA
ENDROOT
BRANCH   1   3
HETATM    3  N2  UNL     1       6.995  -0.585  13.266  1.00  0.00    -0.315 N 
ATOM      4  H2  UNL     1       7.648  -1.364  13.343  1.00  0.00     0.172 HD
BRANCH   3   5
HETATM    5  C7  UNL     1       7.496   0.693  13.005  1.00  0.00     0.179 C 
HETATM    6  C8  UNL     1       8.961   0.915  13.330  1.00  0.00     0.043 C 
BRANCH   5   7
HETATM    7  C6  UNL     1       7.276   1.130  11.582  1.00  0.00     0.241 C 
HETATM    8  N1  UNL     1       6.722   2.406  11.364  1.00  0.00    -0.346 N 
ATOM      9  H1  UNL     1       6.493   3.000  12.161  1.00  0.00     0.163 HD
HETATM   10  O1  UNL     1       7.598   0.335  10.665  1.00  0.00    -0.271 OA
BRANCH   8  11
HETATM   11  C5  UNL     1       6.467   2.898   9.981  1.00  0.00     0.177 C 
BRANCH  11  12
HETATM   12  C3  UNL     1       7.767   3.221   9.371  1.00  0.00     0.013 C 
HETATM   13  C4  UNL     1       8.554   4.354  10.004  1.00  0.00     0.012 C 
BRANCH  12  14
HETATM   14  C2  UNL     1       7.919   3.166   7.910  1.00  0.00     0.002 C 
HETATM   15  C1  UNL     1       7.159   2.126   7.164  1.00  0.00     0.005 C 
ENDBRANCH  12  14
ENDBRANCH  11  12
BRANCH  11  16
HETATM   16  C30 UNL     1       5.512   3.993  10.015  1.00  0.00     0.254 C 
HETATM   17  N10 UNL     1       4.666   4.435   8.966  1.00  0.00    -0.060 NA
HETATM   18  O4  UNL     1       5.379   4.668  11.104  1.00  0.00    -0.275 OA
ENDBRANCH  11  16
ENDBRANCH   8  11
ENDBRANCH   5   7
ENDBRANCH   3   5
ENDBRANCH   1   3
BRANCH   1  19
HETATM   19  C9  UNL     1       4.870  -2.914  14.106  1.00  0.00     0.353 C 
HETATM   20  O3  UNL     1       3.795  -3.334  13.693  1.00  0.00    -0.254 OA
HETATM   21  N3  UNL     1       5.863  -3.456  14.863  1.00  0.00    -0.146 N 
HETATM   22  C10 UNL     1       5.717  -4.373  15.754  1.00  0.00     0.679 C 
ATOM     23  H3  UNL     1       6.807  -3.102  14.712  1.00  0.00     0.188 HD
HETATM   24  N4  UNL     1       6.905  -4.770  16.406  1.00  0.00    -0.221 N 
HETATM   25  N5  UNL     1       4.487  -4.962  16.064  1.00  0.00    -0.217 N 
ATOM     26  H4  UNL     1       7.762  -4.409  15.987  1.00  0.00     0.178 HD
HETATM   27  C17 UNL     1       3.922  -5.998  15.181  1.00  0.00     0.169 C 
BRANCH  24  28
HETATM   28  C11 UNL     1       7.102  -5.594  17.555  1.00  0.00     0.099 C 
HETATM   29  C12 UNL     1       6.446  -6.916  17.380  1.00  0.00     0.026 C 
HETATM   30  C13 UNL     1       7.067  -8.103  18.013  1.00  0.00     0.002 C 
HETATM   31  C14 UNL     1       8.551  -8.116  18.142  1.00  0.00     0.000 C 
HETATM   32  C15 UNL     1       8.953  -6.790  18.760  1.00  0.00     0.002 C 
HETATM   33  C16 UNL     1       8.608  -5.744  17.745  1.00  0.00     0.026 C 
ENDBRANCH  24  28
BRANCH  25  34
HETATM   34  C18 UNL     1       3.728  -4.607  17.218  1.00  0.00     0.101 C 
HETATM   35  C19 UNL     1       3.075  -5.822  17.868  1.00  0.00     0.026 C 
HETATM   36  C20 UNL     1       2.253  -5.344  19.028  1.00  0.00     0.002 C 
HETATM   37  C21 UNL     1       2.509  -3.908  19.376  1.00  0.00     0.000 C 
HETATM   38  C22 UNL     1       2.145  -3.041  18.217  1.00  0.00     0.002 C 
HETATM   39  C23 UNL     1       2.646  -3.623  16.886  1.00  0.00     0.026 C 
ENDBRANCH  25  34
ENDBRANCH   1  19
BRANCH   1  40
HETATM   40  N6  UNL     1       3.814  -0.042  12.926  1.00  0.00    -0.318 N 
HETATM   41  C24 UNL     1       2.664   0.242  13.767  1.00  0.00     0.135 C 
HETATM   42  C25 UNL     1       1.349  -0.140  13.126  1.00  0.00     0.040 C 
HETATM   43  C26 UNL     1       0.639   1.185  12.815  1.00  0.00     0.127 C 
HETATM   44  N7  UNL     1       1.594   1.976  12.030  1.00  0.00    -0.354 N 
HETATM   45  C27 UNL     1       0.926   2.618  10.925  1.00  0.00     0.184 C 
HETATM   46  C28 UNL     1       3.017   2.192  12.186  1.00  0.00     0.146 C 
HETATM   47  N8  UNL     1       0.337   1.848  10.074  1.00  0.00    -0.374 N 
HETATM   48  N9  UNL     1       0.903   4.028  10.760  1.00  0.00    -0.064 NA
ATOM     49  H82 UNL     1       0.354   0.835  10.194  1.00  0.00     0.158 HD
ATOM     50  H81 UNL     1      -0.136   2.302   9.293  1.00  0.00     0.158 HD
HETATM   51  C29 UNL     1       3.847   0.989  11.911  1.00  0.00     0.153 C 
ENDBRANCH   1  40
TORSDOF 11
ENDMDL
MODEL 5
REMARK VINA RESULT: -8.001565949      3.160      7.768
REMARK  11 active torsions:
REMARK  status: ('A' for Active; 'I' for Inactive)
REMARK    1  A    between atoms: C2_2  and  C3_3 
REMARK    2  A    between atoms: C3_3  and  C5_5 
REMARK    3  A    between atoms: C5_5  and  N1_6 
REMARK    4  A    between atoms: C5_5  and  C30_49 
REMARK       I    between atoms: N1_6  and  C6_8 
REMARK    5  A    between atoms: C6_8  and  C7_10 
REMARK    6  A    between atoms: C7_10  and  N2_12 
REMARK    7  A    between atoms: N2_12  and  S1_14 
REMARK    8  A    between atoms: S1_14  and  C9_16 
REMARK    9  A    between atoms: S1_14  and  N6_37 
REMARK       I    between atoms: C9_16  and  N3_18 
REMARK       I    between atoms: C10_20  and  N4_21 
REMARK       I    between atoms: C10_20  and  N5_29 
REMARK   10  A    between atoms: N4_21  and  C11_23 
REMARK   11  A    between atoms: N5_29  and  C18_31 
REMARK       I    between atoms: N7_41  and  C27_42 
ROOT
HETATM    1  S1  UNL     1       3.921  -6.116  16.770  1.00  0.00     0.194 S 
HETATM    2  O2  UNL     1       4.219  -6.743  18.477  1.00  0.00    -0.218 OA
ENDROOT
BRANCH   1   3
HETATM    3  N2  UNL     1       2.439  -5.322  17.506  1.00  0.00    -0.315 N 
ATOM      4  H2  UNL     1       1.818  -5.884  18.089  1.00  0.00     0.172 HD
BRANCH   3   5
HETATM    5  C7  UNL     1       2.131  -3.976  17.297  1.00  0.00     0.179 C 
HETATM    6  C8  UNL     1       2.648  -3.002  18.339  1.00  0.00     0.043 C 
BRANCH   5   7
HETATM    7  C6  UNL     1       2.573  -3.475  15.949  1.00  0.00     0.241 C 
HETATM    8  N1  UNL     1       2.948  -2.122  15.840  1.00  0.00    -0.346 N 
ATOM      9  H1  UNL     1       2.919  -1.522  16.664  1.00  0.00     0.163 HD
HETATM   10  O1  UNL     1       2.587  -4.289  14.994  1.00  0.00    -0.271 OA
BRANCH   8  11
HETATM   11  C5  UNL     1       3.386  -1.557  14.533  1.00  0.00     0.177 C 
BRANCH  11  12
HETATM   12  C3  UNL     1       4.737  -1.001  14.713  1.00  0.00     0.013 C 
HETATM   13  C4  UNL     1       4.842   0.293  15.499  1.00  0.00     0.012 C 
BRANCH  12  14
HETATM   14  C2  UNL     1       5.710  -1.082  13.615  1.00  0.00     0.002 C 
HETATM   15  C1  UNL     1       5.445  -2.047  12.512  1.00  0.00     0.005 C 
ENDBRANCH  12  14
ENDBRANCH  11  12
BRANCH  11  16
HETATM   16  C30 UNL     1       2.392  -0.617  14.043  1.00  0.00     0.254 C 
HETATM   17  N10 UNL     1       2.543   0.339  13.008  1.00  0.00    -0.060 NA
HETATM   18  O4  UNL     1       1.219  -0.618  14.577  1.00  0.00    -0.275 OA
ENDBRANCH  11  16
ENDBRANCH   8  11
ENDBRANCH   5   7
ENDBRANCH   3   5
ENDBRANCH   1   3
BRANCH   1  19
HETATM   19  C9  UNL     1       3.586  -8.192  16.461  1.00  0.00     0.353 C 
HETATM   20  O3  UNL     1       2.410  -8.414  16.197  1.00  0.00    -0.254 OA
HETATM   21  N3  UNL     1       4.687  -8.983  16.591  1.00  0.00    -0.146 N 
HETATM   22  C10 UNL     1       4.689 -10.217  16.958  1.00  0.00     0.679 C 
ATOM     23  H3  UNL     1       5.590  -8.560  16.380  1.00  0.00     0.188 HD
HETATM   24  N4  UNL     1       5.964 -10.822  17.016  1.00  0.00    -0.221 N 
HETATM   25  N5  UNL     1       3.530 -10.934  17.270  1.00  0.00    -0.217 N 
ATOM     26  H4  UNL     1       6.717 -10.270  16.604  1.00  0.00     0.178 HD
HETATM   27  C17 UNL     1       2.674 -11.457  16.190  1.00  0.00     0.169 C 
BRANCH  24  28
HETATM   28  C11 UNL     1       6.371 -12.080  17.556  1.00  0.00     0.099 C 
HETATM   29  C12 UNL     1       6.127 -13.178  16.584  1.00  0.00     0.026 C 
HETATM   30  C13 UNL     1       7.053 -14.335  16.579  1.00  0.00     0.002 C 
HETATM   31  C14 UNL     1       8.475 -14.078  16.941  1.00  0.00     0.000 C 
HETATM   32  C15 UNL     1       8.467 -13.285  18.234  1.00  0.00     0.002 C 
HETATM   33  C16 UNL     1       7.852 -11.962  17.899  1.00  0.00     0.026 C 
ENDBRANCH  24  28
BRANCH  25  34
HETATM   34  C18 UNL     1       3.118 -11.195  18.610  1.00  0.00     0.101 C 
HETATM   35  C19 UNL     1       3.196 -12.678  18.952  1.00  0.00     0.026 C 
HETATM   36  C20 UNL     1       2.687 -12.861  20.352  1.00  0.00     0.002 C 
HETATM   37  C21 UNL     1       2.510 -11.565  21.085  1.00  0.00     0.000 C 
HETATM   38  C22 UNL     1       1.501 -10.724  20.376  1.00  0.00     0.002 C 
HETATM   39  C23 UNL     1       1.711 -10.737  18.854  1.00  0.00     0.026 C 
ENDBRANCH  25  34
ENDBRANCH   1  19
BRANCH   1  40
HETATM   40  N6  UNL     1       5.557  -5.577  16.645  1.00  0.00    -0.318 N 
HETATM   41  C24 UNL     1       5.932  -4.176  16.570  1.00  0.00     0.135 C 
HETATM   42  C25 UNL     1       6.872  -3.872  15.425  1.00  0.00     0.040 C 
HETATM   43  C26 UNL     1       8.221  -3.534  16.076  1.00  0.00     0.127 C 
HETATM   44  N7  UNL     1       8.536  -4.666  16.955  1.00  0.00    -0.354 N 
HETATM   45  C27 UNL     1       9.926  -5.029  16.828  1.00  0.00     0.184 C 
HETATM   46  C28 UNL     1       7.713  -5.426  17.871  1.00  0.00     0.146 C 
HETATM   47  N8  UNL     1      10.329  -5.383  15.655  1.00  0.00    -0.374 N 
HETATM   48  N9  UNL     1      10.826  -5.006  17.925  1.00  0.00    -0.064 NA
ATOM     49  H82 UNL     1       9.682  -5.400  14.867  1.00  0.00     0.158 HD
ATOM     50  H81 UNL     1      11.312  -5.640  15.565  1.00  0.00     0.158 HD
HETATM   51  C29 UNL     1       6.692  -6.278  17.204  1.00  0.00     0.153 C 
ENDBRANCH   1  40
TORSDOF 11
ENDMDL
