MODEL 1
REMARK VINA RESULT: -8.508337504      0.000      0.000
REMARK  4 active torsions:
REMARK  status: ('A' for Active; 'I' for Inactive)
REMARK    1  A    between atoms: N1_1  and  C1_4 
REMARK    2  A    between atoms: C4_10  and  N3_11 
REMARK    3  A    between atoms: N5_16  and  C5_17 
REMARK    4  A    between atoms: N6_21  and  C8_22 
ROOT
HETATM    1  C1  UNL     1     143.170  69.627  63.603  1.00  0.00     0.680 A 
HETATM    2  N2  UNL     1     143.669  70.265  64.672  1.00  0.00    -0.155 N 
ATOM      3  H2  UNL     1     143.399  71.226  64.883  1.00  0.00     0.187 HD
HETATM    4  C2  UNL     1     144.533  69.606  65.455  1.00  0.00     0.277 A 
HETATM    5  O1  UNL     1     145.023  70.170  66.467  1.00  0.00    -0.266 OA
HETATM    6  C3  UNL     1     144.886  68.313  65.156  1.00  0.00     0.123 A 
HETATM    7  C4  UNL     1     145.714  67.383  65.724  1.00  0.00     0.133 A 
HETATM    8  N4  UNL     1     145.662  66.282  64.986  1.00  0.00    -0.281 N 
ATOM      9  H4  UNL     1     146.188  65.432  65.190  1.00  0.00     0.189 HD
HETATM   10  N5  UNL     1     144.831  66.422  63.935  1.00  0.00    -0.267 N 
HETATM   11  C10 UNL     1     144.362  67.662  64.045  1.00  0.00     0.158 A 
HETATM   12  N7  UNL     1     143.502  68.349  63.285  1.00  0.00    -0.174 N 
ATOM     13  H7  UNL     1     143.092  67.910  62.460  1.00  0.00     0.186 HD
ENDROOT
BRANCH  10  14
HETATM   14  C5  UNL     1     144.630  65.370  63.026  1.00  0.00     0.132 C 
HETATM   15  C6  UNL     1     144.425  65.809  61.568  1.00  0.00     0.057 C 
HETATM   16  C7  UNL     1     144.148  64.624  60.687  1.00  0.00     0.203 C 
HETATM   17  O2  UNL     1     144.401  63.393  61.258  1.00  0.00    -0.276 OA
HETATM   18  N6  UNL     1     143.916  63.206  62.465  1.00  0.00    -0.232 N 
HETATM   19  C9  UNL     1     143.587  64.353  63.295  1.00  0.00     0.186 C 
BRANCH  18  20
HETATM   20  C8  UNL     1     143.698  61.920  62.995  1.00  0.00     0.376 C 
HETATM   21  O3  UNL     1     144.261  61.519  64.059  1.00  0.00    -0.281 OA
ENDBRANCH  18  20
ENDBRANCH  10  14
BRANCH   7  22
HETATM   22  N3  UNL     1     146.400  67.618  66.804  1.00  0.00    -0.384 N 
ATOM     23  H32 UNL     1     146.094  68.035  67.684  1.00  0.00     0.157 HD
ATOM     24  H31 UNL     1     147.390  67.393  66.888  1.00  0.00     0.157 HD
ENDBRANCH   7  22
BRANCH   1  25
HETATM   25  N1  UNL     1     142.338  70.241  62.839  1.00  0.00    -0.234 N 
ATOM     26  H12 UNL     1     141.781  70.992  63.246  1.00  0.00     0.174 HD
ATOM     27  H11 UNL     1     142.263  69.962  61.861  1.00  0.00     0.174 HD
ENDBRANCH   1  25
TORSDOF 4
ENDMDL
MODEL 2
REMARK VINA RESULT: -8.401204875      4.491      8.486
REMARK  4 active torsions:
REMARK  status: ('A' for Active; 'I' for Inactive)
REMARK    1  A    between atoms: N1_1  and  C1_4 
REMARK    2  A    between atoms: C4_10  and  N3_11 
REMARK    3  A    between atoms: N5_16  and  C5_17 
REMARK    4  A    between atoms: N6_21  and  C8_22 
ROOT
HETATM    1  C1  UNL     1     145.300  69.260  65.640  1.00  0.00     0.680 A 
HETATM    2  N2  UNL     1     144.271  69.042  64.807  1.00  0.00    -0.155 N 
ATOM      3  H2  UNL     1     143.905  68.101  64.661  1.00  0.00     0.187 HD
HETATM    4  C2  UNL     1     143.738  70.094  64.172  1.00  0.00     0.277 A 
HETATM    5  O1  UNL     1     142.773  69.931  63.383  1.00  0.00    -0.266 OA
HETATM    6  C3  UNL     1     144.244  71.354  64.380  1.00  0.00     0.123 A 
HETATM    7  C4  UNL     1     143.946  72.603  63.908  1.00  0.00     0.133 A 
HETATM    8  N4  UNL     1     144.786  73.464  64.468  1.00  0.00    -0.281 N 
ATOM      9  H4  UNL     1     144.780  74.468  64.286  1.00  0.00     0.189 HD
HETATM   10  N5  UNL     1     145.647  72.853  65.304  1.00  0.00    -0.267 N 
HETATM   11  C10 UNL     1     145.311  71.567  65.245  1.00  0.00     0.158 A 
HETATM   12  N7  UNL     1     145.819  70.495  65.864  1.00  0.00    -0.174 N 
ATOM     13  H7  UNL     1     146.602  70.605  66.509  1.00  0.00     0.186 HD
ENDROOT
BRANCH  10  14
HETATM   14  C5  UNL     1     146.621  73.585  66.003  1.00  0.00     0.132 C 
HETATM   15  C6  UNL     1     146.456  75.111  65.931  1.00  0.00     0.057 C 
HETATM   16  C7  UNL     1     147.580  75.805  66.646  1.00  0.00     0.203 C 
HETATM   17  O2  UNL     1     148.362  74.993  67.444  1.00  0.00    -0.276 OA
HETATM   18  N6  UNL     1     148.772  73.870  66.899  1.00  0.00    -0.232 N 
HETATM   19  C9  UNL     1     148.058  73.319  65.758  1.00  0.00     0.186 C 
BRANCH  18  20
HETATM   20  C8  UNL     1     149.892  73.167  67.382  1.00  0.00     0.376 C 
HETATM   21  O3  UNL     1     150.406  72.192  66.753  1.00  0.00    -0.281 OA
ENDBRANCH  18  20
ENDBRANCH  10  14
BRANCH   7  22
HETATM   22  N3  UNL     1     142.987  72.823  63.057  1.00  0.00    -0.384 N 
ATOM     23  H32 UNL     1     142.003  72.560  63.112  1.00  0.00     0.157 HD
ATOM     24  H31 UNL     1     143.133  73.321  62.180  1.00  0.00     0.157 HD
ENDBRANCH   7  22
BRANCH   1  25
HETATM   25  N1  UNL     1     145.825  68.265  66.260  1.00  0.00    -0.234 N 
ATOM     26  H12 UNL     1     146.819  68.084  66.118  1.00  0.00     0.174 HD
ATOM     27  H11 UNL     1     145.239  67.693  66.869  1.00  0.00     0.174 HD
ENDBRANCH   1  25
TORSDOF 4
ENDMDL
MODEL 3
REMARK VINA RESULT: -8.230607446      4.736      8.654
REMARK  4 active torsions:
REMARK  status: ('A' for Active; 'I' for Inactive)
REMARK    1  A    between atoms: N1_1  and  C1_4 
REMARK    2  A    between atoms: C4_10  and  N3_11 
REMARK    3  A    between atoms: N5_16  and  C5_17 
REMARK    4  A    between atoms: N6_21  and  C8_22 
ROOT
HETATM    1  C1  UNL     1     145.797  68.858  66.038  1.00  0.00     0.680 A 
HETATM    2  N2  UNL     1     144.659  69.056  65.355  1.00  0.00    -0.155 N 
ATOM      3  H2  UNL     1     144.023  68.282  65.160  1.00  0.00     0.187 HD
HETATM    4  C2  UNL     1     144.380  70.297  64.936  1.00  0.00     0.277 A 
HETATM    5  O1  UNL     1     143.324  70.523  64.293  1.00  0.00    -0.266 OA
HETATM    6  C3  UNL     1     145.248  71.327  65.207  1.00  0.00     0.123 A 
HETATM    7  C4  UNL     1     145.269  72.668  64.935  1.00  0.00     0.133 A 
HETATM    8  N4  UNL     1     146.380  73.175  65.453  1.00  0.00    -0.281 N 
ATOM      9  H4  UNL     1     146.642  74.159  65.392  1.00  0.00     0.189 HD
HETATM   10  N5  UNL     1     147.120  72.233  66.069  1.00  0.00    -0.267 N 
HETATM   11  C10 UNL     1     146.425  71.110  65.915  1.00  0.00     0.158 A 
HETATM   12  N7  UNL     1     146.671  69.858  66.319  1.00  0.00    -0.174 N 
ATOM     13  H7  UNL     1     147.522  69.654  66.843  1.00  0.00     0.186 HD
ENDROOT
BRANCH  10  14
HETATM   14  C5  UNL     1     148.338  72.560  66.688  1.00  0.00     0.132 C 
HETATM   15  C6  UNL     1     148.236  72.867  68.190  1.00  0.00     0.057 C 
HETATM   16  C7  UNL     1     149.573  73.273  68.744  1.00  0.00     0.203 C 
HETATM   17  O2  UNL     1     150.652  73.031  67.917  1.00  0.00    -0.276 OA
HETATM   18  N6  UNL     1     150.522  73.421  66.669  1.00  0.00    -0.232 N 
HETATM   19  C9  UNL     1     149.194  73.624  66.112  1.00  0.00     0.186 C 
BRANCH  18  20
HETATM   20  C8  UNL     1     151.633  73.653  65.836  1.00  0.00     0.376 C 
HETATM   21  O3  UNL     1     152.405  72.720  65.456  1.00  0.00    -0.281 OA
ENDBRANCH  18  20
ENDBRANCH  10  14
BRANCH   7  22
HETATM   22  N3  UNL     1     144.321  73.266  64.274  1.00  0.00    -0.384 N 
ATOM     23  H32 UNL     1     143.592  73.892  64.617  1.00  0.00     0.157 HD
ATOM     24  H31 UNL     1     144.201  73.161  63.267  1.00  0.00     0.157 HD
ENDBRANCH   7  22
BRANCH   1  25
HETATM   25  N1  UNL     1     146.082  67.675  66.450  1.00  0.00    -0.234 N 
ATOM     26  H12 UNL     1     146.119  66.925  65.760  1.00  0.00     0.174 HD
ATOM     27  H11 UNL     1     146.262  67.524  67.443  1.00  0.00     0.174 HD
ENDBRANCH   1  25
TORSDOF 4
ENDMDL
MODEL 4
REMARK VINA RESULT: -8.117646248      3.524      7.404
REMARK  4 active torsions:
REMARK  status: ('A' for Active; 'I' for Inactive)
REMARK    1  A    between atoms: N1_1  and  C1_4 
REMARK    2  A    between atoms: C4_10  and  N3_11 
REMARK    3  A    between atoms: N5_16  and  C5_17 
REMARK    4  A    between atoms: N6_21  and  C8_22 
ROOT
HETATM    1  C1  UNL     1     143.349  70.399  63.558  1.00  0.00     0.680 A 
HETATM    2  N2  UNL     1     143.165  69.071  63.573  1.00  0.00    -0.155 N 
ATOM      3  H2  UNL     1     142.447  68.634  62.994  1.00  0.00     0.187 HD
HETATM    4  C2  UNL     1     143.949  68.333  64.369  1.00  0.00     0.277 A 
HETATM    5  O1  UNL     1     143.807  67.084  64.412  1.00  0.00    -0.266 OA
HETATM    6  C3  UNL     1     144.910  68.937  65.142  1.00  0.00     0.123 A 
HETATM    7  C4  UNL     1     145.847  68.497  66.036  1.00  0.00     0.133 A 
HETATM    8  N4  UNL     1     146.513  69.552  66.487  1.00  0.00    -0.281 N 
ATOM      9  H4  UNL     1     147.271  69.501  67.168  1.00  0.00     0.189 HD
HETATM   10  N5  UNL     1     146.068  70.698  65.936  1.00  0.00    -0.267 N 
HETATM   11  C10 UNL     1     145.091  70.316  65.119  1.00  0.00     0.158 A 
HETATM   12  N7  UNL     1     144.291  71.022  64.311  1.00  0.00    -0.174 N 
ATOM     13  H7  UNL     1     144.390  72.037  64.261  1.00  0.00     0.186 HD
ENDROOT
BRANCH  10  14
HETATM   14  C5  UNL     1     146.640  71.935  66.277  1.00  0.00     0.132 C 
HETATM   15  C6  UNL     1     146.383  73.063  65.267  1.00  0.00     0.057 C 
HETATM   16  C7  UNL     1     147.091  74.323  65.681  1.00  0.00     0.203 C 
HETATM   17  O2  UNL     1     147.581  74.327  66.972  1.00  0.00    -0.276 OA
HETATM   18  N6  UNL     1     148.262  73.263  67.334  1.00  0.00    -0.232 N 
HETATM   19  C9  UNL     1     148.081  72.012  66.615  1.00  0.00     0.186 C 
BRANCH  18  20
HETATM   20  C8  UNL     1     149.174  73.285  68.406  1.00  0.00     0.376 C 
HETATM   21  O3  UNL     1     150.213  72.558  68.430  1.00  0.00    -0.281 OA
ENDBRANCH  18  20
ENDBRANCH  10  14
BRANCH   7  22
HETATM   22  N3  UNL     1     145.995  67.240  66.337  1.00  0.00    -0.384 N 
ATOM     23  H32 UNL     1     145.784  66.757  67.211  1.00  0.00     0.157 HD
ATOM     24  H31 UNL     1     146.367  66.556  65.679  1.00  0.00     0.157 HD
ENDBRANCH   7  22
BRANCH   1  25
HETATM   25  N1  UNL     1     142.608  71.126  62.800  1.00  0.00    -0.234 N 
ATOM     26  H12 UNL     1     141.619  70.884  62.725  1.00  0.00     0.174 HD
ATOM     27  H11 UNL     1     143.025  71.913  62.303  1.00  0.00     0.174 HD
ENDBRANCH   1  25
TORSDOF 4
ENDMDL
MODEL 5
REMARK VINA RESULT: -7.877756333      4.542      8.016
REMARK  4 active torsions:
REMARK  status: ('A' for Active; 'I' for Inactive)
REMARK    1  A    between atoms: N1_1  and  C1_4 
REMARK    2  A    between atoms: C4_10  and  N3_11 
REMARK    3  A    between atoms: N5_16  and  C5_17 
REMARK    4  A    between atoms: N6_21  and  C8_22 
ROOT
HETATM    1  C1  UNL     1     143.303  72.744  63.405  1.00  0.00     0.680 A 
HETATM    2  N2  UNL     1     142.805  71.526  63.145  1.00  0.00    -0.155 N 
ATOM      3  H2  UNL     1     142.039  71.403  62.483  1.00  0.00     0.187 HD
HETATM    4  C2  UNL     1     143.341  70.475  63.778  1.00  0.00     0.277 A 
HETATM    5  O1  UNL     1     142.901  69.317  63.561  1.00  0.00    -0.266 OA
HETATM    6  C3  UNL     1     144.372  70.658  64.667  1.00  0.00     0.123 A 
HETATM    7  C4  UNL     1     145.122  69.832  65.459  1.00  0.00     0.133 A 
HETATM    8  N4  UNL     1     145.994  70.579  66.123  1.00  0.00    -0.281 N 
ATOM      9  H4  UNL     1     146.676  70.209  66.786  1.00  0.00     0.189 HD
HETATM   10  N5  UNL     1     145.870  71.884  65.816  1.00  0.00    -0.267 N 
HETATM   11  C10 UNL     1     144.880  71.926  64.930  1.00  0.00     0.158 A 
HETATM   12  N7  UNL     1     144.322  72.953  64.279  1.00  0.00    -0.174 N 
ATOM     13  H7  UNL     1     144.664  73.900  64.440  1.00  0.00     0.186 HD
ENDROOT
BRANCH  10  14
HETATM   14  C5  UNL     1     146.702  72.850  66.409  1.00  0.00     0.132 C 
HETATM   15  C6  UNL     1     146.780  74.184  65.653  1.00  0.00     0.057 C 
HETATM   16  C7  UNL     1     147.744  75.122  66.323  1.00  0.00     0.203 C 
HETATM   17  O2  UNL     1     148.147  74.748  67.590  1.00  0.00    -0.276 OA
HETATM   18  N6  UNL     1     148.531  73.500  67.729  1.00  0.00    -0.232 N 
HETATM   19  C9  UNL     1     148.097  72.500  66.765  1.00  0.00     0.186 C 
BRANCH  18  20
HETATM   20  C8  UNL     1     149.359  73.083  68.789  1.00  0.00     0.376 C 
HETATM   21  O3  UNL     1     150.470  72.501  68.595  1.00  0.00    -0.281 OA
ENDBRANCH  18  20
ENDBRANCH  10  14
BRANCH   7  22
HETATM   22  N3  UNL     1     144.946  68.543  65.496  1.00  0.00    -0.384 N 
ATOM     23  H32 UNL     1     144.385  67.987  66.142  1.00  0.00     0.157 HD
ATOM     24  H31 UNL     1     145.385  67.908  64.830  1.00  0.00     0.157 HD
ENDBRANCH   7  22
BRANCH   1  25
HETATM   25  N1  UNL     1     142.804  73.766  62.807  1.00  0.00    -0.234 N 
ATOM     26  H12 UNL     1     141.918  73.646  62.315  1.00  0.00     0.174 HD
ATOM     27  H11 UNL     1     143.303  74.655  62.842  1.00  0.00     0.174 HD
ENDBRANCH   1  25
TORSDOF 4
ENDMDL
