MODEL 1
REMARK VINA RESULT: -4.208637230      0.000      0.000
REMARK  4 active torsions:
REMARK  status: ('A' for Active; 'I' for Inactive)
REMARK    1  A    between atoms: C2_5  and  N3_6 
REMARK    2  A    between atoms: N3_6  and  C3_8 
REMARK    3  A    between atoms: C3_8  and  C4_9 
REMARK    4  A    between atoms: C4_9  and  N4_10 
ROOT
HETATM    1  C1  UNL     1      13.073   2.145   6.241  1.00  0.00     0.198 C 
HETATM    2  N1  UNL     1      11.936   2.764   5.576  1.00  0.00    -0.114 N 
HETATM    3  N2  UNL     1      10.684   2.344   5.500  1.00  0.00    -0.116 N 
ATOM      4  H2  UNL     1      10.333   1.483   5.921  1.00  0.00     0.206 HD
HETATM    5  C2  UNL     1       9.934   3.214   4.786  1.00  0.00     0.707 A 
HETATM    6  N5  UNL     1      10.771   4.210   4.412  1.00  0.00    -0.020 N 
ATOM      7  H5  UNL     1      10.520   5.030   3.860  1.00  0.00     0.203 HD
HETATM    8  C5  UNL     1      12.000   3.926   4.901  1.00  0.00     0.707 A 
HETATM    9  N6  UNL     1      13.070   4.667   4.738  1.00  0.00    -0.233 N 
ATOM     10  H61 UNL     1      13.119   5.547   4.226  1.00  0.00     0.174 HD
ATOM     11  H62 UNL     1      13.997   4.452   5.107  1.00  0.00     0.174 HD
ENDROOT
BRANCH   5  12
HETATM   12  N3  UNL     1       8.666   3.090   4.530  1.00  0.00    -0.223 N 
ATOM     13  H3  UNL     1       7.978   3.701   4.972  1.00  0.00     0.177 HD
BRANCH  12  14
HETATM   14  C3  UNL     1       8.258   2.063   3.604  1.00  0.00     0.165 C 
BRANCH  14  15
HETATM   15  C4  UNL     1       6.806   2.198   3.214  1.00  0.00     0.249 C 
BRANCH  15  16
HETATM   16  N4  UNL     1       6.107   3.162   4.028  1.00  0.00    -0.078 N 
ATOM     17  H43 UNL     1       6.170   2.924   5.018  1.00  0.00     0.274 HD
ATOM     18  H42 UNL     1       6.599   4.056   4.043  1.00  0.00     0.274 HD
ATOM     19  H41 UNL     1       5.136   3.281   3.740  1.00  0.00     0.274 HD
ENDBRANCH  15  16
ENDBRANCH  14  15
ENDBRANCH  12  14
ENDBRANCH   5  12
TORSDOF 4
ENDMDL
MODEL 2
REMARK VINA RESULT: -4.203754178      0.802      1.661
REMARK  4 active torsions:
REMARK  status: ('A' for Active; 'I' for Inactive)
REMARK    1  A    between atoms: C2_5  and  N3_6 
REMARK    2  A    between atoms: N3_6  and  C3_8 
REMARK    3  A    between atoms: C3_8  and  C4_9 
REMARK    4  A    between atoms: C4_9  and  N4_10 
ROOT
HETATM    1  C1  UNL     1      13.198   4.809   4.541  1.00  0.00     0.198 C 
HETATM    2  N1  UNL     1      12.010   3.999   4.770  1.00  0.00    -0.114 N 
HETATM    3  N2  UNL     1      10.775   4.189   4.337  1.00  0.00    -0.116 N 
ATOM      4  H2  UNL     1      10.477   4.971   3.754  1.00  0.00     0.206 HD
HETATM    5  C2  UNL     1       9.961   3.201   4.775  1.00  0.00     0.707 A 
HETATM    6  N5  UNL     1      10.741   2.372   5.509  1.00  0.00    -0.020 N 
ATOM      7  H5  UNL     1      10.434   1.523   5.984  1.00  0.00     0.203 HD
HETATM    8  C5  UNL     1      11.999   2.870   5.502  1.00  0.00     0.707 A 
HETATM    9  N6  UNL     1      13.029   2.333   6.110  1.00  0.00    -0.233 N 
ATOM     10  H61 UNL     1      13.020   1.478   6.665  1.00  0.00     0.174 HD
ATOM     11  H62 UNL     1      13.978   2.709   6.104  1.00  0.00     0.174 HD
ENDROOT
BRANCH   5  12
HETATM   12  N3  UNL     1       8.690   3.097   4.523  1.00  0.00    -0.223 N 
ATOM     13  H3  UNL     1       8.018   3.741   4.941  1.00  0.00     0.177 HD
BRANCH  12  14
HETATM   14  C3  UNL     1       8.258   2.047   3.636  1.00  0.00     0.165 C 
BRANCH  14  15
HETATM   15  C4  UNL     1       6.811   2.205   3.236  1.00  0.00     0.249 C 
BRANCH  15  16
HETATM   16  N4  UNL     1       6.128   3.197   4.029  1.00  0.00    -0.078 N 
ATOM     17  H43 UNL     1       5.139   3.251   3.782  1.00  0.00     0.274 HD
ATOM     18  H42 UNL     1       6.038   2.895   5.000  1.00  0.00     0.274 HD
ATOM     19  H41 UNL     1       6.571   4.114   3.970  1.00  0.00     0.274 HD
ENDBRANCH  15  16
ENDBRANCH  14  15
ENDBRANCH  12  14
ENDBRANCH   5  12
TORSDOF 4
ENDMDL
MODEL 3
REMARK VINA RESULT: -4.062692875      1.359      4.662
REMARK  4 active torsions:
REMARK  status: ('A' for Active; 'I' for Inactive)
REMARK    1  A    between atoms: C2_5  and  N3_6 
REMARK    2  A    between atoms: N3_6  and  C3_8 
REMARK    3  A    between atoms: C3_8  and  C4_9 
REMARK    4  A    between atoms: C4_9  and  N4_10 
ROOT
HETATM    1  C1  UNL     1       7.460   0.481   2.360  1.00  0.00     0.198 C 
HETATM    2  N1  UNL     1       8.132   1.362   3.303  1.00  0.00    -0.114 N 
HETATM    3  N2  UNL     1       9.352   1.269   3.807  1.00  0.00    -0.116 N 
ATOM      4  H2  UNL     1      10.017   0.527   3.588  1.00  0.00     0.206 HD
HETATM    5  C2  UNL     1       9.595   2.296   4.654  1.00  0.00     0.707 A 
HETATM    6  N5  UNL     1       8.469   3.047   4.664  1.00  0.00    -0.020 N 
ATOM      7  H5  UNL     1       8.321   3.900   5.203  1.00  0.00     0.203 HD
HETATM    8  C5  UNL     1       7.574   2.466   3.831  1.00  0.00     0.707 A 
HETATM    9  N6  UNL     1       6.366   2.914   3.586  1.00  0.00    -0.233 N 
ATOM     10  H61 UNL     1       5.943   3.751   3.987  1.00  0.00     0.174 HD
ATOM     11  H62 UNL     1       5.692   2.476   2.959  1.00  0.00     0.174 HD
ENDROOT
BRANCH   5  12
HETATM   12  N3  UNL     1      10.700   2.492   5.311  1.00  0.00    -0.223 N 
ATOM     13  H3  UNL     1      11.241   1.707   5.674  1.00  0.00     0.177 HD
BRANCH  12  14
HETATM   14  C3  UNL     1      11.137   3.851   5.510  1.00  0.00     0.165 C 
BRANCH  14  15
HETATM   15  C4  UNL     1      11.888   4.384   4.314  1.00  0.00     0.249 C 
BRANCH  15  16
HETATM   16  N4  UNL     1      11.135   5.382   3.595  1.00  0.00    -0.078 N 
ATOM     17  H43 UNL     1      10.616   4.966   2.822  1.00  0.00     0.274 HD
ATOM     18  H42 UNL     1      10.352   5.724   4.153  1.00  0.00     0.274 HD
ATOM     19  H41 UNL     1      11.721   6.152   3.273  1.00  0.00     0.274 HD
ENDBRANCH  15  16
ENDBRANCH  14  15
ENDBRANCH  12  14
ENDBRANCH   5  12
TORSDOF 4
ENDMDL
MODEL 4
REMARK VINA RESULT: -4.049964928      2.360      3.032
REMARK  4 active torsions:
REMARK  status: ('A' for Active; 'I' for Inactive)
REMARK    1  A    between atoms: C2_5  and  N3_6 
REMARK    2  A    between atoms: N3_6  and  C3_8 
REMARK    3  A    between atoms: C3_8  and  C4_9 
REMARK    4  A    between atoms: C4_9  and  N4_10 
ROOT
HETATM    1  C1  UNL     1      11.309   1.220   5.016  1.00  0.00     0.198 C 
HETATM    2  N1  UNL     1      10.041   1.722   4.508  1.00  0.00    -0.114 N 
HETATM    3  N2  UNL     1       9.187   1.144   3.680  1.00  0.00    -0.116 N 
ATOM      4  H2  UNL     1       9.312   0.220   3.267  1.00  0.00     0.206 HD
HETATM    5  C2  UNL     1       8.123   1.949   3.457  1.00  0.00     0.707 A 
HETATM    6  N5  UNL     1       8.343   3.069   4.185  1.00  0.00    -0.020 N 
ATOM      7  H5  UNL     1       7.727   3.880   4.239  1.00  0.00     0.203 HD
HETATM    8  C5  UNL     1       9.524   2.922   4.827  1.00  0.00     0.707 A 
HETATM    9  N6  UNL     1      10.067   3.809   5.627  1.00  0.00    -0.233 N 
ATOM     10  H61 UNL     1       9.675   4.719   5.870  1.00  0.00     0.174 HD
ATOM     11  H62 UNL     1      10.958   3.698   6.112  1.00  0.00     0.174 HD
ENDROOT
BRANCH   5  12
HETATM   12  N3  UNL     1       7.109   1.673   2.691  1.00  0.00    -0.223 N 
ATOM     13  H3  UNL     1       6.359   2.349   2.548  1.00  0.00     0.177 HD
BRANCH  12  14
HETATM   14  C3  UNL     1       7.076   0.382   2.051  1.00  0.00     0.165 C 
BRANCH  14  15
HETATM   15  C4  UNL     1       6.894   0.497   0.557  1.00  0.00     0.249 C 
BRANCH  15  16
HETATM   16  N4  UNL     1       8.127   0.808  -0.123  1.00  0.00    -0.078 N 
ATOM     17  H43 UNL     1       8.902   0.885   0.536  1.00  0.00     0.274 HD
ATOM     18  H42 UNL     1       8.457   0.012  -0.671  1.00  0.00     0.274 HD
ATOM     19  H41 UNL     1       8.052   1.646  -0.700  1.00  0.00     0.274 HD
ENDBRANCH  15  16
ENDBRANCH  14  15
ENDBRANCH  12  14
ENDBRANCH   5  12
TORSDOF 4
ENDMDL
MODEL 5
REMARK VINA RESULT: -3.920827999      1.449      4.849
REMARK  4 active torsions:
REMARK  status: ('A' for Active; 'I' for Inactive)
REMARK    1  A    between atoms: C2_5  and  N3_6 
REMARK    2  A    between atoms: N3_6  and  C3_8 
REMARK    3  A    between atoms: C3_8  and  C4_9 
REMARK    4  A    between atoms: C4_9  and  N4_10 
ROOT
HETATM    1  C1  UNL     1       8.043   0.245   2.692  1.00  0.00     0.198 C 
HETATM    2  N1  UNL     1       8.576   1.307   3.533  1.00  0.00    -0.114 N 
HETATM    3  N2  UNL     1       9.763   1.398   4.108  1.00  0.00    -0.116 N 
ATOM      4  H2  UNL     1      10.501   0.699   4.033  1.00  0.00     0.206 HD
HETATM    5  C2  UNL     1       9.863   2.551   4.811  1.00  0.00     0.707 A 
HETATM    6  N5  UNL     1       8.679   3.188   4.653  1.00  0.00    -0.020 N 
ATOM      7  H5  UNL     1       8.424   4.090   5.056  1.00  0.00     0.203 HD
HETATM    8  C5  UNL     1       7.893   2.417   3.867  1.00  0.00     0.707 A 
HETATM    9  N6  UNL     1       6.669   2.712   3.498  1.00  0.00    -0.233 N 
ATOM     10  H61 UNL     1       6.152   3.553   3.751  1.00  0.00     0.174 HD
ATOM     11  H62 UNL     1       6.077   2.130   2.905  1.00  0.00     0.174 HD
ENDROOT
BRANCH   5  12
HETATM   12  N3  UNL     1      10.901   2.938   5.489  1.00  0.00    -0.223 N 
ATOM     13  H3  UNL     1      10.849   3.740   6.118  1.00  0.00     0.177 HD
BRANCH  12  14
HETATM   14  C3  UNL     1      12.130   2.202   5.327  1.00  0.00     0.165 C 
BRANCH  14  15
HETATM   15  C4  UNL     1      12.763   1.860   6.655  1.00  0.00     0.249 C 
BRANCH  15  16
HETATM   16  N4  UNL     1      12.062   0.803   7.340  1.00  0.00    -0.078 N 
ATOM     17  H43 UNL     1      12.290   0.794   8.335  1.00  0.00     0.274 HD
ATOM     18  H42 UNL     1      11.063   1.003   7.403  1.00  0.00     0.274 HD
ATOM     19  H41 UNL     1      12.228  -0.110   6.917  1.00  0.00     0.274 HD
ENDBRANCH  15  16
ENDBRANCH  14  15
ENDBRANCH  12  14
ENDBRANCH   5  12
TORSDOF 4
ENDMDL
