MODEL 1
REMARK VINA RESULT: -7.688181469      0.000      0.000
REMARK  7 active torsions:
REMARK  status: ('A' for Active; 'I' for Inactive)
REMARK    1  A    between atoms: C2_2  and  C5_5 
REMARK    2  A    between atoms: C5_5  and  C6_7 
REMARK       I    between atoms: C6_7  and  N1_9 
REMARK    3  A    between atoms: N1_9  and  C7_10 
REMARK    4  A    between atoms: C7_10  and  C8_11 
REMARK    5  A    between atoms: C8_11  and  O3_12 
REMARK    6  A    between atoms: C8_11  and  C9_14 
REMARK    7  A    between atoms: C9_14  and  N2_15 
ROOT
HETATM    1  C8  UNL     1      -7.253  46.368  38.900  1.00  0.00     0.198 C 
ENDROOT
BRANCH   1   2
HETATM    2  C7  UNL     1      -8.200  45.553  37.942  1.00  0.00     0.193 C 
BRANCH   2   3
HETATM    3  N1  UNL     1      -8.694  46.225  36.958  1.00  0.00    -0.378 NA
HETATM    4  C6  UNL     1      -9.258  47.009  35.833  1.00  0.00     0.362 C 
HETATM    5  O2  UNL     1      -9.152  48.190  35.684  1.00  0.00    -0.248 OA
BRANCH   4   6
HETATM    6  C5  UNL     1     -10.001  46.168  34.855  1.00  0.00     0.238 C 
HETATM    7  O1  UNL     1      -9.330  45.812  33.813  1.00  0.00    -0.285 OA
BRANCH   6   8
HETATM    8  C2  UNL     1     -11.403  45.745  35.022  1.00  0.00     0.020 C 
HETATM    9  C1  UNL     1     -12.345  46.794  35.530  1.00  0.00     0.023 C 
HETATM   10  C3  UNL     1     -11.919  45.353  33.627  1.00  0.00     0.023 C 
HETATM   11  C4  UNL     1     -11.414  44.482  35.850  1.00  0.00     0.023 C 
ENDBRANCH   6   8
ENDBRANCH   4   6
ENDBRANCH   2   3
ENDBRANCH   1   2
BRANCH   1  12
HETATM   12  O3  UNL     1      -6.010  45.840  38.722  1.00  0.00    -0.388 OA
ATOM     13  H3  UNL     1      -5.724  45.565  39.585  1.00  0.00     0.210 HD
ENDBRANCH   1  12
BRANCH   1  14
HETATM   14  C9  UNL     1      -7.743  46.202  40.309  1.00  0.00     0.310 C 
BRANCH  14  15
HETATM   15  N2  UNL     1      -7.805  47.475  40.949  1.00  0.00     0.091 N 
HETATM   16  C10 UNL     1      -6.587  48.014  41.422  1.00  0.00     0.273 C 
HETATM   17  C11 UNL     1      -6.470  49.471  41.587  1.00  0.00     0.039 C 
HETATM   18  C12 UNL     1      -7.714  50.233  41.745  1.00  0.00    -0.037 C 
HETATM   19  C13 UNL     1      -8.097  50.432  43.213  1.00  0.00     0.010 C 
HETATM   20  C16 UNL     1      -7.455  51.667  41.211  1.00  0.00     0.010 C 
HETATM   21  C17 UNL     1      -8.851  49.689  40.963  1.00  0.00     0.039 C 
HETATM   22  C14 UNL     1      -7.318  51.681  43.560  1.00  0.00     0.001 C 
HETATM   23  C15 UNL     1      -7.667  52.577  42.395  1.00  0.00     0.001 C 
HETATM   24  C18 UNL     1      -8.610  48.428  40.208  1.00  0.00     0.273 C 
ENDBRANCH  14  15
ENDBRANCH   1  14
TORSDOF 7
ENDMDL
MODEL 2
REMARK VINA RESULT: -7.403873110      2.629      8.351
REMARK  7 active torsions:
REMARK  status: ('A' for Active; 'I' for Inactive)
REMARK    1  A    between atoms: C2_2  and  C5_5 
REMARK    2  A    between atoms: C5_5  and  C6_7 
REMARK       I    between atoms: C6_7  and  N1_9 
REMARK    3  A    between atoms: N1_9  and  C7_10 
REMARK    4  A    between atoms: C7_10  and  C8_11 
REMARK    5  A    between atoms: C8_11  and  O3_12 
REMARK    6  A    between atoms: C8_11  and  C9_14 
REMARK    7  A    between atoms: C9_14  and  N2_15 
ROOT
HETATM    1  C8  UNL     1     -10.253  49.991  38.239  1.00  0.00     0.198 C 
ENDROOT
BRANCH   1   2
HETATM    2  C7  UNL     1      -9.983  49.563  39.728  1.00  0.00     0.193 C 
BRANCH   2   3
HETATM    3  N1  UNL     1      -8.763  49.695  40.124  1.00  0.00    -0.378 NA
HETATM    4  C6  UNL     1      -7.355  49.843  40.568  1.00  0.00     0.362 C 
HETATM    5  O2  UNL     1      -6.388  49.681  39.884  1.00  0.00    -0.248 OA
BRANCH   4   6
HETATM    6  C5  UNL     1      -7.236  50.231  41.999  1.00  0.00     0.238 C 
HETATM    7  O1  UNL     1      -6.649  49.367  42.757  1.00  0.00    -0.285 OA
BRANCH   6   8
HETATM    8  C2  UNL     1      -7.735  51.500  42.559  1.00  0.00     0.020 C 
HETATM    9  C1  UNL     1      -8.273  52.484  41.566  1.00  0.00     0.023 C 
HETATM   10  C3  UNL     1      -8.911  51.146  43.484  1.00  0.00     0.023 C 
HETATM   11  C4  UNL     1      -6.655  52.076  43.444  1.00  0.00     0.023 C 
ENDBRANCH   6   8
ENDBRANCH   4   6
ENDBRANCH   2   3
ENDBRANCH   1   2
BRANCH   1  12
HETATM   12  O3  UNL     1     -10.474  51.335  38.278  1.00  0.00    -0.388 OA
ATOM     13  H3  UNL     1     -10.766  51.571  37.406  1.00  0.00     0.210 HD
ENDBRANCH   1  12
BRANCH   1  14
HETATM   14  C9  UNL     1     -11.448  49.236  37.734  1.00  0.00     0.310 C 
BRANCH  14  15
HETATM   15  N2  UNL     1     -11.020  48.049  37.068  1.00  0.00     0.091 N 
HETATM   16  C10 UNL     1     -11.971  47.390  36.258  1.00  0.00     0.273 C 
HETATM   17  C11 UNL     1     -11.499  46.528  35.163  1.00  0.00     0.039 C 
HETATM   18  C12 UNL     1     -10.136  45.995  35.266  1.00  0.00    -0.037 C 
HETATM   19  C13 UNL     1     -10.094  44.615  35.924  1.00  0.00     0.010 C 
HETATM   20  C16 UNL     1      -9.618  45.755  33.822  1.00  0.00     0.010 C 
HETATM   21  C17 UNL     1      -9.177  46.927  35.909  1.00  0.00     0.039 C 
HETATM   22  C14 UNL     1     -10.332  43.708  34.738  1.00  0.00     0.001 C 
HETATM   23  C15 UNL     1      -9.351  44.273  33.736  1.00  0.00     0.001 C 
HETATM   24  C18 UNL     1      -9.728  48.210  36.428  1.00  0.00     0.273 C 
ENDBRANCH  14  15
ENDBRANCH   1  14
TORSDOF 7
ENDMDL
MODEL 3
REMARK VINA RESULT: -7.363401869      2.315      3.139
REMARK  7 active torsions:
REMARK  status: ('A' for Active; 'I' for Inactive)
REMARK    1  A    between atoms: C2_2  and  C5_5 
REMARK    2  A    between atoms: C5_5  and  C6_7 
REMARK       I    between atoms: C6_7  and  N1_9 
REMARK    3  A    between atoms: N1_9  and  C7_10 
REMARK    4  A    between atoms: C7_10  and  C8_11 
REMARK    5  A    between atoms: C8_11  and  O3_12 
REMARK    6  A    between atoms: C8_11  and  C9_14 
REMARK    7  A    between atoms: C9_14  and  N2_15 
ROOT
HETATM    1  C8  UNL     1     -10.387  49.422  38.348  1.00  0.00     0.198 C 
ENDROOT
BRANCH   1   2
HETATM    2  C7  UNL     1      -9.707  49.415  36.929  1.00  0.00     0.193 C 
BRANCH   2   3
HETATM    3  N1  UNL     1      -9.942  48.368  36.213  1.00  0.00    -0.378 NA
HETATM    4  C6  UNL     1     -10.200  47.165  35.386  1.00  0.00     0.362 C 
HETATM    5  O2  UNL     1      -9.373  46.533  34.797  1.00  0.00    -0.248 OA
BRANCH   4   6
HETATM    6  C5  UNL     1     -11.637  46.784  35.347  1.00  0.00     0.238 C 
HETATM    7  O1  UNL     1     -12.464  47.716  35.684  1.00  0.00    -0.285 OA
BRANCH   6   8
HETATM    8  C2  UNL     1     -12.132  45.452  34.957  1.00  0.00     0.020 C 
HETATM    9  C1  UNL     1     -11.743  44.321  35.859  1.00  0.00     0.023 C 
HETATM   10  C3  UNL     1     -13.669  45.517  35.001  1.00  0.00     0.023 C 
HETATM   11  C4  UNL     1     -11.756  45.218  33.513  1.00  0.00     0.023 C 
ENDBRANCH   6   8
ENDBRANCH   4   6
ENDBRANCH   2   3
ENDBRANCH   1   2
BRANCH   1  12
HETATM   12  O3  UNL     1     -11.620  48.871  38.166  1.00  0.00    -0.388 OA
ATOM     13  H3  UNL     1     -12.128  49.127  38.926  1.00  0.00     0.210 HD
ENDBRANCH   1  12
BRANCH   1  14
HETATM   14  C9  UNL     1     -10.467  50.840  38.832  1.00  0.00     0.310 C 
BRANCH  14  15
HETATM   15  N2  UNL     1      -9.846  50.946  40.112  1.00  0.00     0.091 N 
HETATM   16  C10 UNL     1      -8.983  49.894  40.495  1.00  0.00     0.273 C 
HETATM   17  C11 UNL     1      -7.933  50.160  41.490  1.00  0.00     0.039 C 
HETATM   18  C12 UNL     1      -8.131  51.304  42.388  1.00  0.00    -0.037 C 
HETATM   19  C13 UNL     1      -8.809  50.907  43.701  1.00  0.00     0.010 C 
HETATM   20  C16 UNL     1      -6.728  51.813  42.812  1.00  0.00     0.010 C 
HETATM   21  C17 UNL     1      -8.824  52.451  41.752  1.00  0.00     0.039 C 
HETATM   22  C14 UNL     1      -7.622  50.487  44.538  1.00  0.00     0.001 C 
HETATM   23  C15 UNL     1      -6.679  51.646  44.310  1.00  0.00     0.001 C 
HETATM   24  C18 UNL     1      -9.289  52.265  40.349  1.00  0.00     0.273 C 
ENDBRANCH  14  15
ENDBRANCH   1  14
TORSDOF 7
ENDMDL
MODEL 4
REMARK VINA RESULT: -7.343257555      0.518      1.390
REMARK  7 active torsions:
REMARK  status: ('A' for Active; 'I' for Inactive)
REMARK    1  A    between atoms: C2_2  and  C5_5 
REMARK    2  A    between atoms: C5_5  and  C6_7 
REMARK       I    between atoms: C6_7  and  N1_9 
REMARK    3  A    between atoms: N1_9  and  C7_10 
REMARK    4  A    between atoms: C7_10  and  C8_11 
REMARK    5  A    between atoms: C8_11  and  O3_12 
REMARK    6  A    between atoms: C8_11  and  C9_14 
REMARK    7  A    between atoms: C9_14  and  N2_15 
ROOT
HETATM    1  C8  UNL     1      -7.033  46.159  38.425  1.00  0.00     0.198 C 
ENDROOT
BRANCH   1   2
HETATM    2  C7  UNL     1      -8.294  45.505  37.748  1.00  0.00     0.193 C 
BRANCH   2   3
HETATM    3  N1  UNL     1      -8.810  46.184  36.781  1.00  0.00    -0.378 NA
HETATM    4  C6  UNL     1      -9.401  46.975  35.674  1.00  0.00     0.362 C 
HETATM    5  O2  UNL     1      -9.346  48.164  35.560  1.00  0.00    -0.248 OA
BRANCH   4   6
HETATM    6  C5  UNL     1     -10.100  46.132  34.667  1.00  0.00     0.238 C 
HETATM    7  O1  UNL     1      -9.409  45.843  33.616  1.00  0.00    -0.285 OA
BRANCH   6   8
HETATM    8  C2  UNL     1     -11.480  45.636  34.813  1.00  0.00     0.020 C 
HETATM    9  C1  UNL     1     -12.468  46.613  35.377  1.00  0.00     0.023 C 
HETATM   10  C3  UNL     1     -11.983  45.295  33.401  1.00  0.00     0.023 C 
HETATM   11  C4  UNL     1     -11.430  44.333  35.575  1.00  0.00     0.023 C 
ENDBRANCH   6   8
ENDBRANCH   4   6
ENDBRANCH   2   3
ENDBRANCH   1   2
BRANCH   1  12
HETATM   12  O3  UNL     1      -5.974  45.390  38.048  1.00  0.00    -0.388 OA
ATOM     13  H3  UNL     1      -5.756  45.669  37.167  1.00  0.00     0.210 HD
ENDBRANCH   1  12
BRANCH   1  14
HETATM   14  C9  UNL     1      -7.234  46.156  39.912  1.00  0.00     0.310 C 
BRANCH  14  15
HETATM   15  N2  UNL     1      -7.295  47.499  40.391  1.00  0.00     0.091 N 
HETATM   16  C10 UNL     1      -8.484  48.217  40.135  1.00  0.00     0.273 C 
HETATM   17  C11 UNL     1      -8.839  49.343  41.012  1.00  0.00     0.039 C 
HETATM   18  C12 UNL     1      -7.752  49.979  41.764  1.00  0.00    -0.037 C 
HETATM   19  C13 UNL     1      -7.152  51.177  41.027  1.00  0.00     0.010 C 
HETATM   20  C16 UNL     1      -8.368  50.584  43.054  1.00  0.00     0.010 C 
HETATM   21  C17 UNL     1      -6.696  49.034  42.202  1.00  0.00     0.039 C 
HETATM   22  C14 UNL     1      -8.073  52.293  41.464  1.00  0.00     0.001 C 
HETATM   23  C15 UNL     1      -8.116  52.068  42.958  1.00  0.00     0.001 C 
HETATM   24  C18 UNL     1      -6.831  47.618  41.761  1.00  0.00     0.273 C 
ENDBRANCH  14  15
ENDBRANCH   1  14
TORSDOF 7
ENDMDL
MODEL 5
REMARK VINA RESULT: -7.333833220      2.865      8.512
REMARK  7 active torsions:
REMARK  status: ('A' for Active; 'I' for Inactive)
REMARK    1  A    between atoms: C2_2  and  C5_5 
REMARK    2  A    between atoms: C5_5  and  C6_7 
REMARK       I    between atoms: C6_7  and  N1_9 
REMARK    3  A    between atoms: N1_9  and  C7_10 
REMARK    4  A    between atoms: C7_10  and  C8_11 
REMARK    5  A    between atoms: C8_11  and  O3_12 
REMARK    6  A    between atoms: C8_11  and  C9_14 
REMARK    7  A    between atoms: C9_14  and  N2_15 
ROOT
HETATM    1  C8  UNL     1     -10.605  49.572  38.837  1.00  0.00     0.198 C 
ENDROOT
BRANCH   1   2
HETATM    2  C7  UNL     1     -10.639  51.125  39.086  1.00  0.00     0.193 C 
BRANCH   2   3
HETATM    3  N1  UNL     1      -9.840  51.551  40.004  1.00  0.00    -0.378 NA
HETATM    4  C6  UNL     1      -8.926  52.053  41.059  1.00  0.00     0.362 C 
HETATM    5  O2  UNL     1      -8.916  53.163  41.501  1.00  0.00    -0.248 OA
BRANCH   4   6
HETATM    6  C5  UNL     1      -7.979  51.015  41.548  1.00  0.00     0.238 C 
HETATM    7  O1  UNL     1      -7.488  50.244  40.638  1.00  0.00    -0.285 OA
BRANCH   6   8
HETATM    8  C2  UNL     1      -7.597  50.842  42.961  1.00  0.00     0.020 C 
HETATM    9  C1  UNL     1      -8.730  50.715  43.933  1.00  0.00     0.023 C 
HETATM   10  C3  UNL     1      -6.813  49.521  43.051  1.00  0.00     0.023 C 
HETATM   11  C4  UNL     1      -6.624  51.940  43.320  1.00  0.00     0.023 C 
ENDBRANCH   6   8
ENDBRANCH   4   6
ENDBRANCH   2   3
ENDBRANCH   1   2
BRANCH   1  12
HETATM   12  O3  UNL     1     -10.084  49.030  39.973  1.00  0.00    -0.388 OA
ATOM     13  H3  UNL     1      -9.481  48.357  39.682  1.00  0.00     0.210 HD
ENDBRANCH   1  12
BRANCH   1  14
HETATM   14  C9  UNL     1      -9.748  49.299  37.636  1.00  0.00     0.310 C 
BRANCH  14  15
HETATM   15  N2  UNL     1     -10.190  48.106  36.991  1.00  0.00     0.091 N 
HETATM   16  C10 UNL     1     -11.549  48.051  36.608  1.00  0.00     0.273 C 
HETATM   17  C11 UNL     1     -11.945  47.151  35.513  1.00  0.00     0.039 C 
HETATM   18  C12 UNL     1     -11.058  46.021  35.216  1.00  0.00    -0.037 C 
HETATM   19  C13 UNL     1     -11.462  44.747  35.961  1.00  0.00     0.010 C 
HETATM   20  C16 UNL     1     -11.237  45.669  33.715  1.00  0.00     0.010 C 
HETATM   21  C17 UNL     1      -9.619  46.324  35.412  1.00  0.00     0.039 C 
HETATM   22  C14 UNL     1     -12.486  44.159  35.018  1.00  0.00     0.001 C 
HETATM   23  C15 UNL     1     -11.756  44.253  33.698  1.00  0.00     0.001 C 
HETATM   24  C18 UNL     1      -9.279  47.670  35.949  1.00  0.00     0.273 C 
ENDBRANCH  14  15
ENDBRANCH   1  14
TORSDOF 7
ENDMDL
