MODEL 1
REMARK VINA RESULT: -7.424459780      0.000      0.000
REMARK  11 active torsions:
REMARK  status: ('A' for Active; 'I' for Inactive)
REMARK       I    between atoms: C1_2  and  N3_4 
REMARK    1  A    between atoms: N3_4  and  N4_6 
REMARK    2  A    between atoms: N4_6  and  C2_8 
REMARK    3  A    between atoms: C2_8  and  C3_9 
REMARK    4  A    between atoms: C2_8  and  C10_22 
REMARK    5  A    between atoms: C3_9  and  N5_10 
REMARK    6  A    between atoms: C10_22  and  C11_25 
REMARK    7  A    between atoms: C11_25  and  C12_28 
REMARK    8  A    between atoms: C12_28  and  O2_29 
REMARK    9  A    between atoms: C12_28  and  C13_31 
REMARK   10  A    between atoms: C13_31  and  O3_32 
REMARK   11  A    between atoms: C13_31  and  C14_34 
ROOT
HETATM    1  C11 UNL     1      -6.372 -11.004   0.491  1.00  0.00     0.341 C 
HETATM    2  F3  UNL     1      -7.355 -11.999   0.317  1.00  0.00    -0.196 F 
HETATM    3  F4  UNL     1      -6.638  -9.945  -0.303  1.00  0.00    -0.196 F 
ENDROOT
BRANCH   1   4
HETATM    4  C10 UNL     1      -6.385 -10.731   1.975  1.00  0.00     0.355 C 
HETATM    5  F1  UNL     1      -7.722 -10.793   2.353  1.00  0.00    -0.192 F 
HETATM    6  F2  UNL     1      -5.641 -11.659   2.678  1.00  0.00    -0.192 F 
BRANCH   4   7
HETATM    7  C2  UNL     1      -5.869  -9.387   2.269  1.00  0.00     0.119 C 
BRANCH   7   8
HETATM    8  N4  UNL     1      -6.440  -8.417   1.639  1.00  0.00    -0.295 N 
ATOM      9  H4  UNL     1      -6.051  -8.208   0.721  1.00  0.00     0.187 HD
BRANCH   8  10
HETATM   10  N3  UNL     1      -7.487  -7.629   2.018  1.00  0.00    -0.276 N 
HETATM   11  C1  UNL     1      -7.422  -6.363   2.228  1.00  0.00     0.215 C 
HETATM   12  N1  UNL     1      -8.572  -5.654   2.615  1.00  0.00    -0.065 NA
HETATM   13  N2  UNL     1      -6.197  -5.685   2.066  1.00  0.00    -0.065 NA
ATOM     14  H3  UNL     1      -8.394  -8.080   2.143  1.00  0.00     0.189 HD
ENDBRANCH   8  10
ENDBRANCH   7   8
BRANCH   7  15
HETATM   15  C3  UNL     1      -4.765  -9.087   3.156  1.00  0.00     0.132 C 
BRANCH  15  16
HETATM   16  N5  UNL     1      -3.445  -9.061   2.619  1.00  0.00    -0.300 N 
HETATM   17  C4  UNL     1      -2.542 -10.050   2.696  1.00  0.00     0.190 A 
HETATM   18  N6  UNL     1      -1.441  -9.658   2.050  1.00  0.00    -0.349 N 
HETATM   19  C5  UNL     1      -1.614  -8.422   1.553  1.00  0.00     0.078 A 
ATOM     20  H6  UNL     1      -0.593 -10.215   1.950  1.00  0.00     0.167 HD
HETATM   21  C6  UNL     1      -0.839  -7.548   0.825  1.00  0.00     0.039 A 
HETATM   22  C9  UNL     1      -2.907  -8.035   1.919  1.00  0.00     0.142 A 
HETATM   23  C7  UNL     1      -1.280  -6.304   0.437  1.00  0.00     0.077 A 
HETATM   24  C8  UNL     1      -2.553  -5.955   0.811  1.00  0.00     0.246 A 
HETATM   25  O1  UNL     1      -2.991  -4.837   0.479  1.00  0.00    -0.268 OA
HETATM   26  N7  UNL     1      -3.324  -6.808   1.528  1.00  0.00    -0.307 N 
ATOM     27  H7  UNL     1      -4.265  -6.510   1.786  1.00  0.00     0.170 HD
ENDBRANCH  15  16
ENDBRANCH   7  15
ENDBRANCH   4   7
ENDBRANCH   1   4
BRANCH   1  28
HETATM   28  C12 UNL     1      -5.054 -11.630   0.075  1.00  0.00     0.230 C 
BRANCH  28  29
HETATM   29  O2  UNL     1      -4.247 -10.610  -0.529  1.00  0.00    -0.387 OA
ATOM     30  H2  UNL     1      -3.487 -11.026  -0.917  1.00  0.00     0.210 HD
ENDBRANCH  28  29
BRANCH  28  31
HETATM   31  C13 UNL     1      -5.162 -12.676  -0.981  1.00  0.00     0.202 C 
BRANCH  31  32
HETATM   32  O3  UNL     1      -5.508 -11.998  -2.166  1.00  0.00    -0.388 OA
ATOM     33  H3  UNL     1      -5.699 -12.672  -2.808  1.00  0.00     0.210 HD
ENDBRANCH  31  32
BRANCH  31  34
HETATM   34  C14 UNL     1      -3.911 -13.502  -1.207  1.00  0.00     0.262 C 
HETATM   35  N8  UNL     1      -3.862 -13.789  -2.588  1.00  0.00    -0.368 N 
HETATM   36  C15 UNL     1      -2.855 -14.616  -3.109  1.00  0.00     0.116 C 
ATOM     37  H8  UNL     1      -4.564 -13.393  -3.213  1.00  0.00     0.161 HD
HETATM   38  C16 UNL     1      -1.539 -13.966  -3.289  1.00  0.00     0.073 A 
HETATM   39  N9  UNL     1      -0.826 -14.387  -4.356  1.00  0.00    -0.306 N 
HETATM   40  C19 UNL     1      -1.036 -12.991  -2.453  1.00  0.00     0.135 A 
HETATM   41  C17 UNL     1       0.379 -13.828  -4.571  1.00  0.00     0.327 A 
ATOM     42  H9  UNL     1      -1.190 -15.107  -4.980  1.00  0.00     0.171 HD
HETATM   43  O4  UNL     1       1.074 -14.211  -5.577  1.00  0.00    -0.247 OA
HETATM   44  N10 UNL     1       0.879 -12.878  -3.762  1.00  0.00    -0.275 N 
HETATM   45  C18 UNL     1       0.209 -12.417  -2.678  1.00  0.00     0.268 A 
ATOM     46  H10 UNL     1       1.798 -12.490  -3.971  1.00  0.00     0.173 HD
HETATM   47  O5  UNL     1       0.643 -11.543  -1.916  1.00  0.00    -0.267 OA
HETATM   48  C20 UNL     1      -1.662 -12.418  -1.260  1.00  0.00     0.303 C 
HETATM   49  O6  UNL     1      -1.147 -11.368  -0.795  1.00  0.00    -0.259 OA
HETATM   50  O7  UNL     1      -2.772 -12.960  -0.625  1.00  0.00    -0.288 OA
ENDBRANCH  31  34
ENDBRANCH  28  31
ENDBRANCH   1  28
TORSDOF 11
ENDMDL
MODEL 2
REMARK VINA RESULT: -7.392263262      7.501     10.918
REMARK  11 active torsions:
REMARK  status: ('A' for Active; 'I' for Inactive)
REMARK       I    between atoms: C1_2  and  N3_4 
REMARK    1  A    between atoms: N3_4  and  N4_6 
REMARK    2  A    between atoms: N4_6  and  C2_8 
REMARK    3  A    between atoms: C2_8  and  C3_9 
REMARK    4  A    between atoms: C2_8  and  C10_22 
REMARK    5  A    between atoms: C3_9  and  N5_10 
REMARK    6  A    between atoms: C10_22  and  C11_25 
REMARK    7  A    between atoms: C11_25  and  C12_28 
REMARK    8  A    between atoms: C12_28  and  O2_29 
REMARK    9  A    between atoms: C12_28  and  C13_31 
REMARK   10  A    between atoms: C13_31  and  O3_32 
REMARK   11  A    between atoms: C13_31  and  C14_34 
ROOT
HETATM    1  C11 UNL     1       3.894  -7.527   3.276  1.00  0.00     0.341 C 
HETATM    2  F3  UNL     1       4.435  -8.794   2.976  1.00  0.00    -0.196 F 
HETATM    3  F4  UNL     1       4.323  -7.116   4.488  1.00  0.00    -0.196 F 
ENDROOT
BRANCH   1   4
HETATM    4  C10 UNL     1       4.305  -6.666   2.107  1.00  0.00     0.355 C 
HETATM    5  F1  UNL     1       3.450  -7.016   1.068  1.00  0.00    -0.192 F 
HETATM    6  F2  UNL     1       4.194  -5.319   2.394  1.00  0.00    -0.192 F 
BRANCH   4   7
HETATM    7  C2  UNL     1       5.688  -6.953   1.702  1.00  0.00     0.119 C 
BRANCH   7   8
HETATM    8  N4  UNL     1       5.859  -7.248   0.458  1.00  0.00    -0.295 N 
ATOM      9  H4  UNL     1       5.036  -7.128  -0.132  1.00  0.00     0.187 HD
BRANCH   8  10
HETATM   10  N3  UNL     1       6.974  -7.697  -0.187  1.00  0.00    -0.276 N 
HETATM   11  C1  UNL     1       7.020  -8.724  -0.957  1.00  0.00     0.215 C 
HETATM   12  N1  UNL     1       8.231  -9.090  -1.569  1.00  0.00    -0.065 NA
HETATM   13  N2  UNL     1       5.854  -9.480  -1.191  1.00  0.00    -0.065 NA
ATOM     14  H3  UNL     1       7.839  -7.175  -0.047  1.00  0.00     0.189 HD
ENDBRANCH   8  10
ENDBRANCH   7   8
BRANCH   7  15
HETATM   15  C3  UNL     1       6.836  -6.970   2.586  1.00  0.00     0.132 C 
BRANCH  15  16
HETATM   16  N5  UNL     1       7.293  -5.738   3.136  1.00  0.00    -0.300 N 
HETATM   17  C4  UNL     1       6.936  -5.221   4.320  1.00  0.00     0.190 A 
HETATM   18  N6  UNL     1       7.597  -4.073   4.489  1.00  0.00    -0.349 N 
HETATM   19  C5  UNL     1       8.382  -3.832   3.426  1.00  0.00     0.078 A 
ATOM     20  H6  UNL     1       7.517  -3.467   5.306  1.00  0.00     0.167 HD
HETATM   21  C6  UNL     1       9.254  -2.831   3.067  1.00  0.00     0.039 A 
HETATM   22  C9  UNL     1       8.188  -4.906   2.551  1.00  0.00     0.142 A 
HETATM   23  C7  UNL     1       9.949  -2.836   1.880  1.00  0.00     0.077 A 
HETATM   24  C8  UNL     1       9.737  -3.903   1.044  1.00  0.00     0.246 A 
HETATM   25  O1  UNL     1      10.349  -3.946  -0.041  1.00  0.00    -0.268 OA
HETATM   26  N7  UNL     1       8.880  -4.894   1.389  1.00  0.00    -0.307 N 
ATOM     27  H7  UNL     1       8.750  -5.670   0.739  1.00  0.00     0.170 HD
ENDBRANCH  15  16
ENDBRANCH   7  15
ENDBRANCH   4   7
ENDBRANCH   1   4
BRANCH   1  28
HETATM   28  C12 UNL     1       2.388  -7.705   3.305  1.00  0.00     0.230 C 
BRANCH  28  29
HETATM   29  O2  UNL     1       1.909  -7.235   4.573  1.00  0.00    -0.387 OA
ATOM     30  H2  UNL     1       1.139  -7.741   4.804  1.00  0.00     0.210 HD
ENDBRANCH  28  29
BRANCH  28  31
HETATM   31  C13 UNL     1       1.922  -9.119   3.246  1.00  0.00     0.202 C 
BRANCH  31  32
HETATM   32  O3  UNL     1       1.855  -9.563   4.581  1.00  0.00    -0.388 OA
ATOM     33  H3  UNL     1       1.193 -10.244   4.597  1.00  0.00     0.210 HD
ENDBRANCH  31  32
BRANCH  31  34
HETATM   34  C14 UNL     1       0.584  -9.333   2.565  1.00  0.00     0.262 C 
HETATM   35  N8  UNL     1      -0.401  -9.228   3.571  1.00  0.00    -0.368 N 
HETATM   36  C15 UNL     1      -1.752  -9.461   3.272  1.00  0.00     0.116 C 
ATOM     37  H8  UNL     1      -0.129  -8.981   4.522  1.00  0.00     0.161 HD
HETATM   38  C16 UNL     1      -2.448  -8.344   2.599  1.00  0.00     0.073 A 
HETATM   39  N9  UNL     1      -3.749  -8.188   2.929  1.00  0.00    -0.306 N 
HETATM   40  C19 UNL     1      -1.851  -7.492   1.693  1.00  0.00     0.135 A 
HETATM   41  C17 UNL     1      -4.432  -7.185   2.350  1.00  0.00     0.327 A 
ATOM     42  H9  UNL     1      -4.199  -8.813   3.599  1.00  0.00     0.171 HD
HETATM   43  O4  UNL     1      -5.668  -7.017   2.647  1.00  0.00    -0.247 OA
HETATM   44  N10 UNL     1      -3.860  -6.350   1.465  1.00  0.00    -0.275 N 
HETATM   45  C18 UNL     1      -2.561  -6.457   1.096  1.00  0.00     0.268 A 
ATOM     46  H10 UNL     1      -4.426  -5.607   1.056  1.00  0.00     0.173 HD
HETATM   47  O5  UNL     1      -2.007  -5.704   0.285  1.00  0.00    -0.267 OA
HETATM   48  C20 UNL     1      -0.466  -7.511   1.219  1.00  0.00     0.303 C 
HETATM   49  O6  UNL     1      -0.064  -6.494   0.593  1.00  0.00    -0.259 OA
HETATM   50  O7  UNL     1       0.412  -8.568   1.419  1.00  0.00    -0.288 OA
ENDBRANCH  31  34
ENDBRANCH  28  31
ENDBRANCH   1  28
TORSDOF 11
ENDMDL
MODEL 3
REMARK VINA RESULT: -7.346443842      7.143     10.764
REMARK  11 active torsions:
REMARK  status: ('A' for Active; 'I' for Inactive)
REMARK       I    between atoms: C1_2  and  N3_4 
REMARK    1  A    between atoms: N3_4  and  N4_6 
REMARK    2  A    between atoms: N4_6  and  C2_8 
REMARK    3  A    between atoms: C2_8  and  C3_9 
REMARK    4  A    between atoms: C2_8  and  C10_22 
REMARK    5  A    between atoms: C3_9  and  N5_10 
REMARK    6  A    between atoms: C10_22  and  C11_25 
REMARK    7  A    between atoms: C11_25  and  C12_28 
REMARK    8  A    between atoms: C12_28  and  O2_29 
REMARK    9  A    between atoms: C12_28  and  C13_31 
REMARK   10  A    between atoms: C13_31  and  O3_32 
REMARK   11  A    between atoms: C13_31  and  C14_34 
ROOT
HETATM    1  C11 UNL     1       4.120  -8.178   1.452  1.00  0.00     0.341 C 
HETATM    2  F3  UNL     1       4.451  -9.540   1.302  1.00  0.00    -0.196 F 
HETATM    3  F4  UNL     1       4.306  -7.795   2.734  1.00  0.00    -0.196 F 
ENDROOT
BRANCH   1   4
HETATM    4  C10 UNL     1       4.975  -7.476   0.427  1.00  0.00     0.355 C 
HETATM    5  F1  UNL     1       4.512  -7.916  -0.808  1.00  0.00    -0.192 F 
HETATM    6  F2  UNL     1       4.872  -6.101   0.521  1.00  0.00    -0.192 F 
BRANCH   4   7
HETATM    7  C2  UNL     1       6.387  -7.857   0.568  1.00  0.00     0.119 C 
BRANCH   7   8
HETATM    8  N4  UNL     1       6.977  -8.238  -0.514  1.00  0.00    -0.295 N 
ATOM      9  H4  UNL     1       6.438  -8.106  -1.370  1.00  0.00     0.187 HD
BRANCH   8  10
HETATM   10  N3  UNL     1       8.212  -8.790  -0.686  1.00  0.00    -0.276 N 
HETATM   11  C1  UNL     1       8.436  -9.991  -1.082  1.00  0.00     0.215 C 
HETATM   12  N1  UNL     1       9.757 -10.450  -1.223  1.00  0.00    -0.065 NA
HETATM   13  N2  UNL     1       7.357 -10.848  -1.379  1.00  0.00    -0.065 NA
ATOM     14  H3  UNL     1       9.021  -8.203  -0.485  1.00  0.00     0.189 HD
ENDBRANCH   8  10
ENDBRANCH   7   8
BRANCH   7  15
HETATM   15  C3  UNL     1       7.131  -7.878   1.811  1.00  0.00     0.132 C 
BRANCH  15  16
HETATM   16  N5  UNL     1       7.865  -6.716   2.187  1.00  0.00    -0.300 N 
HETATM   17  C4  UNL     1       9.189  -6.544   2.064  1.00  0.00     0.190 A 
HETATM   18  N6  UNL     1       9.490  -5.318   2.498  1.00  0.00    -0.349 N 
HETATM   19  C5  UNL     1       8.377  -4.686   2.905  1.00  0.00     0.078 A 
ATOM     20  H6  UNL     1      10.429  -4.919   2.519  1.00  0.00     0.167 HD
HETATM   21  C6  UNL     1       8.098  -3.445   3.431  1.00  0.00     0.039 A 
HETATM   22  C9  UNL     1       7.326  -5.587   2.704  1.00  0.00     0.142 A 
HETATM   23  C7  UNL     1       6.826  -3.046   3.769  1.00  0.00     0.077 A 
HETATM   24  C8  UNL     1       5.818  -3.952   3.560  1.00  0.00     0.246 A 
HETATM   25  O1  UNL     1       4.650  -3.629   3.853  1.00  0.00    -0.268 OA
HETATM   26  N7  UNL     1       6.081  -5.177   3.043  1.00  0.00    -0.307 N 
ATOM     27  H7  UNL     1       5.303  -5.821   2.903  1.00  0.00     0.170 HD
ENDBRANCH  15  16
ENDBRANCH   7  15
ENDBRANCH   4   7
ENDBRANCH   1   4
BRANCH   1  28
HETATM   28  C12 UNL     1       2.650  -8.057   1.096  1.00  0.00     0.230 C 
BRANCH  28  29
HETATM   29  O2  UNL     1       2.125  -6.899   1.762  1.00  0.00    -0.387 OA
ATOM     30  H2  UNL     1       2.292  -6.143   1.213  1.00  0.00     0.210 HD
ENDBRANCH  28  29
BRANCH  28  31
HETATM   31  C13 UNL     1       1.792  -9.173   1.583  1.00  0.00     0.202 C 
BRANCH  31  32
HETATM   32  O3  UNL     1       1.731  -9.034   2.984  1.00  0.00    -0.388 OA
ATOM     33  H3  UNL     1       2.410  -9.599   3.333  1.00  0.00     0.210 HD
ENDBRANCH  31  32
BRANCH  31  34
HETATM   34  C14 UNL     1       0.389  -9.212   1.009  1.00  0.00     0.262 C 
HETATM   35  N8  UNL     1      -0.461  -9.639   2.051  1.00  0.00    -0.368 N 
HETATM   36  C15 UNL     1      -1.826  -9.857   1.812  1.00  0.00     0.116 C 
ATOM     37  H8  UNL     1      -0.081  -9.790   2.985  1.00  0.00     0.161 HD
HETATM   38  C16 UNL     1      -2.657  -8.636   1.755  1.00  0.00     0.073 A 
HETATM   39  N9  UNL     1      -3.910  -8.764   2.244  1.00  0.00    -0.306 N 
HETATM   40  C19 UNL     1      -2.225  -7.427   1.251  1.00  0.00     0.135 A 
HETATM   41  C17 UNL     1      -4.711  -7.683   2.220  1.00  0.00     0.327 A 
ATOM     42  H9  UNL     1      -4.239  -9.654   2.620  1.00  0.00     0.171 HD
HETATM   43  O4  UNL     1      -5.904  -7.780   2.678  1.00  0.00    -0.247 OA
HETATM   44  N10 UNL     1      -4.299  -6.501   1.730  1.00  0.00    -0.275 N 
HETATM   45  C18 UNL     1      -3.055  -6.314   1.228  1.00  0.00     0.268 A 
ATOM     46  H10 UNL     1      -4.949  -5.715   1.736  1.00  0.00     0.173 HD
HETATM   47  O5  UNL     1      -2.648  -5.238   0.771  1.00  0.00    -0.267 OA
HETATM   48  C20 UNL     1      -0.913  -7.107   0.685  1.00  0.00     0.303 C 
HETATM   49  O6  UNL     1      -0.646  -5.887   0.520  1.00  0.00    -0.259 OA
HETATM   50  O7  UNL     1       0.034  -8.057   0.325  1.00  0.00    -0.288 OA
ENDBRANCH  31  34
ENDBRANCH  28  31
ENDBRANCH   1  28
TORSDOF 11
ENDMDL
MODEL 4
REMARK VINA RESULT: -7.310813931      7.451     10.515
REMARK  11 active torsions:
REMARK  status: ('A' for Active; 'I' for Inactive)
REMARK       I    between atoms: C1_2  and  N3_4 
REMARK    1  A    between atoms: N3_4  and  N4_6 
REMARK    2  A    between atoms: N4_6  and  C2_8 
REMARK    3  A    between atoms: C2_8  and  C3_9 
REMARK    4  A    between atoms: C2_8  and  C10_22 
REMARK    5  A    between atoms: C3_9  and  N5_10 
REMARK    6  A    between atoms: C10_22  and  C11_25 
REMARK    7  A    between atoms: C11_25  and  C12_28 
REMARK    8  A    between atoms: C12_28  and  O2_29 
REMARK    9  A    between atoms: C12_28  and  C13_31 
REMARK   10  A    between atoms: C13_31  and  O3_32 
REMARK   11  A    between atoms: C13_31  and  C14_34 
ROOT
HETATM    1  C11 UNL     1       3.939  -8.556   2.487  1.00  0.00     0.341 C 
HETATM    2  F3  UNL     1       3.836  -9.938   2.232  1.00  0.00    -0.196 F 
HETATM    3  F4  UNL     1       4.864  -8.329   3.445  1.00  0.00    -0.196 F 
ENDROOT
BRANCH   1   4
HETATM    4  C10 UNL     1       4.234  -7.955   1.135  1.00  0.00     0.355 C 
HETATM    5  F1  UNL     1       4.988  -8.908   0.460  1.00  0.00    -0.192 F 
HETATM    6  F2  UNL     1       3.078  -7.668   0.434  1.00  0.00    -0.192 F 
BRANCH   4   7
HETATM    7  C2  UNL     1       5.027  -6.725   1.266  1.00  0.00     0.119 C 
BRANCH   7   8
HETATM    8  N4  UNL     1       4.464  -5.761   1.912  1.00  0.00    -0.295 N 
ATOM      9  H4  UNL     1       3.472  -5.892   2.108  1.00  0.00     0.187 HD
BRANCH   8  10
HETATM   10  N3  UNL     1       4.995  -4.591   2.371  1.00  0.00    -0.276 N 
HETATM   11  C1  UNL     1       5.217  -4.314   3.605  1.00  0.00     0.215 C 
HETATM   12  N1  UNL     1       5.771  -3.071   3.958  1.00  0.00    -0.065 NA
HETATM   13  N2  UNL     1       4.909  -5.258   4.605  1.00  0.00    -0.065 NA
ATOM     14  H3  UNL     1       5.236  -3.881   1.679  1.00  0.00     0.189 HD
ENDBRANCH   8  10
ENDBRANCH   7   8
BRANCH   7  15
HETATM   15  C3  UNL     1       6.343  -6.509   0.700  1.00  0.00     0.132 C 
BRANCH  15  16
HETATM   16  N5  UNL     1       7.485  -6.744   1.518  1.00  0.00    -0.300 N 
HETATM   17  C4  UNL     1       7.888  -7.933   1.990  1.00  0.00     0.190 A 
HETATM   18  N6  UNL     1       9.010  -7.744   2.689  1.00  0.00    -0.349 N 
HETATM   19  C5  UNL     1       9.345  -6.443   2.680  1.00  0.00     0.078 A 
ATOM     20  H6  UNL     1       9.535  -8.480   3.161  1.00  0.00     0.167 HD
HETATM   21  C6  UNL     1      10.369  -5.698   3.219  1.00  0.00     0.039 A 
HETATM   22  C9  UNL     1       8.363  -5.796   1.924  1.00  0.00     0.142 A 
HETATM   23  C7  UNL     1      10.472  -4.337   3.048  1.00  0.00     0.077 A 
HETATM   24  C8  UNL     1       9.493  -3.732   2.302  1.00  0.00     0.246 A 
HETATM   25  O1  UNL     1       9.550  -2.500   2.122  1.00  0.00    -0.268 OA
HETATM   26  N7  UNL     1       8.480  -4.457   1.767  1.00  0.00    -0.307 N 
ATOM     27  H7  UNL     1       7.772  -3.969   1.218  1.00  0.00     0.170 HD
ENDBRANCH  15  16
ENDBRANCH   7  15
ENDBRANCH   4   7
ENDBRANCH   1   4
BRANCH   1  28
HETATM   28  C12 UNL     1       2.576  -8.112   2.984  1.00  0.00     0.230 C 
BRANCH  28  29
HETATM   29  O2  UNL     1       2.772  -7.278   4.135  1.00  0.00    -0.387 OA
ATOM     30  H2  UNL     1       3.048  -6.421   3.834  1.00  0.00     0.210 HD
ENDBRANCH  28  29
BRANCH  28  31
HETATM   31  C13 UNL     1       1.701  -9.211   3.480  1.00  0.00     0.202 C 
BRANCH  31  32
HETATM   32  O3  UNL     1       1.454  -8.929   4.838  1.00  0.00    -0.388 OA
ATOM     33  H3  UNL     1       1.083  -9.722   5.206  1.00  0.00     0.210 HD
ENDBRANCH  31  32
BRANCH  31  34
HETATM   34  C14 UNL     1       0.387  -9.377   2.741  1.00  0.00     0.262 C 
HETATM   35  N8  UNL     1      -0.638  -9.178   3.692  1.00  0.00    -0.368 N 
HETATM   36  C15 UNL     1      -1.983  -9.347   3.335  1.00  0.00     0.116 C 
ATOM     37  H8  UNL     1      -0.397  -8.909   4.646  1.00  0.00     0.161 HD
HETATM   38  C16 UNL     1      -2.581  -8.220   2.587  1.00  0.00     0.073 A 
HETATM   39  N9  UNL     1      -3.885  -7.980   2.846  1.00  0.00    -0.306 N 
HETATM   40  C19 UNL     1      -1.894  -7.440   1.682  1.00  0.00     0.135 A 
HETATM   41  C17 UNL     1      -4.481  -6.964   2.196  1.00  0.00     0.327 A 
ATOM     42  H9  UNL     1      -4.402  -8.551   3.515  1.00  0.00     0.171 HD
HETATM   43  O4  UNL     1      -5.718  -6.716   2.425  1.00  0.00    -0.247 OA
HETATM   44  N10 UNL     1      -3.820  -6.198   1.311  1.00  0.00    -0.275 N 
HETATM   45  C18 UNL     1      -2.514  -6.392   1.012  1.00  0.00     0.268 A 
ATOM     46  H10 UNL     1      -4.322  -5.442   0.847  1.00  0.00     0.173 HD
HETATM   47  O5  UNL     1      -1.879  -5.703   0.202  1.00  0.00    -0.267 OA
HETATM   48  C20 UNL     1      -0.491  -7.554   1.278  1.00  0.00     0.303 C 
HETATM   49  O6  UNL     1      -0.002  -6.588   0.636  1.00  0.00    -0.259 OA
HETATM   50  O7  UNL     1       0.315  -8.650   1.561  1.00  0.00    -0.288 OA
ENDBRANCH  31  34
ENDBRANCH  28  31
ENDBRANCH   1  28
TORSDOF 11
ENDMDL
MODEL 5
REMARK VINA RESULT: -7.180096757      1.621      2.266
REMARK  11 active torsions:
REMARK  status: ('A' for Active; 'I' for Inactive)
REMARK       I    between atoms: C1_2  and  N3_4 
REMARK    1  A    between atoms: N3_4  and  N4_6 
REMARK    2  A    between atoms: N4_6  and  C2_8 
REMARK    3  A    between atoms: C2_8  and  C3_9 
REMARK    4  A    between atoms: C2_8  and  C10_22 
REMARK    5  A    between atoms: C3_9  and  N5_10 
REMARK    6  A    between atoms: C10_22  and  C11_25 
REMARK    7  A    between atoms: C11_25  and  C12_28 
REMARK    8  A    between atoms: C12_28  and  O2_29 
REMARK    9  A    between atoms: C12_28  and  C13_31 
REMARK   10  A    between atoms: C13_31  and  O3_32 
REMARK   11  A    between atoms: C13_31  and  C14_34 
ROOT
HETATM    1  C11 UNL     1      -5.256 -11.178   0.635  1.00  0.00     0.341 C 
HETATM    2  F3  UNL     1      -6.197 -12.173   0.970  1.00  0.00    -0.196 F 
HETATM    3  F4  UNL     1      -5.852  -9.967   0.604  1.00  0.00    -0.196 F 
ENDROOT
BRANCH   1   4
HETATM    4  C10 UNL     1      -4.163 -11.345   1.662  1.00  0.00     0.355 C 
HETATM    5  F1  UNL     1      -4.142 -12.702   1.966  1.00  0.00    -0.192 F 
HETATM    6  F2  UNL     1      -2.933 -10.938   1.179  1.00  0.00    -0.192 F 
BRANCH   4   7
HETATM    7  C2  UNL     1      -4.468 -10.588   2.883  1.00  0.00     0.119 C 
BRANCH   7   8
HETATM    8  N4  UNL     1      -5.480 -11.006   3.564  1.00  0.00    -0.295 N 
ATOM      9  H4  UNL     1      -5.772 -11.962   3.364  1.00  0.00     0.187 HD
BRANCH   8  10
HETATM   10  N3  UNL     1      -6.220 -10.361   4.512  1.00  0.00    -0.276 N 
HETATM   11  C1  UNL     1      -7.374  -9.832   4.316  1.00  0.00     0.215 C 
HETATM   12  N1  UNL     1      -8.043  -9.192   5.373  1.00  0.00    -0.065 NA
HETATM   13  N2  UNL     1      -7.971  -9.898   3.041  1.00  0.00    -0.065 NA
ATOM     14  H3  UNL     1      -5.825 -10.294   5.450  1.00  0.00     0.189 HD
ENDBRANCH   8  10
ENDBRANCH   7   8
BRANCH   7  15
HETATM   15  C3  UNL     1      -3.758  -9.411   3.341  1.00  0.00     0.132 C 
BRANCH  15  16
HETATM   16  N5  UNL     1      -3.946  -8.185   2.639  1.00  0.00    -0.300 N 
HETATM   17  C4  UNL     1      -5.077  -7.465   2.596  1.00  0.00     0.190 A 
HETATM   18  N6  UNL     1      -4.846  -6.374   1.863  1.00  0.00    -0.349 N 
HETATM   19  C5  UNL     1      -3.576  -6.372   1.425  1.00  0.00     0.078 A 
ATOM     20  H6  UNL     1      -5.534  -5.647   1.664  1.00  0.00     0.167 HD
HETATM   21  C6  UNL     1      -2.813  -5.525   0.654  1.00  0.00     0.039 A 
HETATM   22  C9  UNL     1      -2.993  -7.540   1.926  1.00  0.00     0.142 A 
HETATM   23  C7  UNL     1      -1.495  -5.775   0.351  1.00  0.00     0.077 A 
HETATM   24  C8  UNL     1      -0.953  -6.929   0.858  1.00  0.00     0.246 A 
HETATM   25  O1  UNL     1       0.239  -7.192   0.607  1.00  0.00    -0.268 OA
HETATM   26  N7  UNL     1      -1.696  -7.769   1.618  1.00  0.00    -0.307 N 
ATOM     27  H7  UNL     1      -1.254  -8.617   1.975  1.00  0.00     0.170 HD
ENDBRANCH  15  16
ENDBRANCH   7  15
ENDBRANCH   4   7
ENDBRANCH   1   4
BRANCH   1  28
HETATM   28  C12 UNL     1      -4.745 -11.527  -0.751  1.00  0.00     0.230 C 
BRANCH  28  29
HETATM   29  O2  UNL     1      -5.477 -10.744  -1.705  1.00  0.00    -0.387 OA
ATOM     30  H2  UNL     1      -4.928 -10.016  -1.972  1.00  0.00     0.210 HD
ENDBRANCH  28  29
BRANCH  28  31
HETATM   31  C13 UNL     1      -4.991 -12.934  -1.174  1.00  0.00     0.202 C 
BRANCH  31  32
HETATM   32  O3  UNL     1      -5.787 -12.858  -2.334  1.00  0.00    -0.388 OA
ATOM     33  H3  UNL     1      -6.436 -13.547  -2.252  1.00  0.00     0.210 HD
ENDBRANCH  31  32
BRANCH  31  34
HETATM   34  C14 UNL     1      -3.747 -13.753  -1.458  1.00  0.00     0.262 C 
HETATM   35  N8  UNL     1      -3.751 -14.027  -2.843  1.00  0.00    -0.368 N 
HETATM   36  C15 UNL     1      -2.763 -14.845  -3.410  1.00  0.00     0.116 C 
ATOM     37  H8  UNL     1      -4.479 -13.627  -3.435  1.00  0.00     0.161 HD
HETATM   38  C16 UNL     1      -1.458 -14.189  -3.635  1.00  0.00     0.073 A 
HETATM   39  N9  UNL     1      -0.786 -14.597  -4.734  1.00  0.00    -0.306 N 
HETATM   40  C19 UNL     1      -0.925 -13.220  -2.811  1.00  0.00     0.135 A 
HETATM   41  C17 UNL     1       0.408 -14.032  -4.990  1.00  0.00     0.327 A 
ATOM     42  H9  UNL     1      -1.172 -15.312  -5.350  1.00  0.00     0.171 HD
HETATM   43  O4  UNL     1       1.065 -14.403  -6.026  1.00  0.00    -0.247 OA
HETATM   44  N10 UNL     1       0.936 -13.088  -4.192  1.00  0.00    -0.275 N 
HETATM   45  C18 UNL     1       0.308 -12.639  -3.079  1.00  0.00     0.268 A 
ATOM     46  H10 UNL     1       1.845 -12.694  -4.434  1.00  0.00     0.173 HD
HETATM   47  O5  UNL     1       0.770 -11.771  -2.326  1.00  0.00    -0.267 OA
HETATM   48  C20 UNL     1      -1.506 -12.661  -1.588  1.00  0.00     0.303 C 
HETATM   49  O6  UNL     1      -0.976 -11.613  -1.133  1.00  0.00    -0.259 OA
HETATM   50  O7  UNL     1      -2.588 -13.213  -0.916  1.00  0.00    -0.288 OA
ENDBRANCH  31  34
ENDBRANCH  28  31
ENDBRANCH   1  28
TORSDOF 11
ENDMDL
