MODEL 1
REMARK VINA RESULT: -7.173303214      0.000      0.000
REMARK  9 active torsions:
REMARK  status: ('A' for Active; 'I' for Inactive)
REMARK       I    between atoms: C2_2  and  N1_4 
REMARK       I    between atoms: N1_4  and  C3_6 
REMARK    1  A    between atoms: C3_6  and  C4_8 
REMARK    2  A    between atoms: C5_10  and  O4_11 
REMARK    3  A    between atoms: O4_11  and  C6_12 
REMARK    4  A    between atoms: C6_12  and  O5_14 
REMARK    5  A    between atoms: C8_16  and  O6_18 
REMARK    6  A    between atoms: C10_20  and  O7_21 
REMARK    7  A    between atoms: C10_20  and  O8_23 
REMARK    8  A    between atoms: O8_23  and  C11_24 
REMARK       I    between atoms: C11_24  and  N2_26 
REMARK    9  A    between atoms: N2_26  and  N3_28 
ROOT
HETATM    1  C4  UNL     1      40.261  39.622  37.658  1.00  0.00     0.282 C 
HETATM    2  O3  UNL     1      40.516  38.313  37.318  1.00  0.00    -0.338 OA
HETATM    3  C5  UNL     1      39.675  37.887  36.343  1.00  0.00     0.303 C 
HETATM    4  C8  UNL     1      39.507  39.129  35.492  1.00  0.00     0.163 C 
HETATM    5  C9  UNL     1      40.589  39.330  34.500  1.00  0.00     0.057 C 
HETATM    6  C10 UNL     1      39.497  40.224  36.569  1.00  0.00     0.243 C 
ENDROOT
BRANCH   6   7
HETATM    7  O7  UNL     1      40.121  41.325  35.989  1.00  0.00    -0.360 OA
ATOM      8  H7  UNL     1      39.929  42.146  36.425  1.00  0.00     0.213 HD
ENDBRANCH   6   7
BRANCH   6   9
HETATM    9  O8  UNL     1      38.165  40.523  36.761  1.00  0.00    -0.258 OA
BRANCH   9  10
HETATM   10  C11 UNL     1      37.439  41.609  36.385  1.00  0.00     0.381 C 
HETATM   11  O9  UNL     1      37.078  41.645  35.203  1.00  0.00    -0.237 OA
HETATM   12  N2  UNL     1      37.131  42.631  37.331  1.00  0.00    -0.252 N 
ATOM     13  H2  UNL     1      37.467  42.524  38.288  1.00  0.00     0.191 HD
BRANCH  12  14
HETATM   14  N3  UNL     1      36.395  43.765  37.009  1.00  0.00    -0.341 N 
ATOM     15  H32 UNL     1      35.380  43.704  37.087  1.00  0.00     0.177 HD
ATOM     16  H31 UNL     1      36.824  44.639  36.704  1.00  0.00     0.177 HD
ENDBRANCH  12  14
ENDBRANCH   9  10
ENDBRANCH   6   9
BRANCH   1  17
HETATM   17  C3  UNL     1      41.601  40.229  37.900  1.00  0.00     0.259 C 
HETATM   18  N1  UNL     1      42.698  39.997  37.045  1.00  0.00    -0.296 N 
HETATM   19  C2  UNL     1      43.986  40.553  37.239  1.00  0.00     0.220 C 
ATOM     20  H1  UNL     1      42.556  39.391  36.237  1.00  0.00     0.171 HD
HETATM   21  C1  UNL     1      44.308  41.450  38.384  1.00  0.00     0.117 C 
HETATM   22  O1  UNL     1      44.895  40.282  36.418  1.00  0.00    -0.274 OA
HETATM   23  O2  UNL     1      41.735  40.961  38.894  1.00  0.00    -0.270 OA
ENDBRANCH   1  17
BRANCH   4  24
HETATM   24  O6  UNL     1      38.278  39.018  34.847  1.00  0.00    -0.379 OA
ATOM     25  H6  UNL     1      37.609  39.255  35.479  1.00  0.00     0.211 HD
ENDBRANCH   4  24
BRANCH   3  26
HETATM   26  O4  UNL     1      40.150  36.821  35.621  1.00  0.00    -0.329 OA
BRANCH  26  27
HETATM   27  C6  UNL     1      39.904  35.591  36.222  1.00  0.00     0.256 C 
HETATM   28  C7  UNL     1      39.707  34.521  35.160  1.00  0.00     0.070 C 
BRANCH  27  29
HETATM   29  O5  UNL     1      41.019  35.169  36.980  1.00  0.00    -0.372 OA
ATOM     30  H5  UNL     1      41.770  35.013  36.420  1.00  0.00     0.212 HD
ENDBRANCH  27  29
ENDBRANCH  26  27
ENDBRANCH   3  26
TORSDOF 9
ENDMDL
MODEL 2
REMARK VINA RESULT: -7.005387309      2.498      6.014
REMARK  9 active torsions:
REMARK  status: ('A' for Active; 'I' for Inactive)
REMARK       I    between atoms: C2_2  and  N1_4 
REMARK       I    between atoms: N1_4  and  C3_6 
REMARK    1  A    between atoms: C3_6  and  C4_8 
REMARK    2  A    between atoms: C5_10  and  O4_11 
REMARK    3  A    between atoms: O4_11  and  C6_12 
REMARK    4  A    between atoms: C6_12  and  O5_14 
REMARK    5  A    between atoms: C8_16  and  O6_18 
REMARK    6  A    between atoms: C10_20  and  O7_21 
REMARK    7  A    between atoms: C10_20  and  O8_23 
REMARK    8  A    between atoms: O8_23  and  C11_24 
REMARK       I    between atoms: C11_24  and  N2_26 
REMARK    9  A    between atoms: N2_26  and  N3_28 
ROOT
HETATM    1  C4  UNL     1      39.706  38.472  36.819  1.00  0.00     0.282 C 
HETATM    2  O3  UNL     1      38.467  39.061  36.933  1.00  0.00    -0.338 OA
HETATM    3  C5  UNL     1      38.536  40.397  36.708  1.00  0.00     0.303 C 
HETATM    4  C8  UNL     1      39.596  40.490  35.628  1.00  0.00     0.163 C 
HETATM    5  C9  UNL     1      39.080  40.265  34.258  1.00  0.00     0.057 C 
HETATM    6  C10 UNL     1      40.566  39.386  36.071  1.00  0.00     0.243 C 
ENDROOT
BRANCH   6   7
HETATM    7  O7  UNL     1      41.073  38.840  34.896  1.00  0.00    -0.360 OA
ATOM      8  H7  UNL     1      41.528  39.468  34.348  1.00  0.00     0.213 HD
ENDBRANCH   6   7
BRANCH   6   9
HETATM    9  O8  UNL     1      41.583  40.047  36.727  1.00  0.00    -0.258 OA
BRANCH   9  10
HETATM   10  C11 UNL     1      42.885  39.702  36.914  1.00  0.00     0.381 C 
HETATM   11  O9  UNL     1      43.203  38.558  36.571  1.00  0.00    -0.237 OA
HETATM   12  N2  UNL     1      43.802  40.637  37.478  1.00  0.00    -0.252 N 
ATOM     13  H2  UNL     1      43.458  41.562  37.733  1.00  0.00     0.191 HD
BRANCH  12  14
HETATM   14  N3  UNL     1      45.144  40.345  37.695  1.00  0.00    -0.341 N 
ATOM     15  H32 UNL     1      45.823  40.757  37.055  1.00  0.00     0.177 HD
ATOM     16  H31 UNL     1      45.468  39.747  38.455  1.00  0.00     0.177 HD
ENDBRANCH  12  14
ENDBRANCH   9  10
ENDBRANCH   6   9
BRANCH   1  17
HETATM   17  C3  UNL     1      39.453  37.160  36.158  1.00  0.00     0.259 C 
HETATM   18  N1  UNL     1      38.296  36.914  35.391  1.00  0.00    -0.296 N 
HETATM   19  C2  UNL     1      38.018  35.683  34.748  1.00  0.00     0.220 C 
ATOM     20  H1  UNL     1      37.617  37.670  35.292  1.00  0.00     0.171 HD
HETATM   21  C1  UNL     1      38.936  34.513  34.824  1.00  0.00     0.117 C 
HETATM   22  O1  UNL     1      36.957  35.569  34.087  1.00  0.00    -0.274 OA
HETATM   23  O2  UNL     1      40.302  36.265  36.302  1.00  0.00    -0.270 OA
ENDBRANCH   1  17
BRANCH   4  24
HETATM   24  O6  UNL     1      40.166  41.757  35.724  1.00  0.00    -0.379 OA
ATOM     25  H6  UNL     1      41.014  41.650  36.139  1.00  0.00     0.211 HD
ENDBRANCH   4  24
BRANCH   3  26
HETATM   26  O4  UNL     1      37.348  40.962  36.321  1.00  0.00    -0.329 OA
BRANCH  26  27
HETATM   27  C6  UNL     1      36.937  42.006  37.144  1.00  0.00     0.256 C 
HETATM   28  C7  UNL     1      36.469  43.182  36.301  1.00  0.00     0.070 C 
BRANCH  27  29
HETATM   29  O5  UNL     1      35.817  41.627  37.917  1.00  0.00    -0.372 OA
ATOM     30  H5  UNL     1      35.621  42.284  38.574  1.00  0.00     0.212 HD
ENDBRANCH  27  29
ENDBRANCH  26  27
ENDBRANCH   3  26
TORSDOF 9
ENDMDL
MODEL 3
REMARK VINA RESULT: -6.985756844      1.788      2.311
REMARK  9 active torsions:
REMARK  status: ('A' for Active; 'I' for Inactive)
REMARK       I    between atoms: C2_2  and  N1_4 
REMARK       I    between atoms: N1_4  and  C3_6 
REMARK    1  A    between atoms: C3_6  and  C4_8 
REMARK    2  A    between atoms: C5_10  and  O4_11 
REMARK    3  A    between atoms: O4_11  and  C6_12 
REMARK    4  A    between atoms: C6_12  and  O5_14 
REMARK    5  A    between atoms: C8_16  and  O6_18 
REMARK    6  A    between atoms: C10_20  and  O7_21 
REMARK    7  A    between atoms: C10_20  and  O8_23 
REMARK    8  A    between atoms: O8_23  and  C11_24 
REMARK       I    between atoms: C11_24  and  N2_26 
REMARK    9  A    between atoms: N2_26  and  N3_28 
ROOT
HETATM    1  C4  UNL     1      40.642  38.042  37.114  1.00  0.00     0.282 C 
HETATM    2  O3  UNL     1      40.961  36.784  36.655  1.00  0.00    -0.338 OA
HETATM    3  C5  UNL     1      39.850  36.104  36.277  1.00  0.00     0.303 C 
HETATM    4  C8  UNL     1      38.985  37.198  35.684  1.00  0.00     0.163 C 
HETATM    5  C9  UNL     1      39.299  37.514  34.271  1.00  0.00     0.057 C 
HETATM    6  C10 UNL     1      39.306  38.368  36.624  1.00  0.00     0.243 C 
ENDROOT
BRANCH   6   7
HETATM    7  O7  UNL     1      39.265  39.510  35.829  1.00  0.00    -0.360 OA
ATOM      8  H7  UNL     1      38.385  39.780  35.594  1.00  0.00     0.213 HD
ENDBRANCH   6   7
BRANCH   6   9
HETATM    9  O8  UNL     1      38.251  38.411  37.512  1.00  0.00    -0.258 OA
BRANCH   9  10
HETATM   10  C11 UNL     1      37.614  39.470  38.077  1.00  0.00     0.381 C 
HETATM   11  O9  UNL     1      37.500  39.448  39.307  1.00  0.00    -0.237 OA
HETATM   12  N2  UNL     1      37.117  40.530  37.261  1.00  0.00    -0.252 N 
ATOM     13  H2  UNL     1      37.254  40.471  36.253  1.00  0.00     0.191 HD
BRANCH  12  14
HETATM   14  N3  UNL     1      36.457  41.638  37.778  1.00  0.00    -0.341 N 
ATOM     15  H32 UNL     1      36.696  41.928  38.726  1.00  0.00     0.177 HD
ATOM     16  H31 UNL     1      35.756  42.163  37.254  1.00  0.00     0.177 HD
ENDBRANCH  12  14
ENDBRANCH   9  10
ENDBRANCH   6   9
BRANCH   1  17
HETATM   17  C3  UNL     1      41.732  38.926  36.611  1.00  0.00     0.259 C 
HETATM   18  N1  UNL     1      42.301  39.945  37.402  1.00  0.00    -0.296 N 
HETATM   19  C2  UNL     1      43.337  40.805  36.962  1.00  0.00     0.220 C 
ATOM     20  H1  UNL     1      41.946  40.069  38.350  1.00  0.00     0.171 HD
HETATM   21  C1  UNL     1      43.930  40.715  35.599  1.00  0.00     0.117 C 
HETATM   22  O1  UNL     1      43.774  41.681  37.748  1.00  0.00    -0.274 OA
HETATM   23  O2  UNL     1      42.137  38.744  35.451  1.00  0.00    -0.270 OA
ENDBRANCH   1  17
BRANCH   4  24
HETATM   24  O6  UNL     1      37.662  36.780  35.800  1.00  0.00    -0.379 OA
ATOM     25  H6  UNL     1      37.219  37.033  34.998  1.00  0.00     0.211 HD
ENDBRANCH   4  24
BRANCH   3  26
HETATM   26  O4  UNL     1      40.092  35.090  35.385  1.00  0.00    -0.329 OA
BRANCH  26  27
HETATM   27  C6  UNL     1      40.329  33.861  35.994  1.00  0.00     0.256 C 
HETATM   28  C7  UNL     1      41.293  33.039  35.153  1.00  0.00     0.070 C 
BRANCH  27  29
HETATM   29  O5  UNL     1      40.968  34.033  37.242  1.00  0.00    -0.372 OA
ATOM     30  H5  UNL     1      40.707  33.353  37.852  1.00  0.00     0.212 HD
ENDBRANCH  27  29
ENDBRANCH  26  27
ENDBRANCH   3  26
TORSDOF 9
ENDMDL
MODEL 4
REMARK VINA RESULT: -6.980838958      1.689      4.871
REMARK  9 active torsions:
REMARK  status: ('A' for Active; 'I' for Inactive)
REMARK       I    between atoms: C2_2  and  N1_4 
REMARK       I    between atoms: N1_4  and  C3_6 
REMARK    1  A    between atoms: C3_6  and  C4_8 
REMARK    2  A    between atoms: C5_10  and  O4_11 
REMARK    3  A    between atoms: O4_11  and  C6_12 
REMARK    4  A    between atoms: C6_12  and  O5_14 
REMARK    5  A    between atoms: C8_16  and  O6_18 
REMARK    6  A    between atoms: C10_20  and  O7_21 
REMARK    7  A    between atoms: C10_20  and  O8_23 
REMARK    8  A    between atoms: O8_23  and  C11_24 
REMARK       I    between atoms: C11_24  and  N2_26 
REMARK    9  A    between atoms: N2_26  and  N3_28 
ROOT
HETATM    1  C4  UNL     1      39.998  38.541  35.017  1.00  0.00     0.282 C 
HETATM    2  O3  UNL     1      41.314  38.607  35.417  1.00  0.00    -0.338 OA
HETATM    3  C5  UNL     1      41.514  39.637  36.277  1.00  0.00     0.303 C 
HETATM    4  C8  UNL     1      40.223  39.654  37.070  1.00  0.00     0.163 C 
HETATM    5  C9  UNL     1      40.195  38.691  38.196  1.00  0.00     0.057 C 
HETATM    6  C10 UNL     1      39.202  39.299  35.979  1.00  0.00     0.243 C 
ENDROOT
BRANCH   6   7
HETATM    7  O7  UNL     1      38.223  38.542  36.615  1.00  0.00    -0.360 OA
ATOM      8  H7  UNL     1      37.349  38.682  36.270  1.00  0.00     0.213 HD
ENDBRANCH   6   7
BRANCH   6   9
HETATM    9  O8  UNL     1      38.652  40.505  35.600  1.00  0.00    -0.258 OA
BRANCH   9  10
HETATM   10  C11 UNL     1      37.499  41.112  35.990  1.00  0.00     0.381 C 
HETATM   11  O9  UNL     1      36.885  41.734  35.115  1.00  0.00    -0.237 OA
HETATM   12  N2  UNL     1      37.056  41.014  37.341  1.00  0.00    -0.252 N 
ATOM     13  H2  UNL     1      37.622  40.480  38.001  1.00  0.00     0.191 HD
BRANCH  12  14
HETATM   14  N3  UNL     1      35.888  41.611  37.802  1.00  0.00    -0.341 N 
ATOM     15  H32 UNL     1      35.832  41.829  38.796  1.00  0.00     0.177 HD
ATOM     16  H31 UNL     1      35.101  41.836  37.193  1.00  0.00     0.177 HD
ENDBRANCH  12  14
ENDBRANCH   9  10
ENDBRANCH   6   9
BRANCH   1  17
HETATM   17  C3  UNL     1      39.686  37.085  34.948  1.00  0.00     0.259 C 
HETATM   18  N1  UNL     1      39.818  36.233  36.063  1.00  0.00    -0.296 N 
HETATM   19  C2  UNL     1      39.532  34.845  36.039  1.00  0.00     0.220 C 
ATOM     20  H1  UNL     1      40.139  36.640  36.942  1.00  0.00     0.171 HD
HETATM   21  C1  UNL     1      39.058  34.145  34.813  1.00  0.00     0.117 C 
HETATM   22  O1  UNL     1      39.684  34.175  37.090  1.00  0.00    -0.274 OA
HETATM   23  O2  UNL     1      39.298  36.626  33.861  1.00  0.00    -0.270 OA
ENDBRANCH   1  17
BRANCH   4  24
HETATM   24  O6  UNL     1      40.053  40.952  37.544  1.00  0.00    -0.379 OA
ATOM     25  H6  UNL     1      40.538  41.526  36.962  1.00  0.00     0.211 HD
ENDBRANCH   4  24
BRANCH   3  26
HETATM   26  O4  UNL     1      42.616  39.489  37.080  1.00  0.00    -0.329 OA
BRANCH  26  27
HETATM   27  C6  UNL     1      43.474  40.584  37.051  1.00  0.00     0.256 C 
HETATM   28  C7  UNL     1      43.482  41.276  38.405  1.00  0.00     0.070 C 
BRANCH  27  29
HETATM   29  O5  UNL     1      44.807  40.173  36.829  1.00  0.00    -0.372 OA
ATOM     30  H5  UNL     1      45.379  40.924  36.722  1.00  0.00     0.212 HD
ENDBRANCH  27  29
ENDBRANCH  26  27
ENDBRANCH   3  26
TORSDOF 9
ENDMDL
MODEL 5
REMARK VINA RESULT: -6.962167166      1.474      1.686
REMARK  9 active torsions:
REMARK  status: ('A' for Active; 'I' for Inactive)
REMARK       I    between atoms: C2_2  and  N1_4 
REMARK       I    between atoms: N1_4  and  C3_6 
REMARK    1  A    between atoms: C3_6  and  C4_8 
REMARK    2  A    between atoms: C5_10  and  O4_11 
REMARK    3  A    between atoms: O4_11  and  C6_12 
REMARK    4  A    between atoms: C6_12  and  O5_14 
REMARK    5  A    between atoms: C8_16  and  O6_18 
REMARK    6  A    between atoms: C10_20  and  O7_21 
REMARK    7  A    between atoms: C10_20  and  O8_23 
REMARK    8  A    between atoms: O8_23  and  C11_24 
REMARK       I    between atoms: C11_24  and  N2_26 
REMARK    9  A    between atoms: N2_26  and  N3_28 
ROOT
HETATM    1  C4  UNL     1      40.760  38.608  36.944  1.00  0.00     0.282 C 
HETATM    2  O3  UNL     1      40.953  37.287  36.609  1.00  0.00    -0.338 OA
HETATM    3  C5  UNL     1      39.889  36.793  35.927  1.00  0.00     0.303 C 
HETATM    4  C8  UNL     1      39.454  37.984  35.097  1.00  0.00     0.163 C 
HETATM    5  C9  UNL     1      40.213  38.149  33.836  1.00  0.00     0.057 C 
HETATM    6  C10 UNL     1      39.707  39.136  36.081  1.00  0.00     0.243 C 
ENDROOT
BRANCH   6   7
HETATM    7  O7  UNL     1      40.112  40.214  35.299  1.00  0.00    -0.360 OA
ATOM      8  H7  UNL     1      39.602  40.323  34.506  1.00  0.00     0.213 HD
ENDBRANCH   6   7
BRANCH   6   9
HETATM    9  O8  UNL     1      38.470  39.423  36.620  1.00  0.00    -0.258 OA
BRANCH   9  10
HETATM   10  C11 UNL     1      37.929  40.606  37.012  1.00  0.00     0.381 C 
HETATM   11  O9  UNL     1      38.593  41.620  36.767  1.00  0.00    -0.237 OA
HETATM   12  N2  UNL     1      36.663  40.636  37.668  1.00  0.00    -0.252 N 
ATOM     13  H2  UNL     1      36.180  39.754  37.832  1.00  0.00     0.191 HD
BRANCH  12  14
HETATM   14  N3  UNL     1      36.058  41.813  38.094  1.00  0.00    -0.341 N 
ATOM     15  H32 UNL     1      36.591  42.677  37.999  1.00  0.00     0.177 HD
ATOM     16  H31 UNL     1      35.118  41.844  38.490  1.00  0.00     0.177 HD
ENDBRANCH  12  14
ENDBRANCH   9  10
ENDBRANCH   6   9
BRANCH   1  17
HETATM   17  C3  UNL     1      42.095  39.250  36.775  1.00  0.00     0.259 C 
HETATM   18  N1  UNL     1      42.514  40.337  37.568  1.00  0.00    -0.296 N 
HETATM   19  C2  UNL     1      43.772  40.975  37.439  1.00  0.00     0.220 C 
ATOM     20  H1  UNL     1      41.871  40.687  38.279  1.00  0.00     0.171 HD
HETATM   21  C1  UNL     1      44.788  40.549  36.437  1.00  0.00     0.117 C 
HETATM   22  O1  UNL     1      44.047  41.937  38.197  1.00  0.00    -0.274 OA
HETATM   23  O2  UNL     1      42.849  38.796  35.899  1.00  0.00    -0.270 OA
ENDBRANCH   1  17
BRANCH   4  24
HETATM   24  O6  UNL     1      38.099  37.818  34.824  1.00  0.00    -0.379 OA
ATOM     25  H6  UNL     1      37.861  38.476  34.181  1.00  0.00     0.211 HD
ENDBRANCH   4  24
BRANCH   3  26
HETATM   26  O4  UNL     1      40.179  35.698  35.154  1.00  0.00    -0.329 OA
BRANCH  26  27
HETATM   27  C6  UNL     1      40.040  34.490  35.829  1.00  0.00     0.256 C 
HETATM   28  C7  UNL     1      39.738  33.372  34.844  1.00  0.00     0.070 C 
BRANCH  27  29
HETATM   29  O5  UNL     1      41.251  34.122  36.457  1.00  0.00    -0.372 OA
ATOM     30  H5  UNL     1      41.314  34.508  37.323  1.00  0.00     0.212 HD
ENDBRANCH  27  29
ENDBRANCH  26  27
ENDBRANCH   3  26
TORSDOF 9
ENDMDL
