MODEL 1
REMARK VINA RESULT: -7.698985951      0.000      0.000
REMARK  9 active torsions:
REMARK  status: ('A' for Active; 'I' for Inactive)
REMARK    1  A    between atoms: N1_1  and  C1_4 
REMARK    2  A    between atoms: C4_9  and  N3_10 
REMARK    3  A    between atoms: N3_10  and  C5_11 
REMARK    4  A    between atoms: N3_10  and  C7_17 
REMARK    5  A    between atoms: C5_11  and  C6_12 
REMARK    6  A    between atoms: C6_12  and  N4_13 
REMARK    7  A    between atoms: C8_19  and  C9_20 
REMARK    8  A    between atoms: C9_20  and  O2_21 
REMARK    9  A    between atoms: C10_24  and  O4_25 
ROOT
HETATM    1  N3  UNL     1      18.859   8.740  28.303  1.00  0.00    -0.184 N 
ENDROOT
BRANCH   1   2
HETATM    2  C4  UNL     1      17.611   8.703  28.995  1.00  0.00     0.683 A 
HETATM    3  N2  UNL     1      17.499   8.294  30.259  1.00  0.00    -0.202 N 
HETATM    4  C3  UNL     1      16.309   8.305  30.941  1.00  0.00     0.110 A 
ATOM      5  H2  UNL     1      18.335   7.959  30.739  1.00  0.00     0.183 HD
HETATM    6  C2  UNL     1      15.204   8.752  30.294  1.00  0.00     0.066 A 
HETATM    7  C1  UNL     1      15.284   9.181  28.991  1.00  0.00     0.116 A 
HETATM    8  N5  UNL     1      16.467   9.141  28.399  1.00  0.00    -0.177 N 
ATOM      9  H5  UNL     1      16.525   9.460  27.431  1.00  0.00     0.185 HD
BRANCH   7  10
HETATM   10  N1  UNL     1      14.205   9.610  28.384  1.00  0.00    -0.385 N 
ATOM     11  H12 UNL     1      13.667  10.409  28.719  1.00  0.00     0.157 HD
ATOM     12  H11 UNL     1      13.877   9.134  27.543  1.00  0.00     0.157 HD
ENDBRANCH   7  10
ENDBRANCH   1   2
BRANCH   1  13
HETATM   13  C5  UNL     1      18.873   8.890  26.837  1.00  0.00     0.171 C 
BRANCH  13  14
HETATM   14  C6  UNL     1      19.805   7.892  26.193  1.00  0.00     0.250 C 
BRANCH  14  15
HETATM   15  N4  UNL     1      18.960   6.801  25.697  1.00  0.00    -0.078 N 
ATOM     16  H43 UNL     1      18.099   6.682  26.231  1.00  0.00     0.274 HD
ATOM     17  H42 UNL     1      18.524   7.004  24.798  1.00  0.00     0.274 HD
ATOM     18  H41 UNL     1      19.549   5.968  25.683  1.00  0.00     0.274 HD
ENDBRANCH  14  15
ENDBRANCH  13  14
ENDBRANCH   1  13
BRANCH   1  19
HETATM   19  C7  UNL     1      20.155   8.652  28.914  1.00  0.00     0.298 C 
HETATM   20  O1  UNL     1      20.331   7.446  29.602  1.00  0.00    -0.329 OA
HETATM   21  C8  UNL     1      20.908   7.737  30.829  1.00  0.00     0.289 C 
HETATM   22  O3  UNL     1      20.306   8.964  31.165  1.00  0.00    -0.325 OA
HETATM   23  C10 UNL     1      20.505   9.646  29.952  1.00  0.00     0.309 C 
BRANCH  21  24
HETATM   24  C9  UNL     1      20.569   6.682  31.863  1.00  0.00     0.225 C 
BRANCH  24  25
HETATM   25  O2  UNL     1      21.059   5.435  31.472  1.00  0.00    -0.396 OA
ATOM     26  H2  UNL     1      21.761   5.535  30.839  1.00  0.00     0.209 HD
ENDBRANCH  24  25
ENDBRANCH  21  24
BRANCH  23  27
HETATM   27  O4  UNL     1      21.904   9.843  29.892  1.00  0.00    -0.367 OA
ATOM     28  H4  UNL     1      22.126  10.490  30.549  1.00  0.00     0.212 HD
ENDBRANCH  23  27
ENDBRANCH   1  19
TORSDOF 9
ENDMDL
MODEL 2
REMARK VINA RESULT: -7.577374955      1.296      1.612
REMARK  9 active torsions:
REMARK  status: ('A' for Active; 'I' for Inactive)
REMARK    1  A    between atoms: N1_1  and  C1_4 
REMARK    2  A    between atoms: C4_9  and  N3_10 
REMARK    3  A    between atoms: N3_10  and  C5_11 
REMARK    4  A    between atoms: N3_10  and  C7_17 
REMARK    5  A    between atoms: C5_11  and  C6_12 
REMARK    6  A    between atoms: C6_12  and  N4_13 
REMARK    7  A    between atoms: C8_19  and  C9_20 
REMARK    8  A    between atoms: C9_20  and  O2_21 
REMARK    9  A    between atoms: C10_24  and  O4_25 
ROOT
HETATM    1  N3  UNL     1      18.604   8.860  28.386  1.00  0.00    -0.184 N 
ENDROOT
BRANCH   1   2
HETATM    2  C4  UNL     1      17.586   9.775  28.790  1.00  0.00     0.683 A 
HETATM    3  N2  UNL     1      17.565  11.049  28.397  1.00  0.00    -0.202 N 
HETATM    4  C3  UNL     1      16.561  11.917  28.744  1.00  0.00     0.110 A 
ATOM      5  H2  UNL     1      18.328  11.392  27.813  1.00  0.00     0.183 HD
HETATM    6  C2  UNL     1      15.552  11.452  29.521  1.00  0.00     0.066 A 
HETATM    7  C1  UNL     1      15.543  10.144  29.944  1.00  0.00     0.116 A 
HETATM    8  N5  UNL     1      16.545   9.366  29.568  1.00  0.00    -0.177 N 
ATOM      9  H5  UNL     1      16.538   8.395  29.882  1.00  0.00     0.185 HD
BRANCH   7  10
HETATM   10  N1  UNL     1      14.557   9.714  30.693  1.00  0.00    -0.385 N 
ATOM     11  H12 UNL     1      13.775  10.309  30.968  1.00  0.00     0.157 HD
ATOM     12  H11 UNL     1      14.560   8.748  31.022  1.00  0.00     0.157 HD
ENDBRANCH   7  10
ENDBRANCH   1   2
BRANCH   1  13
HETATM   13  C5  UNL     1      18.320   7.884  27.318  1.00  0.00     0.171 C 
BRANCH  13  14
HETATM   14  C6  UNL     1      19.320   8.000  26.191  1.00  0.00     0.250 C 
BRANCH  14  15
HETATM   15  N4  UNL     1      19.272   6.727  25.467  1.00  0.00    -0.078 N 
ATOM     16  H43 UNL     1      19.056   5.929  26.065  1.00  0.00     0.274 HD
ATOM     17  H42 UNL     1      18.465   6.642  24.849  1.00  0.00     0.274 HD
ATOM     18  H41 UNL     1      20.165   6.641  24.981  1.00  0.00     0.274 HD
ENDBRANCH  14  15
ENDBRANCH  13  14
ENDBRANCH   1  13
BRANCH   1  19
HETATM   19  C7  UNL     1      19.933   8.796  28.926  1.00  0.00     0.298 C 
HETATM   20  O1  UNL     1      20.191   7.564  29.538  1.00  0.00    -0.329 OA
HETATM   21  C8  UNL     1      20.820   7.816  30.749  1.00  0.00     0.289 C 
HETATM   22  O3  UNL     1      20.188   8.998  31.180  1.00  0.00    -0.325 OA
HETATM   23  C10 UNL     1      20.296   9.748  29.997  1.00  0.00     0.309 C 
BRANCH  21  24
HETATM   24  C9  UNL     1      20.577   6.695  31.740  1.00  0.00     0.225 C 
BRANCH  24  25
HETATM   25  O2  UNL     1      21.265   5.544  31.359  1.00  0.00    -0.396 OA
ATOM     26  H2  UNL     1      20.689   4.788  31.378  1.00  0.00     0.209 HD
ENDBRANCH  24  25
ENDBRANCH  21  24
BRANCH  23  27
HETATM   27  O4  UNL     1      21.681  10.008  29.877  1.00  0.00    -0.367 OA
ATOM     28  H4  UNL     1      22.120   9.169  29.803  1.00  0.00     0.212 HD
ENDBRANCH  23  27
ENDBRANCH   1  19
TORSDOF 9
ENDMDL
MODEL 3
REMARK VINA RESULT: -7.490482769      2.473      3.542
REMARK  9 active torsions:
REMARK  status: ('A' for Active; 'I' for Inactive)
REMARK    1  A    between atoms: N1_1  and  C1_4 
REMARK    2  A    between atoms: C4_9  and  N3_10 
REMARK    3  A    between atoms: N3_10  and  C5_11 
REMARK    4  A    between atoms: N3_10  and  C7_17 
REMARK    5  A    between atoms: C5_11  and  C6_12 
REMARK    6  A    between atoms: C6_12  and  N4_13 
REMARK    7  A    between atoms: C8_19  and  C9_20 
REMARK    8  A    between atoms: C9_20  and  O2_21 
REMARK    9  A    between atoms: C10_24  and  O4_25 
ROOT
HETATM    1  N3  UNL     1      18.679   9.574  28.702  1.00  0.00    -0.184 N 
ENDROOT
BRANCH   1   2
HETATM    2  C4  UNL     1      18.342  10.895  28.280  1.00  0.00     0.683 A 
HETATM    3  N2  UNL     1      17.825  11.158  27.079  1.00  0.00    -0.202 N 
HETATM    4  C3  UNL     1      17.454  12.420  26.690  1.00  0.00     0.110 A 
ATOM      5  H2  UNL     1      17.700  10.387  26.422  1.00  0.00     0.183 HD
HETATM    6  C2  UNL     1      17.624  13.438  27.569  1.00  0.00     0.066 A 
HETATM    7  C1  UNL     1      18.154  13.202  28.815  1.00  0.00     0.116 A 
HETATM    8  N5  UNL     1      18.488  11.958  29.119  1.00  0.00    -0.177 N 
ATOM      9  H5  UNL     1      18.881  11.784  30.045  1.00  0.00     0.185 HD
BRANCH   7  10
HETATM   10  N1  UNL     1      18.309  14.199  29.651  1.00  0.00    -0.385 N 
ATOM     11  H12 UNL     1      18.159  15.172  29.381  1.00  0.00     0.157 HD
ATOM     12  H11 UNL     1      18.592  14.010  30.613  1.00  0.00     0.157 HD
ENDBRANCH   7  10
ENDBRANCH   1   2
BRANCH   1  13
HETATM   13  C5  UNL     1      17.623   8.550  28.796  1.00  0.00     0.171 C 
BRANCH  13  14
HETATM   14  C6  UNL     1      16.703   8.818  29.964  1.00  0.00     0.250 C 
BRANCH  14  15
HETATM   15  N4  UNL     1      17.264   8.087  31.104  1.00  0.00    -0.078 N 
ATOM     16  H43 UNL     1      16.578   7.888  31.834  1.00  0.00     0.274 HD
ATOM     17  H42 UNL     1      17.501   7.119  30.888  1.00  0.00     0.274 HD
ATOM     18  H41 UNL     1      18.058   8.636  31.433  1.00  0.00     0.274 HD
ENDBRANCH  14  15
ENDBRANCH  13  14
ENDBRANCH   1  13
BRANCH   1  19
HETATM   19  C7  UNL     1      19.996   9.118  29.049  1.00  0.00     0.298 C 
HETATM   20  O1  UNL     1      19.998   7.777  29.449  1.00  0.00    -0.329 OA
HETATM   21  C8  UNL     1      20.781   7.676  30.589  1.00  0.00     0.289 C 
HETATM   22  O3  UNL     1      20.506   8.885  31.256  1.00  0.00    -0.325 OA
HETATM   23  C10 UNL     1      20.684   9.773  30.181  1.00  0.00     0.309 C 
BRANCH  21  24
HETATM   24  C9  UNL     1      20.364   6.495  31.442  1.00  0.00     0.225 C 
BRANCH  24  25
HETATM   25  O2  UNL     1      21.337   5.497  31.410  1.00  0.00    -0.396 OA
ATOM     26  H2  UNL     1      21.615   5.272  32.291  1.00  0.00     0.209 HD
ENDBRANCH  24  25
ENDBRANCH  21  24
BRANCH  23  27
HETATM   27  O4  UNL     1      22.072   9.722  29.916  1.00  0.00    -0.367 OA
ATOM     28  H4  UNL     1      22.343   8.816  30.004  1.00  0.00     0.212 HD
ENDBRANCH  23  27
ENDBRANCH   1  19
TORSDOF 9
ENDMDL
MODEL 4
REMARK VINA RESULT: -7.465637937      1.463      2.118
REMARK  9 active torsions:
REMARK  status: ('A' for Active; 'I' for Inactive)
REMARK    1  A    between atoms: N1_1  and  C1_4 
REMARK    2  A    between atoms: C4_9  and  N3_10 
REMARK    3  A    between atoms: N3_10  and  C5_11 
REMARK    4  A    between atoms: N3_10  and  C7_17 
REMARK    5  A    between atoms: C5_11  and  C6_12 
REMARK    6  A    between atoms: C6_12  and  N4_13 
REMARK    7  A    between atoms: C8_19  and  C9_20 
REMARK    8  A    between atoms: C9_20  and  O2_21 
REMARK    9  A    between atoms: C10_24  and  O4_25 
ROOT
HETATM    1  N3  UNL     1      18.749   9.917  28.751  1.00  0.00    -0.184 N 
ENDROOT
BRANCH   1   2
HETATM    2  C4  UNL     1      17.488   9.465  29.242  1.00  0.00     0.683 A 
HETATM    3  N2  UNL     1      17.329   8.966  30.469  1.00  0.00    -0.202 N 
HETATM    4  C3  UNL     1      16.109   8.577  30.960  1.00  0.00     0.110 A 
ATOM      5  H2  UNL     1      18.150   8.870  31.067  1.00  0.00     0.183 HD
HETATM    6  C2  UNL     1      15.023   8.708  30.158  1.00  0.00     0.066 A 
HETATM    7  C1  UNL     1      15.152   9.219  28.888  1.00  0.00     0.116 A 
HETATM    8  N5  UNL     1      16.361   9.573  28.484  1.00  0.00    -0.177 N 
ATOM      9  H5  UNL     1      16.456   9.952  27.541  1.00  0.00     0.185 HD
BRANCH   7  10
HETATM   10  N1  UNL     1      14.090   9.339  28.129  1.00  0.00    -0.385 N 
ATOM     11  H12 UNL     1      13.294   9.922  28.386  1.00  0.00     0.157 HD
ATOM     12  H11 UNL     1      14.045   8.834  27.244  1.00  0.00     0.157 HD
ENDBRANCH   7  10
ENDBRANCH   1   2
BRANCH   1  13
HETATM   13  C5  UNL     1      18.802  11.081  27.848  1.00  0.00     0.171 C 
BRANCH  13  14
HETATM   14  C6  UNL     1      18.671  12.375  28.616  1.00  0.00     0.250 C 
BRANCH  14  15
HETATM   15  N4  UNL     1      17.415  12.988  28.175  1.00  0.00    -0.078 N 
ATOM     16  H43 UNL     1      17.043  12.579  27.317  1.00  0.00     0.274 HD
ATOM     17  H42 UNL     1      16.621  12.763  28.775  1.00  0.00     0.274 HD
ATOM     18  H41 UNL     1      17.596  13.990  28.102  1.00  0.00     0.274 HD
ENDBRANCH  14  15
ENDBRANCH  13  14
ENDBRANCH   1  13
BRANCH   1  19
HETATM   19  C7  UNL     1      20.025   9.339  29.067  1.00  0.00     0.298 C 
HETATM   20  O1  UNL     1      19.920   7.979  29.385  1.00  0.00    -0.329 OA
HETATM   21  C8  UNL     1      20.690   7.747  30.515  1.00  0.00     0.289 C 
HETATM   22  O3  UNL     1      20.508   8.931  31.256  1.00  0.00    -0.325 OA
HETATM   23  C10 UNL     1      20.759   9.867  30.237  1.00  0.00     0.309 C 
BRANCH  21  24
HETATM   24  C9  UNL     1      20.177   6.553  31.295  1.00  0.00     0.225 C 
BRANCH  24  25
HETATM   25  O2  UNL     1      21.186   5.605  31.462  1.00  0.00    -0.396 OA
ATOM     26  H2  UNL     1      20.815   4.747  31.635  1.00  0.00     0.209 HD
ENDBRANCH  24  25
ENDBRANCH  21  24
BRANCH  23  27
HETATM   27  O4  UNL     1      22.139   9.723  29.968  1.00  0.00    -0.367 OA
ATOM     28  H4  UNL     1      22.607  10.251  30.603  1.00  0.00     0.212 HD
ENDBRANCH  23  27
ENDBRANCH   1  19
TORSDOF 9
ENDMDL
MODEL 5
REMARK VINA RESULT: -7.326718424      2.674      4.333
REMARK  9 active torsions:
REMARK  status: ('A' for Active; 'I' for Inactive)
REMARK    1  A    between atoms: N1_1  and  C1_4 
REMARK    2  A    between atoms: C4_9  and  N3_10 
REMARK    3  A    between atoms: N3_10  and  C5_11 
REMARK    4  A    between atoms: N3_10  and  C7_17 
REMARK    5  A    between atoms: C5_11  and  C6_12 
REMARK    6  A    between atoms: C6_12  and  N4_13 
REMARK    7  A    between atoms: C8_19  and  C9_20 
REMARK    8  A    between atoms: C9_20  and  O2_21 
REMARK    9  A    between atoms: C10_24  and  O4_25 
ROOT
HETATM    1  N3  UNL     1      16.663  10.411  29.230  1.00  0.00    -0.184 N 
ENDROOT
BRANCH   1   2
HETATM    2  C4  UNL     1      17.016  11.498  28.376  1.00  0.00     0.683 A 
HETATM    3  N2  UNL     1      18.152  12.183  28.515  1.00  0.00    -0.202 N 
HETATM    4  C3  UNL     1      18.517  13.197  27.665  1.00  0.00     0.110 A 
ATOM      5  H2  UNL     1      18.776  11.943  29.285  1.00  0.00     0.183 HD
HETATM    6  C2  UNL     1      17.682  13.509  26.644  1.00  0.00     0.066 A 
HETATM    7  C1  UNL     1      16.503  12.823  26.472  1.00  0.00     0.116 A 
HETATM    8  N5  UNL     1      16.219  11.858  27.332  1.00  0.00    -0.177 N 
ATOM      9  H5  UNL     1      15.343  11.349  27.204  1.00  0.00     0.185 HD
BRANCH   7  10
HETATM   10  N1  UNL     1      15.710  13.140  25.478  1.00  0.00    -0.385 N 
ATOM     11  H12 UNL     1      15.772  14.032  24.987  1.00  0.00     0.157 HD
ATOM     12  H11 UNL     1      14.996  12.478  25.173  1.00  0.00     0.157 HD
ENDBRANCH   7  10
ENDBRANCH   1   2
BRANCH   1  13
HETATM   13  C5  UNL     1      15.268  10.270  29.685  1.00  0.00     0.171 C 
BRANCH  13  14
HETATM   14  C6  UNL     1      14.654   8.986  29.178  1.00  0.00     0.250 C 
BRANCH  14  15
HETATM   15  N4  UNL     1      13.930   9.335  27.952  1.00  0.00    -0.078 N 
ATOM     16  H43 UNL     1      13.346  10.166  28.048  1.00  0.00     0.274 HD
ATOM     17  H42 UNL     1      14.534   9.692  27.212  1.00  0.00     0.274 HD
ATOM     18  H41 UNL     1      13.408   8.501  27.681  1.00  0.00     0.274 HD
ENDBRANCH  14  15
ENDBRANCH  13  14
ENDBRANCH   1  13
BRANCH   1  19
HETATM   19  C7  UNL     1      17.559   9.392  29.700  1.00  0.00     0.298 C 
HETATM   20  O1  UNL     1      18.641   9.931  30.405  1.00  0.00    -0.329 OA
HETATM   21  C8  UNL     1      19.792   9.295  29.965  1.00  0.00     0.289 C 
HETATM   22  O3  UNL     1      19.529   9.100  28.596  1.00  0.00    -0.325 OA
HETATM   23  C10 UNL     1      18.241   8.547  28.697  1.00  0.00     0.309 C 
BRANCH  21  24
HETATM   24  C9  UNL     1      21.013  10.175  30.148  1.00  0.00     0.225 C 
BRANCH  24  25
HETATM   25  O2  UNL     1      22.178   9.407  30.140  1.00  0.00    -0.396 OA
ATOM     26  H2  UNL     1      22.943   9.958  30.263  1.00  0.00     0.209 HD
ENDBRANCH  24  25
ENDBRANCH  21  24
BRANCH  23  27
HETATM   27  O4  UNL     1      18.454   7.281  29.289  1.00  0.00    -0.367 OA
ATOM     28  H4  UNL     1      19.045   7.408  30.022  1.00  0.00     0.212 HD
ENDBRANCH  23  27
ENDBRANCH   1  19
TORSDOF 9
ENDMDL
