MODEL 1
REMARK VINA RESULT: -9.135371346      0.000      0.000
REMARK  9 active torsions:
REMARK  status: ('A' for Active; 'I' for Inactive)
REMARK    1  A    between atoms: N1_2  and  C2_3 
REMARK    2  A    between atoms: C2_3  and  C3_4 
REMARK       I    between atoms: C3_4  and  N2_6 
REMARK    3  A    between atoms: N2_6  and  C4_8 
REMARK    4  A    between atoms: C6_12  and  O2_13 
REMARK    5  A    between atoms: N5_19  and  S1_20 
REMARK    6  A    between atoms: S1_20  and  C9_23 
REMARK    7  A    between atoms: C10_24  and  C11_25 
REMARK    8  A    between atoms: C11_25  and  C12_26 
REMARK    9  A    between atoms: C12_26  and  C13_27 
ROOT
HETATM    1  C1  UNL     1       6.129   8.911  24.442  1.00  0.00     0.286 C 
HETATM    2  N1  UNL     1       6.578   8.098  23.330  1.00  0.00     0.021 N 
HETATM    3  C7  UNL     1       6.443   8.876  22.111  1.00  0.00     0.271 C 
HETATM    4  C8  UNL     1       6.508   7.768  21.062  1.00  0.00     0.175 C 
HETATM    5  N5  UNL     1       5.826   6.688  21.715  1.00  0.00    -0.216 N 
HETATM    6  C20 UNL     1       5.710   7.002  23.091  1.00  0.00     0.431 C 
HETATM    7  O5  UNL     1       4.972   6.422  23.959  1.00  0.00    -0.238 OA
ENDROOT
BRANCH   2   8
HETATM    8  C2  UNL     1       7.912   7.599  23.494  1.00  0.00     0.352 C 
BRANCH   8   9
HETATM    9  C3  UNL     1       8.883   8.569  23.975  1.00  0.00     0.262 C 
HETATM   10  O1  UNL     1       9.505   9.301  23.172  1.00  0.00    -0.271 OA
HETATM   11  N2  UNL     1       9.161   8.722  25.366  1.00  0.00    -0.158 N 
ATOM     12  H2  UNL     1       8.541   9.304  25.928  1.00  0.00     0.187 HD
BRANCH  11  13
HETATM   13  C4  UNL     1      10.161   8.156  25.936  1.00  0.00     0.686 A 
HETATM   14  N3  UNL     1      10.112   7.553  27.135  1.00  0.00    -0.197 N 
HETATM   15  C5  UNL     1      11.334   7.057  27.447  1.00  0.00     0.162 A 
ATOM     16  H3  UNL     1       9.280   7.481  27.722  1.00  0.00     0.183 HD
HETATM   17  C6  UNL     1      12.167   7.368  26.396  1.00  0.00     0.171 A 
HETATM   18  N4  UNL     1      11.404   8.044  25.489  1.00  0.00    -0.169 N 
ATOM     19  H4  UNL     1      11.741   8.409  24.598  1.00  0.00     0.186 HD
BRANCH  17  20
HETATM   20  O2  UNL     1      13.507   7.035  26.326  1.00  0.00    -0.345 OA
ATOM     21  H2  UNL     1      14.055   7.151  25.559  1.00  0.00     0.219 HD
ENDBRANCH  17  20
ENDBRANCH  11  13
ENDBRANCH   8   9
ENDBRANCH   2   8
BRANCH   5  22
HETATM   22  S1  UNL     1       5.196   5.197  21.022  1.00  0.00     0.258 S 
HETATM   23  O3  UNL     1       5.312   5.474  19.519  1.00  0.00    -0.201 OA
HETATM   24  O4  UNL     1       3.785   5.090  21.371  1.00  0.00    -0.201 OA
BRANCH  22  25
HETATM   25  C9  UNL     1       6.235   3.867  21.401  1.00  0.00     0.128 C 
HETATM   26  C10 UNL     1       5.779   2.542  21.746  1.00  0.00    -0.013 C 
BRANCH  26  27
HETATM   27  C11 UNL     1       4.894   1.695  20.926  1.00  0.00     0.028 C 
BRANCH  27  28
HETATM   28  C12 UNL     1       4.913   1.875  19.456  1.00  0.00     0.009 C 
BRANCH  28  29
HETATM   29  C13 UNL     1       5.607   0.698  18.771  1.00  0.00    -0.010 C 
HETATM   30  C14 UNL     1       7.116   0.813  18.823  1.00  0.00     0.009 C 
HETATM   31  C15 UNL     1       7.489   0.650  17.366  1.00  0.00    -0.014 C 
HETATM   32  C16 UNL     1       7.073  -0.704  16.852  1.00  0.00     0.005 C 
HETATM   33  C19 UNL     1       6.377   1.502  16.727  1.00  0.00     0.009 C 
HETATM   34  C17 UNL     1       5.558  -0.683  16.771  1.00  0.00     0.005 C 
HETATM   35  C18 UNL     1       5.221   0.674  17.313  1.00  0.00    -0.010 C 
ENDBRANCH  28  29
ENDBRANCH  27  28
ENDBRANCH  26  27
ENDBRANCH  22  25
ENDBRANCH   5  22
TORSDOF 9
ENDMDL
MODEL 2
REMARK VINA RESULT: -9.079224108      0.621      1.067
REMARK  9 active torsions:
REMARK  status: ('A' for Active; 'I' for Inactive)
REMARK    1  A    between atoms: N1_2  and  C2_3 
REMARK    2  A    between atoms: C2_3  and  C3_4 
REMARK       I    between atoms: C3_4  and  N2_6 
REMARK    3  A    between atoms: N2_6  and  C4_8 
REMARK    4  A    between atoms: C6_12  and  O2_13 
REMARK    5  A    between atoms: N5_19  and  S1_20 
REMARK    6  A    between atoms: S1_20  and  C9_23 
REMARK    7  A    between atoms: C10_24  and  C11_25 
REMARK    8  A    between atoms: C11_25  and  C12_26 
REMARK    9  A    between atoms: C12_26  and  C13_27 
ROOT
HETATM    1  C1  UNL     1       6.104   8.920  24.333  1.00  0.00     0.286 C 
HETATM    2  N1  UNL     1       6.552   8.040  23.273  1.00  0.00     0.021 N 
HETATM    3  C7  UNL     1       6.407   8.737  22.006  1.00  0.00     0.271 C 
HETATM    4  C8  UNL     1       6.471   7.564  21.030  1.00  0.00     0.175 C 
HETATM    5  N5  UNL     1       5.798   6.525  21.755  1.00  0.00    -0.216 N 
HETATM    6  C20 UNL     1       5.687   6.926  23.109  1.00  0.00     0.431 C 
HETATM    7  O5  UNL     1       4.957   6.400  24.016  1.00  0.00    -0.238 OA
ENDROOT
BRANCH   2   8
HETATM    8  C2  UNL     1       7.888   7.558  23.460  1.00  0.00     0.352 C 
BRANCH   8   9
HETATM    9  C3  UNL     1       8.836   8.538  23.966  1.00  0.00     0.262 C 
HETATM   10  O1  UNL     1       9.453   9.293  23.179  1.00  0.00    -0.271 OA
HETATM   11  N2  UNL     1       9.097   8.676  25.361  1.00  0.00    -0.158 N 
ATOM     12  H2  UNL     1       8.460   9.239  25.925  1.00  0.00     0.187 HD
BRANCH  11  13
HETATM   13  C4  UNL     1      10.100   8.121  25.935  1.00  0.00     0.686 A 
HETATM   14  N3  UNL     1      10.055   7.523  27.136  1.00  0.00    -0.197 N 
HETATM   15  C5  UNL     1      11.281   7.038  27.451  1.00  0.00     0.162 A 
ATOM     16  H3  UNL     1       9.224   7.446  27.723  1.00  0.00     0.183 HD
HETATM   17  C6  UNL     1      12.113   7.350  26.399  1.00  0.00     0.171 A 
HETATM   18  N4  UNL     1      11.345   8.017  25.488  1.00  0.00    -0.169 N 
ATOM     19  H4  UNL     1      11.679   8.381  24.596  1.00  0.00     0.186 HD
BRANCH  17  20
HETATM   20  O2  UNL     1      13.455   7.028  26.331  1.00  0.00    -0.345 OA
ATOM     21  H2  UNL     1      13.928   6.840  25.528  1.00  0.00     0.219 HD
ENDBRANCH  17  20
ENDBRANCH  11  13
ENDBRANCH   8   9
ENDBRANCH   2   8
BRANCH   5  22
HETATM   22  S1  UNL     1       5.171   4.990  21.163  1.00  0.00     0.258 S 
HETATM   23  O3  UNL     1       5.458   5.092  19.660  1.00  0.00    -0.201 OA
HETATM   24  O4  UNL     1       3.727   4.977  21.363  1.00  0.00    -0.201 OA
BRANCH  22  25
HETATM   25  C9  UNL     1       6.097   3.674  21.795  1.00  0.00     0.128 C 
HETATM   26  C10 UNL     1       6.486   2.507  21.040  1.00  0.00    -0.013 C 
BRANCH  26  27
HETATM   27  C11 UNL     1       7.246   2.513  19.777  1.00  0.00     0.028 C 
BRANCH  27  28
HETATM   28  C12 UNL     1       7.812   1.234  19.291  1.00  0.00     0.009 C 
BRANCH  28  29
HETATM   29  C13 UNL     1       6.733   0.375  18.632  1.00  0.00    -0.010 C 
HETATM   30  C14 UNL     1       7.269  -0.420  17.460  1.00  0.00     0.009 C 
HETATM   31  C15 UNL     1       6.300  -0.044  16.362  1.00  0.00    -0.014 C 
HETATM   32  C16 UNL     1       4.899  -0.479  16.707  1.00  0.00     0.005 C 
HETATM   33  C19 UNL     1       6.163   1.462  16.655  1.00  0.00     0.009 C 
HETATM   34  C17 UNL     1       4.437   0.424  17.835  1.00  0.00     0.005 C 
HETATM   35  C18 UNL     1       5.647   1.273  18.091  1.00  0.00    -0.010 C 
ENDBRANCH  28  29
ENDBRANCH  27  28
ENDBRANCH  26  27
ENDBRANCH  22  25
ENDBRANCH   5  22
TORSDOF 9
ENDMDL
MODEL 3
REMARK VINA RESULT: -8.720993419      1.241      1.662
REMARK  9 active torsions:
REMARK  status: ('A' for Active; 'I' for Inactive)
REMARK    1  A    between atoms: N1_2  and  C2_3 
REMARK    2  A    between atoms: C2_3  and  C3_4 
REMARK       I    between atoms: C3_4  and  N2_6 
REMARK    3  A    between atoms: N2_6  and  C4_8 
REMARK    4  A    between atoms: C6_12  and  O2_13 
REMARK    5  A    between atoms: N5_19  and  S1_20 
REMARK    6  A    between atoms: S1_20  and  C9_23 
REMARK    7  A    between atoms: C10_24  and  C11_25 
REMARK    8  A    between atoms: C11_25  and  C12_26 
REMARK    9  A    between atoms: C12_26  and  C13_27 
ROOT
HETATM    1  C1  UNL     1       5.518   8.582  23.656  1.00  0.00     0.286 C 
HETATM    2  N1  UNL     1       5.882   7.568  22.688  1.00  0.00     0.021 N 
HETATM    3  C7  UNL     1       5.541   8.056  21.363  1.00  0.00     0.271 C 
HETATM    4  C8  UNL     1       5.553   6.750  20.570  1.00  0.00     0.175 C 
HETATM    5  N5  UNL     1       5.036   5.810  21.522  1.00  0.00    -0.216 N 
HETATM    6  C20 UNL     1       5.070   6.410  22.805  1.00  0.00     0.431 C 
HETATM    7  O5  UNL     1       4.489   6.001  23.867  1.00  0.00    -0.238 OA
ENDROOT
BRANCH   2   8
HETATM    8  C2  UNL     1       7.257   7.173  22.769  1.00  0.00     0.352 C 
BRANCH   8   9
HETATM    9  C3  UNL     1       8.198   8.250  23.031  1.00  0.00     0.262 C 
HETATM   10  O1  UNL     1       8.888   8.734  22.103  1.00  0.00    -0.271 OA
HETATM   11  N2  UNL     1       8.370   8.793  24.338  1.00  0.00    -0.158 N 
ATOM     12  H2  UNL     1       7.714   9.502  24.664  1.00  0.00     0.187 HD
BRANCH  11  13
HETATM   13  C4  UNL     1       9.316   8.422  25.121  1.00  0.00     0.686 A 
HETATM   14  N3  UNL     1      10.607   8.757  24.965  1.00  0.00    -0.197 N 
HETATM   15  C5  UNL     1      11.345   8.206  25.959  1.00  0.00     0.162 A 
ATOM     16  H3  UNL     1      10.976   9.337  24.211  1.00  0.00     0.183 HD
HETATM   17  C6  UNL     1      10.471   7.505  26.759  1.00  0.00     0.171 A 
HETATM   18  N4  UNL     1       9.233   7.665  26.206  1.00  0.00    -0.169 N 
ATOM     19  H4  UNL     1       8.372   7.261  26.573  1.00  0.00     0.186 HD
BRANCH  17  20
HETATM   20  O2  UNL     1      10.830   6.795  27.890  1.00  0.00    -0.345 OA
ATOM     21  H2  UNL     1      10.384   6.847  28.727  1.00  0.00     0.219 HD
ENDBRANCH  17  20
ENDBRANCH  11  13
ENDBRANCH   8   9
ENDBRANCH   2   8
BRANCH   5  22
HETATM   22  S1  UNL     1       4.431   4.179  21.250  1.00  0.00     0.258 S 
HETATM   23  O3  UNL     1       4.481   4.076  19.721  1.00  0.00    -0.201 OA
HETATM   24  O4  UNL     1       3.038   4.130  21.677  1.00  0.00    -0.201 OA
BRANCH  22  25
HETATM   25  C9  UNL     1       5.528   3.010  21.899  1.00  0.00     0.128 C 
HETATM   26  C10 UNL     1       6.283   2.067  21.110  1.00  0.00    -0.013 C 
BRANCH  26  27
HETATM   27  C11 UNL     1       7.203   2.407  20.009  1.00  0.00     0.028 C 
BRANCH  27  28
HETATM   28  C12 UNL     1       7.824   1.300  19.246  1.00  0.00     0.009 C 
BRANCH  28  29
HETATM   29  C13 UNL     1       6.756   0.407  18.613  1.00  0.00    -0.010 C 
HETATM   30  C14 UNL     1       7.303  -0.410  17.462  1.00  0.00     0.009 C 
HETATM   31  C15 UNL     1       6.325  -0.079  16.356  1.00  0.00    -0.014 C 
HETATM   32  C16 UNL     1       4.932  -0.526  16.716  1.00  0.00     0.005 C 
HETATM   33  C19 UNL     1       6.166   1.432  16.609  1.00  0.00     0.009 C 
HETATM   34  C17 UNL     1       4.458   0.400  17.821  1.00  0.00     0.005 C 
HETATM   35  C18 UNL     1       5.656   1.273  18.051  1.00  0.00    -0.010 C 
ENDBRANCH  28  29
ENDBRANCH  27  28
ENDBRANCH  26  27
ENDBRANCH  22  25
ENDBRANCH   5  22
TORSDOF 9
ENDMDL
MODEL 4
REMARK VINA RESULT: -8.524440489      1.768      2.640
REMARK  9 active torsions:
REMARK  status: ('A' for Active; 'I' for Inactive)
REMARK    1  A    between atoms: N1_2  and  C2_3 
REMARK    2  A    between atoms: C2_3  and  C3_4 
REMARK       I    between atoms: C3_4  and  N2_6 
REMARK    3  A    between atoms: N2_6  and  C4_8 
REMARK    4  A    between atoms: C6_12  and  O2_13 
REMARK    5  A    between atoms: N5_19  and  S1_20 
REMARK    6  A    between atoms: S1_20  and  C9_23 
REMARK    7  A    between atoms: C10_24  and  C11_25 
REMARK    8  A    between atoms: C11_25  and  C12_26 
REMARK    9  A    between atoms: C12_26  and  C13_27 
ROOT
HETATM    1  C1  UNL     1       3.013   7.123  24.291  1.00  0.00     0.286 C 
HETATM    2  N1  UNL     1       3.709   7.134  23.021  1.00  0.00     0.021 N 
HETATM    3  C7  UNL     1       2.792   7.610  21.999  1.00  0.00     0.271 C 
HETATM    4  C8  UNL     1       3.505   7.132  20.736  1.00  0.00     0.175 C 
HETATM    5  N5  UNL     1       4.071   5.883  21.158  1.00  0.00    -0.216 N 
HETATM    6  C20 UNL     1       4.012   5.822  22.572  1.00  0.00     0.431 C 
HETATM    7  O5  UNL     1       4.193   4.796  23.312  1.00  0.00    -0.238 OA
ENDROOT
BRANCH   2   8
HETATM    8  C2  UNL     1       4.919   7.901  23.043  1.00  0.00     0.352 C 
BRANCH   8   9
HETATM    9  C3  UNL     1       5.451   8.183  24.367  1.00  0.00     0.262 C 
HETATM   10  O1  UNL     1       4.956   9.093  25.072  1.00  0.00    -0.271 OA
HETATM   11  N2  UNL     1       6.545   7.445  24.907  1.00  0.00    -0.158 N 
ATOM     12  H2  UNL     1       6.358   6.546  25.350  1.00  0.00     0.187 HD
BRANCH  11  13
HETATM   13  C4  UNL     1       7.755   7.867  24.857  1.00  0.00     0.686 A 
HETATM   14  N3  UNL     1       8.668   7.676  25.823  1.00  0.00    -0.197 N 
HETATM   15  C5  UNL     1       9.844   8.244  25.459  1.00  0.00     0.162 A 
ATOM     16  H3  UNL     1       8.502   7.179  26.698  1.00  0.00     0.183 HD
HETATM   17  C6  UNL     1       9.644   8.807  24.218  1.00  0.00     0.171 A 
HETATM   18  N4  UNL     1       8.345   8.551  23.886  1.00  0.00    -0.169 N 
ATOM     19  H4  UNL     1       7.894   8.843  23.019  1.00  0.00     0.186 HD
BRANCH  17  20
HETATM   20  O2  UNL     1      10.606   9.486  23.495  1.00  0.00    -0.345 OA
ATOM     21  H2  UNL     1      11.251  10.076  23.869  1.00  0.00     0.219 HD
ENDBRANCH  17  20
ENDBRANCH  11  13
ENDBRANCH   8   9
ENDBRANCH   2   8
BRANCH   5  22
HETATM   22  S1  UNL     1       4.740   4.583  20.177  1.00  0.00     0.258 S 
HETATM   23  O3  UNL     1       4.760   5.220  18.782  1.00  0.00    -0.201 OA
HETATM   24  O4  UNL     1       3.790   3.477  20.172  1.00  0.00    -0.201 OA
BRANCH  22  25
HETATM   25  C9  UNL     1       6.375   4.256  20.638  1.00  0.00     0.128 C 
HETATM   26  C10 UNL     1       6.820   3.040  21.275  1.00  0.00    -0.013 C 
BRANCH  26  27
HETATM   27  C11 UNL     1       6.631   1.675  20.753  1.00  0.00     0.028 C 
BRANCH  27  28
HETATM   28  C12 UNL     1       7.428   1.256  19.578  1.00  0.00     0.009 C 
BRANCH  28  29
HETATM   29  C13 UNL     1       6.576   0.444  18.602  1.00  0.00    -0.010 C 
HETATM   30  C14 UNL     1       7.204   0.360  17.226  1.00  0.00     0.009 C 
HETATM   31  C15 UNL     1       6.072   0.830  16.340  1.00  0.00    -0.014 C 
HETATM   32  C16 UNL     1       4.887  -0.094  16.444  1.00  0.00     0.005 C 
HETATM   33  C19 UNL     1       5.547   1.993  17.202  1.00  0.00     0.009 C 
HETATM   34  C17 UNL     1       4.295   0.124  17.825  1.00  0.00     0.005 C 
HETATM   35  C18 UNL     1       5.238   1.121  18.430  1.00  0.00    -0.010 C 
ENDBRANCH  28  29
ENDBRANCH  27  28
ENDBRANCH  26  27
ENDBRANCH  22  25
ENDBRANCH   5  22
TORSDOF 9
ENDMDL
MODEL 5
REMARK VINA RESULT: -8.484452657      1.200      1.797
REMARK  9 active torsions:
REMARK  status: ('A' for Active; 'I' for Inactive)
REMARK    1  A    between atoms: N1_2  and  C2_3 
REMARK    2  A    between atoms: C2_3  and  C3_4 
REMARK       I    between atoms: C3_4  and  N2_6 
REMARK    3  A    between atoms: N2_6  and  C4_8 
REMARK    4  A    between atoms: C6_12  and  O2_13 
REMARK    5  A    between atoms: N5_19  and  S1_20 
REMARK    6  A    between atoms: S1_20  and  C9_23 
REMARK    7  A    between atoms: C10_24  and  C11_25 
REMARK    8  A    between atoms: C11_25  and  C12_26 
REMARK    9  A    between atoms: C12_26  and  C13_27 
ROOT
HETATM    1  C1  UNL     1       6.030   8.896  24.298  1.00  0.00     0.286 C 
HETATM    2  N1  UNL     1       6.589   8.071  23.247  1.00  0.00     0.021 N 
HETATM    3  C7  UNL     1       6.603   8.845  22.016  1.00  0.00     0.271 C 
HETATM    4  C8  UNL     1       6.769   7.729  20.986  1.00  0.00     0.175 C 
HETATM    5  N5  UNL     1       6.002   6.663  21.562  1.00  0.00    -0.216 N 
HETATM    6  C20 UNL     1       5.737   6.986  22.916  1.00  0.00     0.431 C 
HETATM    7  O5  UNL     1       4.899   6.421  23.698  1.00  0.00    -0.238 OA
ENDROOT
BRANCH   2   8
HETATM    8  C2  UNL     1       7.888   7.555  23.560  1.00  0.00     0.352 C 
BRANCH   8   9
HETATM    9  C3  UNL     1       8.841   8.533  24.061  1.00  0.00     0.262 C 
HETATM   10  O1  UNL     1       9.451   9.290  23.271  1.00  0.00    -0.271 OA
HETATM   11  N2  UNL     1       9.115   8.665  25.454  1.00  0.00    -0.158 N 
ATOM     12  H2  UNL     1       8.484   9.226  26.026  1.00  0.00     0.187 HD
BRANCH  11  13
HETATM   13  C4  UNL     1      10.124   8.107  26.016  1.00  0.00     0.686 A 
HETATM   14  N3  UNL     1      10.092   7.510  27.218  1.00  0.00    -0.197 N 
HETATM   15  C5  UNL     1      11.320   7.021  27.519  1.00  0.00     0.162 A 
ATOM     16  H3  UNL     1       9.267   7.436  27.815  1.00  0.00     0.183 HD
HETATM   17  C6  UNL     1      12.139   7.331  26.457  1.00  0.00     0.171 A 
HETATM   18  N4  UNL     1      11.363   7.999  25.555  1.00  0.00    -0.169 N 
ATOM     19  H4  UNL     1      11.687   8.362  24.659  1.00  0.00     0.186 HD
BRANCH  17  20
HETATM   20  O2  UNL     1      13.480   7.005  26.373  1.00  0.00    -0.345 OA
ATOM     21  H2  UNL     1      14.196   7.615  26.504  1.00  0.00     0.219 HD
ENDBRANCH  17  20
ENDBRANCH  11  13
ENDBRANCH   8   9
ENDBRANCH   2   8
BRANCH   5  22
HETATM   22  S1  UNL     1       5.432   5.177  20.809  1.00  0.00     0.258 S 
HETATM   23  O3  UNL     1       5.133   4.299  22.031  1.00  0.00    -0.201 OA
HETATM   24  O4  UNL     1       6.539   4.586  20.067  1.00  0.00    -0.201 OA
BRANCH  22  25
HETATM   25  C9  UNL     1       3.943   5.454  19.974  1.00  0.00     0.128 C 
HETATM   26  C10 UNL     1       3.605   4.891  18.690  1.00  0.00    -0.013 C 
BRANCH  26  27
HETATM   27  C11 UNL     1       3.596   3.455  18.354  1.00  0.00     0.028 C 
BRANCH  27  28
HETATM   28  C12 UNL     1       4.298   3.016  17.127  1.00  0.00     0.009 C 
BRANCH  28  29
HETATM   29  C13 UNL     1       5.630   2.349  17.470  1.00  0.00    -0.010 C 
HETATM   30  C14 UNL     1       6.147   1.485  16.338  1.00  0.00     0.009 C 
HETATM   31  C15 UNL     1       6.393   0.168  17.042  1.00  0.00    -0.014 C 
HETATM   32  C16 UNL     1       7.436   0.320  18.118  1.00  0.00     0.005 C 
HETATM   33  C19 UNL     1       5.135   0.121  17.930  1.00  0.00     0.009 C 
HETATM   34  C17 UNL     1       6.793   1.133  19.225  1.00  0.00     0.005 C 
HETATM   35  C18 UNL     1       5.438   1.441  18.660  1.00  0.00    -0.010 C 
ENDBRANCH  28  29
ENDBRANCH  27  28
ENDBRANCH  26  27
ENDBRANCH  22  25
ENDBRANCH   5  22
TORSDOF 9
ENDMDL
