MODEL 1
REMARK VINA RESULT: -6.712455698      0.000      0.000
REMARK  7 active torsions:
REMARK  status: ('A' for Active; 'I' for Inactive)
REMARK    1  A    between atoms: C2_2  and  N1_4 
REMARK    2  A    between atoms: N1_4  and  C5_6 
REMARK    3  A    between atoms: C5_6  and  C6_7 
REMARK    4  A    between atoms: C8_10  and  C9_11 
REMARK       I    between atoms: C9_11  and  N2_13 
REMARK    5  A    between atoms: N3_16  and  C12_17 
REMARK    6  A    between atoms: C12_17  and  C13_18 
REMARK    7  A    between atoms: C13_18  and  N4_19 
ROOT
HETATM    1  C9  UNL     1       6.361   1.245  19.260  1.00  0.00     0.249 C 
HETATM    2  O2  UNL     1       7.035   1.312  20.342  1.00  0.00    -0.272 OA
HETATM    3  N2  UNL     1       6.913   0.587  18.152  1.00  0.00    -0.149 N 
HETATM    4  C10 UNL     1       6.243   0.393  16.861  1.00  0.00     0.171 C 
HETATM    5  C11 UNL     1       6.767  -0.979  16.446  1.00  0.00     0.162 C 
HETATM    6  N3  UNL     1       8.147  -1.028  16.977  1.00  0.00    -0.215 N 
HETATM    7  C21 UNL     1       8.193  -0.030  17.983  1.00  0.00     0.678 C 
HETATM    8  N5  UNL     1       9.230   0.303  18.662  1.00  0.00    -0.234 N 
ATOM      9  H51 UNL     1      10.142  -0.137  18.541  1.00  0.00     0.174 HD
ATOM     10  H52 UNL     1       9.263   1.021  19.386  1.00  0.00     0.174 HD
ENDROOT
BRANCH   1  11
HETATM   11  C8  UNL     1       5.033   1.891  19.293  1.00  0.00     0.150 C 
HETATM   12  C7  UNL     1       5.152   3.403  19.257  1.00  0.00     0.150 C 
HETATM   13  C6  UNL     1       4.954   3.818  20.639  1.00  0.00     0.109 C 
HETATM   14  O1  UNL     1       5.367   3.966  18.213  1.00  0.00    -0.296 OA
HETATM   15  C23 UNL     1       3.835   2.900  21.108  1.00  0.00     0.076 C 
HETATM   16  C22 UNL     1       4.296   1.565  20.573  1.00  0.00     0.039 C 
HETATM   17  S1  UNL     1       3.759   2.813  22.901  1.00  0.00    -0.091 SA
BRANCH  13  18
HETATM   18  C5  UNL     1       4.689   5.236  20.937  1.00  0.00     0.077 C 
BRANCH  18  19
HETATM   19  N1  UNL     1       5.677   6.017  21.569  1.00  0.00    -0.368 N 
HETATM   20  C4  UNL     1       7.066   5.955  21.217  1.00  0.00     0.155 C 
BRANCH  19  21
HETATM   21  C2  UNL     1       5.296   6.913  22.601  1.00  0.00    -0.003 C 
HETATM   22  C1  UNL     1       4.404   6.533  23.477  1.00  0.00     0.037 C 
HETATM   23  C3  UNL     1       5.907   8.249  22.668  1.00  0.00     0.067 C 
ENDBRANCH  19  21
ENDBRANCH  18  19
ENDBRANCH  13  18
ENDBRANCH   1  11
BRANCH   6  24
HETATM   24  C12 UNL     1       9.162  -1.947  16.492  1.00  0.00     0.169 C 
BRANCH  24  25
HETATM   25  C13 UNL     1       8.748  -2.584  15.226  1.00  0.00     0.258 C 
BRANCH  25  26
HETATM   26  N4  UNL     1       8.688  -4.007  15.359  1.00  0.00    -0.061 N 
HETATM   27  C14 UNL     1       9.079  -4.708  14.150  1.00  0.00     0.238 C 
HETATM   28  C15 UNL     1       8.438  -6.090  14.224  1.00  0.00     0.034 C 
HETATM   29  C16 UNL     1       7.749  -6.018  15.570  1.00  0.00     0.019 C 
HETATM   30  C17 UNL     1       8.819  -5.992  16.613  1.00  0.00     0.034 C 
HETATM   31  C19 UNL     1       7.343  -4.531  15.557  1.00  0.00     0.190 C 
HETATM   32  C18 UNL     1       9.394  -4.579  16.453  1.00  0.00     0.238 C 
HETATM   33  C20 UNL     1       6.425  -4.262  14.413  1.00  0.00     0.041 C 
ENDBRANCH  25  26
ENDBRANCH  24  25
ENDBRANCH   6  24
TORSDOF 7
ENDMDL
MODEL 2
REMARK VINA RESULT: -6.612920633      6.094      9.789
REMARK  7 active torsions:
REMARK  status: ('A' for Active; 'I' for Inactive)
REMARK    1  A    between atoms: C2_2  and  N1_4 
REMARK    2  A    between atoms: N1_4  and  C5_6 
REMARK    3  A    between atoms: C5_6  and  C6_7 
REMARK    4  A    between atoms: C8_10  and  C9_11 
REMARK       I    between atoms: C9_11  and  N2_13 
REMARK    5  A    between atoms: N3_16  and  C12_17 
REMARK    6  A    between atoms: C12_17  and  C13_18 
REMARK    7  A    between atoms: C13_18  and  N4_19 
ROOT
HETATM    1  C9  UNL     1       4.484   2.897  14.526  1.00  0.00     0.249 C 
HETATM    2  O2  UNL     1       4.906   2.070  13.649  1.00  0.00    -0.272 OA
HETATM    3  N2  UNL     1       4.607   4.272  14.280  1.00  0.00    -0.149 N 
HETATM    4  C10 UNL     1       4.131   5.338  15.172  1.00  0.00     0.171 C 
HETATM    5  C11 UNL     1       3.687   6.400  14.169  1.00  0.00     0.162 C 
HETATM    6  N3  UNL     1       4.631   6.264  13.038  1.00  0.00    -0.215 N 
HETATM    7  C21 UNL     1       5.191   4.969  13.175  1.00  0.00     0.678 C 
HETATM    8  N5  UNL     1       6.106   4.465  12.431  1.00  0.00    -0.234 N 
ATOM      9  H51 UNL     1       6.523   4.962  11.643  1.00  0.00     0.174 HD
ATOM     10  H52 UNL     1       6.509   3.533  12.529  1.00  0.00     0.174 HD
ENDROOT
BRANCH   1  11
HETATM   11  C8  UNL     1       3.898   2.297  15.741  1.00  0.00     0.150 C 
HETATM   12  C7  UNL     1       4.950   2.081  16.814  1.00  0.00     0.150 C 
HETATM   13  C6  UNL     1       5.263   0.661  16.737  1.00  0.00     0.109 C 
HETATM   14  O1  UNL     1       5.323   3.008  17.487  1.00  0.00    -0.296 OA
HETATM   15  C23 UNL     1       3.897   0.028  16.514  1.00  0.00     0.076 C 
HETATM   16  C22 UNL     1       3.316   0.932  15.453  1.00  0.00     0.039 C 
HETATM   17  S1  UNL     1       4.039  -1.634  15.848  1.00  0.00    -0.091 SA
BRANCH  13  18
HETATM   18  C5  UNL     1       6.011   0.025  17.835  1.00  0.00     0.077 C 
BRANCH  18  19
HETATM   19  N1  UNL     1       7.383  -0.257  17.678  1.00  0.00    -0.368 N 
HETATM   20  C4  UNL     1       7.887  -1.144  16.670  1.00  0.00     0.155 C 
BRANCH  19  21
HETATM   21  C2  UNL     1       8.320   0.360  18.547  1.00  0.00    -0.003 C 
HETATM   22  C1  UNL     1       7.901   1.250  19.407  1.00  0.00     0.037 C 
HETATM   23  C3  UNL     1       9.740  -0.011  18.467  1.00  0.00     0.067 C 
ENDBRANCH  19  21
ENDBRANCH  18  19
ENDBRANCH  13  18
ENDBRANCH   1  11
BRANCH   6  24
HETATM   24  C12 UNL     1       4.859   7.307  12.053  1.00  0.00     0.169 C 
BRANCH  24  25
HETATM   25  C13 UNL     1       5.176   8.596  12.698  1.00  0.00     0.258 C 
BRANCH  25  26
HETATM   26  N4  UNL     1       6.585   8.740  12.902  1.00  0.00    -0.061 N 
HETATM   27  C14 UNL     1       6.986   8.516  14.278  1.00  0.00     0.238 C 
HETATM   28  C15 UNL     1       8.316   9.239  14.464  1.00  0.00     0.034 C 
HETATM   29  C16 UNL     1       8.544   9.789  13.073  1.00  0.00     0.019 C 
HETATM   30  C17 UNL     1       8.819   8.625  12.177  1.00  0.00     0.034 C 
HETATM   31  C19 UNL     1       7.083  10.092  12.688  1.00  0.00     0.190 C 
HETATM   32  C18 UNL     1       7.435   7.973  12.058  1.00  0.00     0.238 C 
HETATM   33  C20 UNL     1       6.504  11.095  13.628  1.00  0.00     0.041 C 
ENDBRANCH  25  26
ENDBRANCH  24  25
ENDBRANCH   6  24
TORSDOF 7
ENDMDL
MODEL 3
REMARK VINA RESULT: -6.477237662      6.134      9.645
REMARK  7 active torsions:
REMARK  status: ('A' for Active; 'I' for Inactive)
REMARK    1  A    between atoms: C2_2  and  N1_4 
REMARK    2  A    between atoms: N1_4  and  C5_6 
REMARK    3  A    between atoms: C5_6  and  C6_7 
REMARK    4  A    between atoms: C8_10  and  C9_11 
REMARK       I    between atoms: C9_11  and  N2_13 
REMARK    5  A    between atoms: N3_16  and  C12_17 
REMARK    6  A    between atoms: C12_17  and  C13_18 
REMARK    7  A    between atoms: C13_18  and  N4_19 
ROOT
HETATM    1  C9  UNL     1       4.440   2.896  14.531  1.00  0.00     0.249 C 
HETATM    2  O2  UNL     1       4.769   2.044  13.639  1.00  0.00    -0.272 OA
HETATM    3  N2  UNL     1       4.634   4.261  14.275  1.00  0.00    -0.149 N 
HETATM    4  C10 UNL     1       4.266   5.353  15.185  1.00  0.00     0.171 C 
HETATM    5  C11 UNL     1       3.841   6.441  14.201  1.00  0.00     0.162 C 
HETATM    6  N3  UNL     1       4.720   6.246  13.027  1.00  0.00    -0.215 N 
HETATM    7  C21 UNL     1       5.207   4.920  13.142  1.00  0.00     0.678 C 
HETATM    8  N5  UNL     1       6.053   4.360  12.357  1.00  0.00    -0.234 N 
ATOM      9  H51 UNL     1       6.461   4.831  11.549  1.00  0.00     0.174 HD
ATOM     10  H52 UNL     1       6.403   3.406  12.439  1.00  0.00     0.174 HD
ENDROOT
BRANCH   1  11
HETATM   11  C8  UNL     1       3.877   2.333  15.775  1.00  0.00     0.150 C 
HETATM   12  C7  UNL     1       4.955   2.112  16.820  1.00  0.00     0.150 C 
HETATM   13  C6  UNL     1       5.231   0.683  16.762  1.00  0.00     0.109 C 
HETATM   14  O1  UNL     1       5.370   3.042  17.464  1.00  0.00    -0.296 OA
HETATM   15  C23 UNL     1       3.845   0.079  16.592  1.00  0.00     0.076 C 
HETATM   16  C22 UNL     1       3.253   0.977  15.531  1.00  0.00     0.039 C 
HETATM   17  S1  UNL     1       3.928  -1.598  15.955  1.00  0.00    -0.091 SA
BRANCH  13  18
HETATM   18  C5  UNL     1       5.998   0.050  17.850  1.00  0.00     0.077 C 
BRANCH  18  19
HETATM   19  N1  UNL     1       7.365  -0.240  17.669  1.00  0.00    -0.368 N 
HETATM   20  C4  UNL     1       7.844  -1.149  16.669  1.00  0.00     0.155 C 
BRANCH  19  21
HETATM   21  C2  UNL     1       8.322   0.393  18.503  1.00  0.00    -0.003 C 
HETATM   22  C1  UNL     1       7.915   1.238  19.412  1.00  0.00     0.037 C 
HETATM   23  C3  UNL     1       9.751   0.088  18.332  1.00  0.00     0.067 C 
ENDBRANCH  19  21
ENDBRANCH  18  19
ENDBRANCH  13  18
ENDBRANCH   1  11
BRANCH   6  24
HETATM   24  C12 UNL     1       4.964   7.273  12.028  1.00  0.00     0.169 C 
BRANCH  24  25
HETATM   25  C13 UNL     1       6.387   7.319  11.641  1.00  0.00     0.258 C 
BRANCH  25  26
HETATM   26  N4  UNL     1       7.049   8.440  12.235  1.00  0.00    -0.061 N 
HETATM   27  C14 UNL     1       8.376   8.668  11.695  1.00  0.00     0.238 C 
HETATM   28  C15 UNL     1       9.145   9.452  12.754  1.00  0.00     0.034 C 
HETATM   29  C16 UNL     1       8.083   9.621  13.818  1.00  0.00     0.019 C 
HETATM   30  C17 UNL     1       7.051  10.552  13.269  1.00  0.00     0.034 C 
HETATM   31  C19 UNL     1       7.353   8.274  13.649  1.00  0.00     0.190 C 
HETATM   32  C18 UNL     1       6.345   9.677  12.226  1.00  0.00     0.238 C 
HETATM   33  C20 UNL     1       8.289   7.147  13.928  1.00  0.00     0.041 C 
ENDBRANCH  25  26
ENDBRANCH  24  25
ENDBRANCH   6  24
TORSDOF 7
ENDMDL
MODEL 4
REMARK VINA RESULT: -6.460638189      3.712      6.243
REMARK  7 active torsions:
REMARK  status: ('A' for Active; 'I' for Inactive)
REMARK    1  A    between atoms: C2_2  and  N1_4 
REMARK    2  A    between atoms: N1_4  and  C5_6 
REMARK    3  A    between atoms: C5_6  and  C6_7 
REMARK    4  A    between atoms: C8_10  and  C9_11 
REMARK       I    between atoms: C9_11  and  N2_13 
REMARK    5  A    between atoms: N3_16  and  C12_17 
REMARK    6  A    between atoms: C12_17  and  C13_18 
REMARK    7  A    between atoms: C13_18  and  N4_19 
ROOT
HETATM    1  C9  UNL     1       6.582   5.973  21.111  1.00  0.00     0.249 C 
HETATM    2  O2  UNL     1       7.575   5.396  21.668  1.00  0.00    -0.272 OA
HETATM    3  N2  UNL     1       5.679   5.204  20.363  1.00  0.00    -0.149 N 
HETATM    4  C10 UNL     1       4.472   5.719  19.703  1.00  0.00     0.171 C 
HETATM    5  C11 UNL     1       3.511   4.543  19.861  1.00  0.00     0.162 C 
HETATM    6  N3  UNL     1       4.373   3.344  19.779  1.00  0.00    -0.215 N 
HETATM    7  C21 UNL     1       5.684   3.807  20.053  1.00  0.00     0.678 C 
HETATM    8  N5  UNL     1       6.753   3.098  20.026  1.00  0.00    -0.234 N 
ATOM      9  H51 UNL     1       6.756   2.102  19.804  1.00  0.00     0.174 HD
ATOM     10  H52 UNL     1       7.696   3.431  20.223  1.00  0.00     0.174 HD
ENDROOT
BRANCH   1  11
HETATM   11  C8  UNL     1       6.492   7.433  21.318  1.00  0.00     0.150 C 
HETATM   12  C7  UNL     1       7.753   7.980  21.960  1.00  0.00     0.150 C 
HETATM   13  C6  UNL     1       7.403   8.153  23.363  1.00  0.00     0.109 C 
HETATM   14  O1  UNL     1       8.738   8.166  21.291  1.00  0.00    -0.296 OA
HETATM   15  C23 UNL     1       5.984   8.698  23.290  1.00  0.00     0.076 C 
HETATM   16  C22 UNL     1       5.363   7.784  22.261  1.00  0.00     0.039 C 
HETATM   17  S1  UNL     1       5.117   8.494  24.850  1.00  0.00    -0.091 SA
BRANCH  13  18
HETATM   18  C5  UNL     1       8.278   8.959  24.233  1.00  0.00     0.077 C 
BRANCH  18  19
HETATM   19  N1  UNL     1       9.158   8.320  25.129  1.00  0.00    -0.368 N 
HETATM   20  C4  UNL     1       8.725   7.344  26.086  1.00  0.00     0.155 C 
BRANCH  19  21
HETATM   21  C2  UNL     1      10.539   8.643  25.091  1.00  0.00    -0.003 C 
HETATM   22  C1  UNL     1      10.987   9.411  24.134  1.00  0.00     0.037 C 
HETATM   23  C3  UNL     1      11.439   8.113  26.126  1.00  0.00     0.067 C 
ENDBRANCH  19  21
ENDBRANCH  18  19
ENDBRANCH  13  18
ENDBRANCH   1  11
BRANCH   6  24
HETATM   24  C12 UNL     1       3.872   2.015  19.471  1.00  0.00     0.169 C 
BRANCH  24  25
HETATM   25  C13 UNL     1       3.603   1.863  18.028  1.00  0.00     0.258 C 
BRANCH  25  26
HETATM   26  N4  UNL     1       4.347   0.773  17.475  1.00  0.00    -0.061 N 
HETATM   27  C14 UNL     1       5.527   0.439  18.251  1.00  0.00     0.238 C 
HETATM   28  C15 UNL     1       6.481  -0.276  17.300  1.00  0.00     0.034 C 
HETATM   29  C16 UNL     1       5.661  -0.300  16.029  1.00  0.00     0.019 C 
HETATM   30  C17 UNL     1       4.515  -1.232  16.260  1.00  0.00     0.034 C 
HETATM   31  C19 UNL     1       4.943   1.056  16.177  1.00  0.00     0.190 C 
HETATM   32  C18 UNL     1       3.629  -0.427  17.217  1.00  0.00     0.238 C 
HETATM   33  C20 UNL     1       5.943   2.162  16.209  1.00  0.00     0.041 C 
ENDBRANCH  25  26
ENDBRANCH  24  25
ENDBRANCH   6  24
TORSDOF 7
ENDMDL
MODEL 5
REMARK VINA RESULT: -6.312616205      8.854     10.060
REMARK  7 active torsions:
REMARK  status: ('A' for Active; 'I' for Inactive)
REMARK    1  A    between atoms: C2_2  and  N1_4 
REMARK    2  A    between atoms: N1_4  and  C5_6 
REMARK    3  A    between atoms: C5_6  and  C6_7 
REMARK    4  A    between atoms: C8_10  and  C9_11 
REMARK       I    between atoms: C9_11  and  N2_13 
REMARK    5  A    between atoms: N3_16  and  C12_17 
REMARK    6  A    between atoms: C12_17  and  C13_18 
REMARK    7  A    between atoms: C13_18  and  N4_19 
ROOT
HETATM    1  C9  UNL     1       6.766   9.465  18.990  1.00  0.00     0.249 C 
HETATM    2  O2  UNL     1       7.872   8.871  18.755  1.00  0.00    -0.272 OA
HETATM    3  N2  UNL     1       5.990   9.910  17.911  1.00  0.00    -0.149 N 
HETATM    4  C10 UNL     1       4.682  10.568  18.023  1.00  0.00     0.171 C 
HETATM    5  C11 UNL     1       3.963  10.032  16.787  1.00  0.00     0.162 C 
HETATM    6  N3  UNL     1       5.027   9.886  15.771  1.00  0.00    -0.215 N 
HETATM    7  C21 UNL     1       6.240   9.857  16.503  1.00  0.00     0.678 C 
HETATM    8  N5  UNL     1       7.419   9.799  16.000  1.00  0.00    -0.234 N 
ATOM      9  H51 UNL     1       7.597   9.762  14.997  1.00  0.00     0.174 HD
ATOM     10  H52 UNL     1       8.292   9.778  16.527  1.00  0.00     0.174 HD
ENDROOT
BRANCH   1  11
HETATM   11  C8  UNL     1       6.416   9.625  20.416  1.00  0.00     0.150 C 
HETATM   12  C7  UNL     1       7.606   9.339  21.313  1.00  0.00     0.150 C 
HETATM   13  C6  UNL     1       7.373   7.991  21.811  1.00  0.00     0.109 C 
HETATM   14  O1  UNL     1       8.464  10.173  21.460  1.00  0.00    -0.296 OA
HETATM   15  C23 UNL     1       5.875   7.988  22.081  1.00  0.00     0.076 C 
HETATM   16  C22 UNL     1       5.342   8.645  20.831  1.00  0.00     0.039 C 
HETATM   17  S1  UNL     1       5.225   6.317  22.183  1.00  0.00    -0.091 SA
BRANCH  13  18
HETATM   18  C5  UNL     1       8.158   7.497  22.955  1.00  0.00     0.077 C 
BRANCH  18  19
HETATM   19  N1  UNL     1       8.122   8.188  24.183  1.00  0.00    -0.368 N 
HETATM   20  C4  UNL     1       6.901   8.609  24.806  1.00  0.00     0.155 C 
BRANCH  19  21
HETATM   21  C2  UNL     1       9.341   8.486  24.845  1.00  0.00    -0.003 C 
HETATM   22  C1  UNL     1      10.181   9.318  24.289  1.00  0.00     0.037 C 
HETATM   23  C3  UNL     1       9.637   7.858  26.141  1.00  0.00     0.067 C 
ENDBRANCH  19  21
ENDBRANCH  18  19
ENDBRANCH  13  18
ENDBRANCH   1  11
BRANCH   6  24
HETATM   24  C12 UNL     1       4.767   9.802  14.344  1.00  0.00     0.169 C 
BRANCH  24  25
HETATM   25  C13 UNL     1       5.023   8.442  13.830  1.00  0.00     0.258 C 
BRANCH  25  26
HETATM   26  N4  UNL     1       5.567   8.483  12.507  1.00  0.00    -0.061 N 
HETATM   27  C14 UNL     1       5.330   7.263  11.758  1.00  0.00     0.238 C 
HETATM   28  C15 UNL     1       6.400   7.207  10.672  1.00  0.00     0.034 C 
HETATM   29  C16 UNL     1       7.139   8.503  10.926  1.00  0.00     0.019 C 
HETATM   30  C17 UNL     1       6.215   9.618  10.553  1.00  0.00     0.034 C 
HETATM   31  C19 UNL     1       7.021   8.554  12.462  1.00  0.00     0.190 C 
HETATM   32  C18 UNL     1       5.190   9.586  11.693  1.00  0.00     0.238 C 
HETATM   33  C20 UNL     1       7.695   7.368  13.066  1.00  0.00     0.041 C 
ENDBRANCH  25  26
ENDBRANCH  24  25
ENDBRANCH   6  24
TORSDOF 7
ENDMDL
