MODEL 1
REMARK VINA RESULT: -7.047624723      0.000      0.000
REMARK  3 active torsions:
REMARK  status: ('A' for Active; 'I' for Inactive)
REMARK    1  A    between atoms: C2_2  and  C3_3 
REMARK    2  A    between atoms: C11_12  and  C12_13 
REMARK    3  A    between atoms: C14_17  and  N2_18 
ROOT
HETATM    1  C3  UNL     1      30.229  32.246  12.273  1.00  0.00    -0.012 A 
HETATM    2  C4  UNL     1      28.935  32.659  11.945  1.00  0.00     0.129 A 
HETATM    3  F1  UNL     1      28.669  33.961  12.053  1.00  0.00    -0.205 F 
HETATM    4  C5  UNL     1      27.958  31.792  11.528  1.00  0.00    -0.022 A 
HETATM    5  C6  UNL     1      26.591  32.256  11.185  1.00  0.00     0.051 C 
HETATM    6  C7  UNL     1      28.280  30.438  11.430  1.00  0.00     0.018 A 
HETATM    7  C8  UNL     1      29.541  30.003  11.744  1.00  0.00    -0.041 A 
HETATM    8  C9  UNL     1      30.513  30.911  12.165  1.00  0.00    -0.040 A 
HETATM    9  C10 UNL     1      31.831  30.293  12.462  1.00  0.00     0.060 C 
HETATM   10  C11 UNL     1      31.657  29.420  13.697  1.00  0.00     0.093 C 
HETATM   11  S2  UNL     1      30.758  27.944  13.055  1.00  0.00    -0.154 SA
HETATM   12  C15 UNL     1      29.810  28.550  11.633  1.00  0.00     0.113 C 
ENDROOT
BRANCH  10  13
HETATM   13  C12 UNL     1      32.997  28.896  14.149  1.00  0.00     0.015 A 
HETATM   14  C13 UNL     1      33.623  29.090  15.347  1.00  0.00     0.106 A 
HETATM   15  N1  UNL     1      34.802  28.529  15.519  1.00  0.00    -0.346 N 
HETATM   16  C14 UNL     1      35.307  27.811  14.516  1.00  0.00     0.142 A 
ATOM     17  H1  UNL     1      35.314  28.641  16.394  1.00  0.00     0.167 HD
HETATM   18  S1  UNL     1      34.110  27.923  13.310  1.00  0.00    -0.057 SA
BRANCH  16  19
HETATM   19  N2  UNL     1      36.464  27.177  14.497  1.00  0.00    -0.380 N 
ATOM     20  H22 UNL     1      37.290  27.313  15.080  1.00  0.00     0.158 HD
ATOM     21  H21 UNL     1      36.739  26.419  13.872  1.00  0.00     0.158 HD
ENDBRANCH  16  19
ENDBRANCH  10  13
BRANCH   1  22
HETATM   22  C2  UNL     1      31.215  33.208  12.716  1.00  0.00     0.038 C 
HETATM   23  C1  UNL     1      31.900  33.961  11.599  1.00  0.00     0.010 C 
ENDBRANCH   1  22
TORSDOF 3
ENDMDL
MODEL 2
REMARK VINA RESULT: -6.863451182      2.827      4.018
REMARK  3 active torsions:
REMARK  status: ('A' for Active; 'I' for Inactive)
REMARK    1  A    between atoms: C2_2  and  C3_3 
REMARK    2  A    between atoms: C11_12  and  C12_13 
REMARK    3  A    between atoms: C14_17  and  N2_18 
ROOT
HETATM    1  C3  UNL     1      29.672  34.434  11.642  1.00  0.00    -0.012 A 
HETATM    2  C4  UNL     1      28.957  35.603  11.915  1.00  0.00     0.129 A 
HETATM    3  F1  UNL     1      29.664  36.681  12.253  1.00  0.00    -0.205 F 
HETATM    4  C5  UNL     1      27.589  35.673  11.847  1.00  0.00    -0.022 A 
HETATM    5  C6  UNL     1      26.853  36.928  12.139  1.00  0.00     0.051 C 
HETATM    6  C7  UNL     1      26.889  34.521  11.489  1.00  0.00     0.018 A 
HETATM    7  C8  UNL     1      27.563  33.360  11.216  1.00  0.00    -0.041 A 
HETATM    8  C9  UNL     1      28.955  33.320  11.293  1.00  0.00    -0.040 A 
HETATM    9  C10 UNL     1      29.543  31.997  10.963  1.00  0.00     0.060 C 
HETATM   10  C11 UNL     1      29.136  31.030  12.066  1.00  0.00     0.093 C 
HETATM   11  S2  UNL     1      27.363  30.683  11.700  1.00  0.00    -0.154 SA
HETATM   12  C15 UNL     1      26.756  32.170  10.857  1.00  0.00     0.113 C 
ENDROOT
BRANCH  10  13
HETATM   13  C12 UNL     1      29.840  29.710  11.876  1.00  0.00     0.015 A 
HETATM   14  C13 UNL     1      29.314  28.519  11.461  1.00  0.00     0.106 A 
HETATM   15  N1  UNL     1      30.128  27.489  11.370  1.00  0.00    -0.346 N 
HETATM   16  C14 UNL     1      31.410  27.672  11.688  1.00  0.00     0.142 A 
ATOM     17  H1  UNL     1      29.789  26.577  11.064  1.00  0.00     0.167 HD
HETATM   18  S1  UNL     1      31.476  29.318  12.123  1.00  0.00    -0.057 SA
BRANCH  16  19
HETATM   19  N2  UNL     1      32.372  26.770  11.661  1.00  0.00    -0.380 N 
ATOM     20  H22 UNL     1      32.991  26.502  10.895  1.00  0.00     0.158 HD
ATOM     21  H21 UNL     1      32.670  26.166  12.427  1.00  0.00     0.158 HD
ENDBRANCH  16  19
ENDBRANCH  10  13
BRANCH   1  22
HETATM   22  C2  UNL     1      31.116  34.418  11.741  1.00  0.00     0.038 C 
HETATM   23  C1  UNL     1      31.645  34.037  13.104  1.00  0.00     0.010 C 
ENDBRANCH   1  22
TORSDOF 3
ENDMDL
MODEL 3
REMARK VINA RESULT: -6.640522795      2.308      3.069
REMARK  3 active torsions:
REMARK  status: ('A' for Active; 'I' for Inactive)
REMARK    1  A    between atoms: C2_2  and  C3_3 
REMARK    2  A    between atoms: C11_12  and  C12_13 
REMARK    3  A    between atoms: C14_17  and  N2_18 
ROOT
HETATM    1  C3  UNL     1      29.859  34.609  12.301  1.00  0.00    -0.012 A 
HETATM    2  C4  UNL     1      28.782  35.491  12.419  1.00  0.00     0.129 A 
HETATM    3  F1  UNL     1      29.034  36.687  12.952  1.00  0.00    -0.205 F 
HETATM    4  C5  UNL     1      27.511  35.175  12.014  1.00  0.00    -0.022 A 
HETATM    5  C6  UNL     1      26.384  36.131  12.149  1.00  0.00     0.051 C 
HETATM    6  C7  UNL     1      27.292  33.913  11.462  1.00  0.00     0.018 A 
HETATM    7  C8  UNL     1      28.328  33.026  11.334  1.00  0.00    -0.041 A 
HETATM    8  C9  UNL     1      29.612  33.378  11.754  1.00  0.00    -0.040 A 
HETATM    9  C10 UNL     1      30.630  32.318  11.544  1.00  0.00     0.060 C 
HETATM   10  C11 UNL     1      30.293  31.169  12.484  1.00  0.00     0.093 C 
HETATM   11  S2  UNL     1      28.840  30.369  11.679  1.00  0.00    -0.154 SA
HETATM   12  C15 UNL     1      28.023  31.697  10.753  1.00  0.00     0.113 C 
ENDROOT
BRANCH  10  13
HETATM   13  C12 UNL     1      31.386  30.131  12.439  1.00  0.00     0.015 A 
HETATM   14  C13 UNL     1      32.084  29.588  13.481  1.00  0.00     0.106 A 
HETATM   15  N1  UNL     1      33.002  28.689  13.198  1.00  0.00    -0.346 N 
HETATM   16  C14 UNL     1      33.192  28.366  11.919  1.00  0.00     0.142 A 
ATOM     17  H1  UNL     1      33.553  28.251  13.938  1.00  0.00     0.167 HD
HETATM   18  S1  UNL     1      32.064  29.340  11.095  1.00  0.00    -0.057 SA
BRANCH  16  19
HETATM   19  N2  UNL     1      34.059  27.494  11.440  1.00  0.00    -0.380 N 
ATOM     20  H22 UNL     1      34.419  26.637  11.861  1.00  0.00     0.158 HD
ATOM     21  H21 UNL     1      34.531  27.530  10.537  1.00  0.00     0.158 HD
ENDBRANCH  16  19
ENDBRANCH  10  13
BRANCH   1  22
HETATM   22  C2  UNL     1      31.177  34.997  12.755  1.00  0.00     0.038 C 
HETATM   23  C1  UNL     1      31.597  34.370  14.064  1.00  0.00     0.010 C 
ENDBRANCH   1  22
TORSDOF 3
ENDMDL
MODEL 4
REMARK VINA RESULT: -6.593276247      5.527      7.497
REMARK  3 active torsions:
REMARK  status: ('A' for Active; 'I' for Inactive)
REMARK    1  A    between atoms: C2_2  and  C3_3 
REMARK    2  A    between atoms: C11_12  and  C12_13 
REMARK    3  A    between atoms: C14_17  and  N2_18 
ROOT
HETATM    1  C3  UNL     1      27.306  28.654   6.724  1.00  0.00    -0.012 A 
HETATM    2  C4  UNL     1      27.059  27.427   6.105  1.00  0.00     0.129 A 
HETATM    3  F1  UNL     1      26.547  27.461   4.875  1.00  0.00    -0.205 F 
HETATM    4  C5  UNL     1      27.320  26.222   6.706  1.00  0.00    -0.022 A 
HETATM    5  C6  UNL     1      27.050  24.931   6.026  1.00  0.00     0.051 C 
HETATM    6  C7  UNL     1      27.856  26.233   7.994  1.00  0.00     0.018 A 
HETATM    7  C8  UNL     1      28.110  27.421   8.626  1.00  0.00    -0.041 A 
HETATM    8  C9  UNL     1      27.834  28.631   7.988  1.00  0.00    -0.040 A 
HETATM    9  C10 UNL     1      28.167  29.832   8.796  1.00  0.00     0.060 C 
HETATM   10  C11 UNL     1      27.207  29.869   9.975  1.00  0.00     0.093 C 
HETATM   11  S2  UNL     1      27.849  28.553  11.094  1.00  0.00    -0.154 SA
HETATM   12  C15 UNL     1      28.665  27.360   9.999  1.00  0.00     0.113 C 
ENDROOT
BRANCH  10  13
HETATM   13  C12 UNL     1      27.384  31.156  10.742  1.00  0.00     0.015 A 
HETATM   14  C13 UNL     1      26.585  32.264  10.736  1.00  0.00     0.106 A 
HETATM   15  N1  UNL     1      26.944  33.280  11.493  1.00  0.00    -0.346 N 
HETATM   16  C14 UNL     1      28.059  33.163  12.214  1.00  0.00     0.142 A 
ATOM     17  H1  UNL     1      26.384  34.132  11.528  1.00  0.00     0.167 HD
HETATM   18  S1  UNL     1      28.617  31.601  11.825  1.00  0.00    -0.057 SA
BRANCH  16  19
HETATM   19  N2  UNL     1      28.578  34.064  13.026  1.00  0.00    -0.380 N 
ATOM     20  H22 UNL     1      28.208  34.969  13.316  1.00  0.00     0.158 HD
ATOM     21  H21 UNL     1      29.469  34.005  13.519  1.00  0.00     0.158 HD
ENDBRANCH  16  19
ENDBRANCH  10  13
BRANCH   1  22
HETATM   22  C2  UNL     1      27.001  29.893   6.043  1.00  0.00     0.038 C 
HETATM   23  C1  UNL     1      28.085  30.376   5.106  1.00  0.00     0.010 C 
ENDBRANCH   1  22
TORSDOF 3
ENDMDL
MODEL 5
REMARK VINA RESULT: -6.578551394      2.826      3.702
REMARK  3 active torsions:
REMARK  status: ('A' for Active; 'I' for Inactive)
REMARK    1  A    between atoms: C2_2  and  C3_3 
REMARK    2  A    between atoms: C11_12  and  C12_13 
REMARK    3  A    between atoms: C14_17  and  N2_18 
ROOT
HETATM    1  C3  UNL     1      29.628  33.242  12.244  1.00  0.00    -0.012 A 
HETATM    2  C4  UNL     1      28.893  34.414  12.440  1.00  0.00     0.129 A 
HETATM    3  F1  UNL     1      29.502  35.409  13.086  1.00  0.00    -0.205 F 
HETATM    4  C5  UNL     1      27.604  34.569  12.001  1.00  0.00    -0.022 A 
HETATM    5  C6  UNL     1      26.846  35.826  12.220  1.00  0.00     0.051 C 
HETATM    6  C7  UNL     1      27.006  33.503  11.329  1.00  0.00     0.018 A 
HETATM    7  C8  UNL     1      27.701  32.341  11.122  1.00  0.00    -0.041 A 
HETATM    8  C9  UNL     1      29.013  32.214  11.581  1.00  0.00    -0.040 A 
HETATM    9  C10 UNL     1      29.637  30.901  11.276  1.00  0.00     0.060 C 
HETATM   10  C11 UNL     1      28.910  29.848  12.100  1.00  0.00     0.093 C 
HETATM   11  S2  UNL     1      27.306  29.643  11.215  1.00  0.00    -0.154 SA
HETATM   12  C15 UNL     1      27.001  31.242  10.415  1.00  0.00     0.113 C 
ENDROOT
BRANCH  10  13
HETATM   13  C12 UNL     1      29.606  28.518  11.962  1.00  0.00     0.015 A 
HETATM   14  C13 UNL     1      29.373  27.528  11.048  1.00  0.00     0.106 A 
HETATM   15  N1  UNL     1      30.113  26.442  11.123  1.00  0.00    -0.346 N 
HETATM   16  C14 UNL     1      31.037  26.376  12.081  1.00  0.00     0.142 A 
ATOM     17  H1  UNL     1      29.982  25.672  10.465  1.00  0.00     0.167 HD
HETATM   18  S1  UNL     1      30.869  27.863  12.894  1.00  0.00    -0.057 SA
BRANCH  16  19
HETATM   19  N2  UNL     1      31.869  25.378  12.314  1.00  0.00    -0.380 N 
ATOM     20  H22 UNL     1      31.716  24.373  12.239  1.00  0.00     0.158 HD
ATOM     21  H21 UNL     1      32.839  25.447  12.622  1.00  0.00     0.158 HD
ENDBRANCH  16  19
ENDBRANCH  10  13
BRANCH   1  22
HETATM   22  C2  UNL     1      30.983  33.135  12.740  1.00  0.00     0.038 C 
HETATM   23  C1  UNL     1      32.040  33.631  11.781  1.00  0.00     0.010 C 
ENDBRANCH   1  22
TORSDOF 3
ENDMDL
