MODEL 1
REMARK VINA RESULT: -9.839983595      0.000      0.000
REMARK  9 active torsions:
REMARK  status: ('A' for Active; 'I' for Inactive)
REMARK    1  A    between atoms: C2_2  and  C3_3 
REMARK    2  A    between atoms: C11_14  and  C12_15 
REMARK    3  A    between atoms: C12_15  and  C13_16 
REMARK    4  A    between atoms: C13_16  and  C14_17 
REMARK    5  A    between atoms: C14_17  and  N2_18 
REMARK    6  A    between atoms: C19_28  and  S1_29 
REMARK    7  A    between atoms: S1_29  and  N6_32 
REMARK    8  A    between atoms: N6_32  and  C21_34 
REMARK    9  A    between atoms: C21_34  and  C22_35 
ROOT
HETATM    1  C3  UNL     1      21.215  -3.100  16.614  1.00  0.00     0.026 C 
HETATM    2  C4  UNL     1      22.065  -4.405  16.346  1.00  0.00     0.038 C 
HETATM    3  C5  UNL     1      21.965  -2.402  17.681  1.00  0.00     0.031 C 
HETATM    4  C6  UNL     1      21.988  -0.911  17.644  1.00  0.00     0.008 C 
HETATM    5  C7  UNL     1      21.616  -0.414  19.020  1.00  0.00     0.052 C 
HETATM    6  C8  UNL     1      21.029   0.941  19.010  1.00  0.00    -0.014 C 
HETATM    7  C9  UNL     1      21.779   1.988  19.808  1.00  0.00     0.063 C 
HETATM    8  N1  UNL     1      19.989   1.212  18.396  1.00  0.00    -0.333 N 
ATOM      9  H1  UNL     1      19.743   2.196  18.508  1.00  0.00     0.168 HD
HETATM   10  C10 UNL     1      19.071   0.558  17.604  1.00  0.00     0.244 C 
HETATM   11  O1  UNL     1      18.680   1.189  16.540  1.00  0.00    -0.271 OA
HETATM   12  C11 UNL     1      18.445  -0.759  17.764  1.00  0.00     0.174 C 
HETATM   13  N5  UNL     1      18.112  -1.267  16.434  1.00  0.00    -0.375 N 
ATOM     14  H5  UNL     1      18.041  -0.582  15.681  1.00  0.00     0.160 HD
HETATM   15  C16 UNL     1      17.876  -2.626  16.091  1.00  0.00     0.055 A 
HETATM   16  C17 UNL     1      16.660  -2.858  15.428  1.00  0.00     0.033 A 
HETATM   17  C18 UNL     1      16.234  -4.106  15.075  1.00  0.00     0.028 A 
HETATM   18  C19 UNL     1      17.014  -5.194  15.369  1.00  0.00     0.082 A 
HETATM   19  C28 UNL     1      18.193  -4.966  16.009  1.00  0.00     0.056 A 
HETATM   20  C29 UNL     1      18.680  -3.695  16.395  1.00  0.00     0.057 A 
HETATM   21  N7  UNL     1      19.945  -3.674  17.010  1.00  0.00    -0.379 N 
ATOM     22  H7  UNL     1      19.974  -4.156  17.909  1.00  0.00     0.160 HD
ENDROOT
BRANCH  18  23
HETATM   23  S1  UNL     1      16.436  -6.774  14.906  1.00  0.00     0.264 S 
HETATM   24  O2  UNL     1      14.990  -6.597  14.467  1.00  0.00    -0.200 OA
HETATM   25  O3  UNL     1      16.440  -7.665  16.081  1.00  0.00    -0.200 OA
BRANCH  23  26
HETATM   26  N6  UNL     1      17.329  -7.320  13.584  1.00  0.00    -0.290 N 
HETATM   27  C20 UNL     1      18.125  -6.347  12.928  1.00  0.00     0.168 C 
BRANCH  26  28
HETATM   28  C21 UNL     1      17.810  -8.636  13.622  1.00  0.00     0.080 C 
BRANCH  28  29
HETATM   29  C22 UNL     1      16.780  -9.722  13.463  1.00  0.00     0.025 C 
HETATM   30  C23 UNL     1      16.452  -9.992  12.013  1.00  0.00     0.010 C 
HETATM   31  C24 UNL     1      15.297 -10.968  11.959  1.00  0.00     0.001 C 
HETATM   32  C25 UNL     1      15.060 -11.623  13.305  1.00  0.00     0.000 C 
HETATM   33  C26 UNL     1      16.364 -12.096  13.883  1.00  0.00     0.001 C 
HETATM   34  C27 UNL     1      17.387 -10.992  14.023  1.00  0.00     0.010 C 
ENDBRANCH  28  29
ENDBRANCH  26  28
ENDBRANCH  23  26
ENDBRANCH  18  23
BRANCH   1  35
HETATM   35  C2  UNL     1      21.223  -2.451  15.262  1.00  0.00     0.026 C 
HETATM   36  C1  UNL     1      21.623  -3.528  14.238  1.00  0.00     0.007 C 
ENDBRANCH   1  35
BRANCH  12  37
HETATM   37  C12 UNL     1      17.170  -0.575  18.581  1.00  0.00     0.036 C 
BRANCH  37  38
HETATM   38  C13 UNL     1      17.546  -0.290  20.012  1.00  0.00     0.022 C 
BRANCH  38  39
HETATM   39  C14 UNL     1      16.934   1.054  20.457  1.00  0.00     0.122 C 
BRANCH  39  40
HETATM   40  N2  UNL     1      17.722   1.657  21.485  1.00  0.00    -0.367 N 
HETATM   41  C15 UNL     1      18.405   2.733  21.326  1.00  0.00     0.196 C 
HETATM   42  N3  UNL     1      18.399   3.383  20.073  1.00  0.00    -0.067 NA
HETATM   43  N4  UNL     1      19.162   3.274  22.389  1.00  0.00    -0.067 NA
ATOM     44  H2  UNL     1      17.744   1.206  22.400  1.00  0.00     0.161 HD
ENDBRANCH  39  40
ENDBRANCH  38  39
ENDBRANCH  37  38
ENDBRANCH  12  37
TORSDOF 9
ENDMDL
MODEL 2
REMARK VINA RESULT: -9.776510920      2.946      9.821
REMARK  9 active torsions:
REMARK  status: ('A' for Active; 'I' for Inactive)
REMARK    1  A    between atoms: C2_2  and  C3_3 
REMARK    2  A    between atoms: C11_14  and  C12_15 
REMARK    3  A    between atoms: C12_15  and  C13_16 
REMARK    4  A    between atoms: C13_16  and  C14_17 
REMARK    5  A    between atoms: C14_17  and  N2_18 
REMARK    6  A    between atoms: C19_28  and  S1_29 
REMARK    7  A    between atoms: S1_29  and  N6_32 
REMARK    8  A    between atoms: N6_32  and  C21_34 
REMARK    9  A    between atoms: C21_34  and  C22_35 
ROOT
HETATM    1  C3  UNL     1      15.919  -5.389  15.170  1.00  0.00     0.026 C 
HETATM    2  C4  UNL     1      14.762  -4.870  16.113  1.00  0.00     0.038 C 
HETATM    3  C5  UNL     1      15.703  -6.852  15.118  1.00  0.00     0.031 C 
HETATM    4  C6  UNL     1      16.001  -7.545  13.830  1.00  0.00     0.008 C 
HETATM    5  C7  UNL     1      16.873  -8.736  14.145  1.00  0.00     0.052 C 
HETATM    6  C8  UNL     1      17.714  -9.157  13.005  1.00  0.00    -0.014 C 
HETATM    7  C9  UNL     1      17.494 -10.573  12.515  1.00  0.00     0.063 C 
HETATM    8  N1  UNL     1      18.550  -8.410  12.482  1.00  0.00    -0.333 N 
ATOM      9  H1  UNL     1      19.030  -8.877  11.712  1.00  0.00     0.168 HD
HETATM   10  C10 UNL     1      19.015  -7.123  12.648  1.00  0.00     0.244 C 
HETATM   11  O1  UNL     1      19.192  -6.434  11.563  1.00  0.00    -0.271 OA
HETATM   12  C11 UNL     1      19.353  -6.384  13.869  1.00  0.00     0.174 C 
HETATM   13  N5  UNL     1      19.144  -4.960  13.610  1.00  0.00    -0.375 N 
ATOM     14  H5  UNL     1      19.132  -4.664  12.633  1.00  0.00     0.160 HD
HETATM   15  C16 UNL     1      18.958  -3.949  14.590  1.00  0.00     0.055 A 
HETATM   16  C17 UNL     1      19.831  -2.855  14.474  1.00  0.00     0.033 A 
HETATM   17  C18 UNL     1      19.843  -1.817  15.360  1.00  0.00     0.028 A 
HETATM   18  C19 UNL     1      18.969  -1.822  16.416  1.00  0.00     0.082 A 
HETATM   19  C28 UNL     1      18.122  -2.881  16.525  1.00  0.00     0.056 A 
HETATM   20  C29 UNL     1      18.069  -3.980  15.635  1.00  0.00     0.057 A 
HETATM   21  N7  UNL     1      17.090  -4.952  15.904  1.00  0.00    -0.379 N 
ATOM     22  H7  UNL     1      17.230  -5.445  16.786  1.00  0.00     0.160 HD
ENDROOT
BRANCH  18  23
HETATM   23  S1  UNL     1      19.014  -0.480  17.532  1.00  0.00     0.264 S 
HETATM   24  O2  UNL     1      17.837  -0.663  18.478  1.00  0.00    -0.200 OA
HETATM   25  O3  UNL     1      18.804   0.781  16.796  1.00  0.00    -0.200 OA
BRANCH  23  26
HETATM   26  N6  UNL     1      20.437  -0.561  18.432  1.00  0.00    -0.290 N 
HETATM   27  C20 UNL     1      20.850  -1.860  18.825  1.00  0.00     0.168 C 
BRANCH  26  28
HETATM   28  C21 UNL     1      21.435   0.383  18.159  1.00  0.00     0.080 C 
BRANCH  28  29
HETATM   29  C22 UNL     1      22.535   0.498  19.180  1.00  0.00     0.025 C 
HETATM   30  C23 UNL     1      23.880   0.096  18.621  1.00  0.00     0.010 C 
HETATM   31  C24 UNL     1      24.883   0.081  19.753  1.00  0.00     0.001 C 
HETATM   32  C25 UNL     1      24.343   0.783  20.982  1.00  0.00     0.000 C 
HETATM   33  C26 UNL     1      23.728   2.099  20.595  1.00  0.00     0.001 C 
HETATM   34  C27 UNL     1      22.634   1.961  19.560  1.00  0.00     0.010 C 
ENDBRANCH  28  29
ENDBRANCH  26  28
ENDBRANCH  23  26
ENDBRANCH  18  23
BRANCH   1  35
HETATM   35  C2  UNL     1      15.643  -4.630  13.906  1.00  0.00     0.026 C 
HETATM   36  C1  UNL     1      14.141  -4.292  13.893  1.00  0.00     0.007 C 
ENDBRANCH   1  35
BRANCH  12  37
HETATM   37  C12 UNL     1      20.823  -6.642  14.181  1.00  0.00     0.036 C 
BRANCH  37  38
HETATM   38  C13 UNL     1      21.668  -5.722  13.340  1.00  0.00     0.022 C 
BRANCH  38  39
HETATM   39  C14 UNL     1      23.018  -5.465  14.038  1.00  0.00     0.122 C 
BRANCH  39  40
HETATM   40  N2  UNL     1      23.063  -4.149  14.594  1.00  0.00    -0.367 N 
HETATM   41  C15 UNL     1      22.912  -3.894  15.843  1.00  0.00     0.196 C 
HETATM   42  N3  UNL     1      22.685  -4.952  16.748  1.00  0.00    -0.067 NA
HETATM   43  N4  UNL     1      22.969  -2.565  16.323  1.00  0.00    -0.067 NA
ATOM     44  H2  UNL     1      23.225  -3.365  13.961  1.00  0.00     0.161 HD
ENDBRANCH  39  40
ENDBRANCH  38  39
ENDBRANCH  37  38
ENDBRANCH  12  37
TORSDOF 9
ENDMDL
MODEL 3
REMARK VINA RESULT: -9.670590486      0.844      1.317
REMARK  9 active torsions:
REMARK  status: ('A' for Active; 'I' for Inactive)
REMARK    1  A    between atoms: C2_2  and  C3_3 
REMARK    2  A    between atoms: C11_14  and  C12_15 
REMARK    3  A    between atoms: C12_15  and  C13_16 
REMARK    4  A    between atoms: C13_16  and  C14_17 
REMARK    5  A    between atoms: C14_17  and  N2_18 
REMARK    6  A    between atoms: C19_28  and  S1_29 
REMARK    7  A    between atoms: S1_29  and  N6_32 
REMARK    8  A    between atoms: N6_32  and  C21_34 
REMARK    9  A    between atoms: C21_34  and  C22_35 
ROOT
HETATM    1  C3  UNL     1      21.553  -3.636  16.234  1.00  0.00     0.026 C 
HETATM    2  C4  UNL     1      22.322  -4.986  15.940  1.00  0.00     0.038 C 
HETATM    3  C5  UNL     1      22.367  -2.988  17.286  1.00  0.00     0.031 C 
HETATM    4  C6  UNL     1      22.472  -1.500  17.254  1.00  0.00     0.008 C 
HETATM    5  C7  UNL     1      22.162  -0.992  18.642  1.00  0.00     0.052 C 
HETATM    6  C8  UNL     1      21.652   0.395  18.651  1.00  0.00    -0.014 C 
HETATM    7  C9  UNL     1      22.477   1.393  19.436  1.00  0.00     0.063 C 
HETATM    8  N1  UNL     1      20.614   0.727  18.064  1.00  0.00    -0.333 N 
ATOM      9  H1  UNL     1      20.426   1.722  18.187  1.00  0.00     0.168 HD
HETATM   10  C10 UNL     1      19.641   0.129  17.292  1.00  0.00     0.244 C 
HETATM   11  O1  UNL     1      19.261   0.787  16.240  1.00  0.00    -0.271 OA
HETATM   12  C11 UNL     1      18.947  -1.152  17.461  1.00  0.00     0.174 C 
HETATM   13  N5  UNL     1      18.554  -1.633  16.137  1.00  0.00    -0.375 N 
ATOM     14  H5  UNL     1      18.504  -0.940  15.390  1.00  0.00     0.160 HD
HETATM   15  C16 UNL     1      18.235  -2.974  15.794  1.00  0.00     0.055 A 
HETATM   16  C17 UNL     1      16.992  -3.134  15.160  1.00  0.00     0.033 A 
HETATM   17  C18 UNL     1      16.488  -4.354  14.811  1.00  0.00     0.028 A 
HETATM   18  C19 UNL     1      17.213  -5.485  15.082  1.00  0.00     0.082 A 
HETATM   19  C28 UNL     1      18.418  -5.327  15.694  1.00  0.00     0.056 A 
HETATM   20  C29 UNL     1      18.985  -4.088  16.074  1.00  0.00     0.057 A 
HETATM   21  N7  UNL     1      20.263  -4.141  16.658  1.00  0.00    -0.379 N 
ATOM     22  H7  UNL     1      20.286  -4.629  17.554  1.00  0.00     0.160 HD
ENDROOT
BRANCH  18  23
HETATM   23  S1  UNL     1      16.537  -7.028  14.626  1.00  0.00     0.264 S 
HETATM   24  O2  UNL     1      15.086  -6.772  14.247  1.00  0.00    -0.200 OA
HETATM   25  O3  UNL     1      16.541  -7.933  15.791  1.00  0.00    -0.200 OA
BRANCH  23  26
HETATM   26  N6  UNL     1      17.347  -7.603  13.264  1.00  0.00    -0.290 N 
HETATM   27  C20 UNL     1      18.148  -6.657  12.573  1.00  0.00     0.168 C 
BRANCH  26  28
HETATM   28  C21 UNL     1      17.780  -8.935  13.278  1.00  0.00     0.080 C 
BRANCH  28  29
HETATM   29  C22 UNL     1      16.851  -9.940  12.653  1.00  0.00     0.025 C 
HETATM   30  C23 UNL     1      16.129 -10.774  13.686  1.00  0.00     0.010 C 
HETATM   31  C24 UNL     1      15.355 -11.858  12.969  1.00  0.00     0.001 C 
HETATM   32  C25 UNL     1      15.257 -11.579  11.482  1.00  0.00     0.000 C 
HETATM   33  C26 UNL     1      14.855 -10.150  11.253  1.00  0.00     0.001 C 
HETATM   34  C27 UNL     1      15.795  -9.157  11.900  1.00  0.00     0.010 C 
ENDBRANCH  28  29
ENDBRANCH  26  28
ENDBRANCH  23  26
ENDBRANCH  18  23
BRANCH   1  35
HETATM   35  C2  UNL     1      21.566  -2.981  14.885  1.00  0.00     0.026 C 
HETATM   36  C1  UNL     1      22.309  -3.925  13.923  1.00  0.00     0.007 C 
ENDBRANCH   1  35
BRANCH  12  37
HETATM   37  C12 UNL     1      17.705  -0.902  18.310  1.00  0.00     0.036 C 
BRANCH  37  38
HETATM   38  C13 UNL     1      18.111  -0.177  19.566  1.00  0.00     0.022 C 
BRANCH  38  39
HETATM   39  C14 UNL     1      17.157   1.007  19.821  1.00  0.00     0.122 C 
BRANCH  39  40
HETATM   40  N2  UNL     1      17.604   2.179  19.134  1.00  0.00    -0.367 N 
HETATM   41  C15 UNL     1      18.164   3.178  19.715  1.00  0.00     0.196 C 
HETATM   42  N3  UNL     1      18.363   3.151  21.111  1.00  0.00    -0.067 NA
HETATM   43  N4  UNL     1      18.583   4.305  18.971  1.00  0.00    -0.067 NA
ATOM     44  H2  UNL     1      17.471   2.224  18.124  1.00  0.00     0.161 HD
ENDBRANCH  39  40
ENDBRANCH  38  39
ENDBRANCH  37  38
ENDBRANCH  12  37
TORSDOF 9
ENDMDL
MODEL 4
REMARK VINA RESULT: -9.510034699      3.044      9.772
REMARK  9 active torsions:
REMARK  status: ('A' for Active; 'I' for Inactive)
REMARK    1  A    between atoms: C2_2  and  C3_3 
REMARK    2  A    between atoms: C11_14  and  C12_15 
REMARK    3  A    between atoms: C12_15  and  C13_16 
REMARK    4  A    between atoms: C13_16  and  C14_17 
REMARK    5  A    between atoms: C14_17  and  N2_18 
REMARK    6  A    between atoms: C19_28  and  S1_29 
REMARK    7  A    between atoms: S1_29  and  N6_32 
REMARK    8  A    between atoms: N6_32  and  C21_34 
REMARK    9  A    between atoms: C21_34  and  C22_35 
ROOT
HETATM    1  C3  UNL     1      21.159  -2.871  16.292  1.00  0.00     0.026 C 
HETATM    2  C4  UNL     1      22.574  -2.205  16.515  1.00  0.00     0.038 C 
HETATM    3  C5  UNL     1      21.301  -3.581  15.002  1.00  0.00     0.031 C 
HETATM    4  C6  UNL     1      20.581  -4.879  14.848  1.00  0.00     0.008 C 
HETATM    5  C7  UNL     1      19.821  -4.827  13.545  1.00  0.00     0.052 C 
HETATM    6  C8  UNL     1      18.644  -5.721  13.524  1.00  0.00    -0.014 C 
HETATM    7  C9  UNL     1      18.650  -6.788  12.450  1.00  0.00     0.063 C 
HETATM    8  N1  UNL     1      17.707  -5.607  14.324  1.00  0.00    -0.333 N 
ATOM      9  H1  UNL     1      16.990  -6.312  14.152  1.00  0.00     0.168 HD
HETATM   10  C10 UNL     1      17.361  -4.795  15.383  1.00  0.00     0.244 C 
HETATM   11  O1  UNL     1      16.863  -5.392  16.422  1.00  0.00    -0.271 OA
HETATM   12  C11 UNL     1      17.460  -3.340  15.537  1.00  0.00     0.174 C 
HETATM   13  N5  UNL     1      17.617  -3.045  16.961  1.00  0.00    -0.375 N 
ATOM     14  H5  UNL     1      17.321  -3.767  17.618  1.00  0.00     0.160 HD
HETATM   15  C16 UNL     1      18.142  -1.847  17.514  1.00  0.00     0.055 A 
HETATM   16  C17 UNL     1      17.312  -1.231  18.465  1.00  0.00     0.033 A 
HETATM   17  C18 UNL     1      17.620  -0.041  19.060  1.00  0.00     0.028 A 
HETATM   18  C19 UNL     1      18.788   0.596  18.730  1.00  0.00     0.082 A 
HETATM   19  C28 UNL     1      19.591  -0.004  17.810  1.00  0.00     0.056 A 
HETATM   20  C29 UNL     1      19.319  -1.235  17.166  1.00  0.00     0.057 A 
HETATM   21  N7  UNL     1      20.303  -1.702  16.276  1.00  0.00    -0.379 N 
ATOM     22  H7  UNL     1      20.440  -1.103  15.463  1.00  0.00     0.160 HD
ENDROOT
BRANCH  18  23
HETATM   23  S1  UNL     1      19.148   2.117  19.506  1.00  0.00     0.264 S 
HETATM   24  O2  UNL     1      18.687   1.986  20.951  1.00  0.00    -0.200 OA
HETATM   25  O3  UNL     1      18.354   3.191  18.881  1.00  0.00    -0.200 OA
BRANCH  23  26
HETATM   26  N6  UNL     1      20.817   2.356  19.501  1.00  0.00    -0.290 N 
HETATM   27  C20 UNL     1      21.253   3.686  19.729  1.00  0.00     0.168 C 
BRANCH  26  28
HETATM   28  C21 UNL     1      21.625   1.315  19.976  1.00  0.00     0.080 C 
BRANCH  28  29
HETATM   29  C22 UNL     1      23.092   1.420  19.661  1.00  0.00     0.025 C 
HETATM   30  C23 UNL     1      23.921   1.732  20.886  1.00  0.00     0.010 C 
HETATM   31  C24 UNL     1      25.346   1.984  20.447  1.00  0.00     0.001 C 
HETATM   32  C25 UNL     1      25.578   1.522  19.023  1.00  0.00     0.000 C 
HETATM   33  C26 UNL     1      25.009   0.146  18.829  1.00  0.00     0.001 C 
HETATM   34  C27 UNL     1      23.536   0.060  19.163  1.00  0.00     0.010 C 
ENDBRANCH  28  29
ENDBRANCH  26  28
ENDBRANCH  23  26
ENDBRANCH  18  23
BRANCH   1  35
HETATM   35  C2  UNL     1      21.034  -3.732  17.515  1.00  0.00     0.026 C 
HETATM   36  C1  UNL     1      21.311  -2.837  18.736  1.00  0.00     0.007 C 
ENDBRANCH   1  35
BRANCH  12  37
HETATM   37  C12 UNL     1      16.162  -2.726  15.022  1.00  0.00     0.036 C 
BRANCH  37  38
HETATM   38  C13 UNL     1      15.018  -3.641  15.371  1.00  0.00     0.022 C 
BRANCH  38  39
HETATM   39  C14 UNL     1      14.130  -3.868  14.132  1.00  0.00     0.122 C 
BRANCH  39  40
HETATM   40  N2  UNL     1      13.725  -5.235  14.038  1.00  0.00    -0.367 N 
HETATM   41  C15 UNL     1      14.248  -6.082  13.226  1.00  0.00     0.196 C 
HETATM   42  N3  UNL     1      15.284  -5.671  12.363  1.00  0.00    -0.067 NA
HETATM   43  N4  UNL     1      13.797  -7.421  13.188  1.00  0.00    -0.067 NA
ATOM     44  H2  UNL     1      12.976  -5.558  14.651  1.00  0.00     0.161 HD
ENDBRANCH  39  40
ENDBRANCH  38  39
ENDBRANCH  37  38
ENDBRANCH  12  37
TORSDOF 9
ENDMDL
MODEL 5
REMARK VINA RESULT: -9.187510156      1.421      2.589
REMARK  9 active torsions:
REMARK  status: ('A' for Active; 'I' for Inactive)
REMARK    1  A    between atoms: C2_2  and  C3_3 
REMARK    2  A    between atoms: C11_14  and  C12_15 
REMARK    3  A    between atoms: C12_15  and  C13_16 
REMARK    4  A    between atoms: C13_16  and  C14_17 
REMARK    5  A    between atoms: C14_17  and  N2_18 
REMARK    6  A    between atoms: C19_28  and  S1_29 
REMARK    7  A    between atoms: S1_29  and  N6_32 
REMARK    8  A    between atoms: N6_32  and  C21_34 
REMARK    9  A    between atoms: C21_34  and  C22_35 
ROOT
HETATM    1  C3  UNL     1      21.205  -2.858  16.660  1.00  0.00     0.026 C 
HETATM    2  C4  UNL     1      22.111  -4.116  16.351  1.00  0.00     0.038 C 
HETATM    3  C5  UNL     1      21.933  -2.155  17.740  1.00  0.00     0.031 C 
HETATM    4  C6  UNL     1      21.887  -0.664  17.742  1.00  0.00     0.008 C 
HETATM    5  C7  UNL     1      21.506  -0.221  19.134  1.00  0.00     0.052 C 
HETATM    6  C8  UNL     1      20.859   1.106  19.164  1.00  0.00    -0.014 C 
HETATM    7  C9  UNL     1      21.567   2.164  19.984  1.00  0.00     0.063 C 
HETATM    8  N1  UNL     1      19.802   1.346  18.566  1.00  0.00    -0.333 N 
ATOM      9  H1  UNL     1      19.513   2.315  18.706  1.00  0.00     0.168 HD
HETATM   10  C10 UNL     1      18.907   0.671  17.764  1.00  0.00     0.244 C 
HETATM   11  O1  UNL     1      18.479   1.312  16.720  1.00  0.00    -0.271 OA
HETATM   12  C11 UNL     1      18.343  -0.676  17.893  1.00  0.00     0.174 C 
HETATM   13  N5  UNL     1      18.021  -1.164  16.552  1.00  0.00    -0.375 N 
ATOM     14  H5  UNL     1      17.913  -0.463  15.819  1.00  0.00     0.160 HD
HETATM   15  C16 UNL     1      17.844  -2.522  16.176  1.00  0.00     0.055 A 
HETATM   16  C17 UNL     1      16.634  -2.791  15.516  1.00  0.00     0.033 A 
HETATM   17  C18 UNL     1      16.261  -4.048  15.132  1.00  0.00     0.028 A 
HETATM   18  C19 UNL     1      17.092  -5.107  15.392  1.00  0.00     0.082 A 
HETATM   19  C28 UNL     1      18.265  -4.842  16.029  1.00  0.00     0.056 A 
HETATM   20  C29 UNL     1      18.698  -3.561  16.445  1.00  0.00     0.057 A 
HETATM   21  N7  UNL     1      19.966  -3.499  17.051  1.00  0.00    -0.379 N 
ATOM     22  H7  UNL     1      20.024  -4.003  17.936  1.00  0.00     0.160 HD
ENDROOT
BRANCH  18  23
HETATM   23  S1  UNL     1      16.582  -6.699  14.891  1.00  0.00     0.264 S 
HETATM   24  O2  UNL     1      15.134  -6.570  14.443  1.00  0.00    -0.200 OA
HETATM   25  O3  UNL     1      16.611  -7.613  16.048  1.00  0.00    -0.200 OA
BRANCH  23  26
HETATM   26  N6  UNL     1      17.507  -7.182  13.567  1.00  0.00    -0.290 N 
HETATM   27  C20 UNL     1      16.794  -7.779  12.497  1.00  0.00     0.168 C 
BRANCH  26  28
HETATM   28  C21 UNL     1      18.637  -6.417  13.249  1.00  0.00     0.080 C 
BRANCH  28  29
HETATM   29  C22 UNL     1      19.947  -6.911  13.800  1.00  0.00     0.025 C 
HETATM   30  C23 UNL     1      20.137  -8.395  13.586  1.00  0.00     0.010 C 
HETATM   31  C24 UNL     1      21.389  -8.827  14.315  1.00  0.00     0.001 C 
HETATM   32  C25 UNL     1      22.231  -7.636  14.726  1.00  0.00     0.000 C 
HETATM   33  C26 UNL     1      22.373  -6.684  13.573  1.00  0.00     0.001 C 
HETATM   34  C27 UNL     1      21.045  -6.210  13.027  1.00  0.00     0.010 C 
ENDBRANCH  28  29
ENDBRANCH  26  28
ENDBRANCH  23  26
ENDBRANCH  18  23
BRANCH   1  35
HETATM   35  C2  UNL     1      21.172  -2.174  15.325  1.00  0.00     0.026 C 
HETATM   36  C1  UNL     1      21.762  -3.152  14.294  1.00  0.00     0.007 C 
ENDBRANCH   1  35
BRANCH  12  37
HETATM   37  C12 UNL     1      17.069  -0.572  18.725  1.00  0.00     0.036 C 
BRANCH  37  38
HETATM   38  C13 UNL     1      17.431  -0.133  20.120  1.00  0.00     0.022 C 
BRANCH  38  39
HETATM   39  C14 UNL     1      16.638   1.134  20.494  1.00  0.00     0.122 C 
BRANCH  39  40
HETATM   40  N2  UNL     1      17.276   1.838  21.562  1.00  0.00    -0.367 N 
HETATM   41  C15 UNL     1      17.978   2.900  21.400  1.00  0.00     0.196 C 
HETATM   42  N3  UNL     1      18.151   3.430  20.103  1.00  0.00    -0.067 NA
HETATM   43  N4  UNL     1      18.580   3.546  22.503  1.00  0.00    -0.067 NA
ATOM     44  H2  UNL     1      17.167   1.475  22.510  1.00  0.00     0.161 HD
ENDBRANCH  39  40
ENDBRANCH  38  39
ENDBRANCH  37  38
ENDBRANCH  12  37
TORSDOF 9
ENDMDL
