MODEL 1
REMARK VINA RESULT: -7.245027047      0.000      0.000
REMARK  5 active torsions:
REMARK  status: ('A' for Active; 'I' for Inactive)
REMARK    1  A    between atoms: C2_2  and  C3_3 
REMARK    2  A    between atoms: C3_3  and  C5_5 
REMARK    3  A    between atoms: C3_3  and  C10_10 
REMARK    4  A    between atoms: C5_5  and  C6_6 
REMARK    5  A    between atoms: C12_14  and  N2_15 
ROOT
HETATM    1  C10 UNL     1      23.552   5.733  13.739  1.00  0.00     0.010 A 
HETATM    2  C11 UNL     1      22.634   6.080  14.715  1.00  0.00     0.117 A 
HETATM    3  N1  UNL     1      22.928   6.251  16.017  1.00  0.00    -0.201 N 
ATOM      4  H1  UNL     1      22.197   6.507  16.681  1.00  0.00     0.183 HD
HETATM    5  C12 UNL     1      24.180   6.081  16.427  1.00  0.00     0.681 A 
HETATM    6  N3  UNL     1      25.116   5.751  15.559  1.00  0.00    -0.176 N 
ATOM      7  H3  UNL     1      26.075   5.624  15.885  1.00  0.00     0.186 HD
HETATM    8  C17 UNL     1      24.835   5.572  14.229  1.00  0.00     0.123 A 
HETATM    9  N4  UNL     1      25.789   5.273  13.462  1.00  0.00    -0.385 N 
ATOM     10  H41 UNL     1      26.736   5.154  13.824  1.00  0.00     0.157 HD
ATOM     11  H42 UNL     1      25.579   5.139  12.473  1.00  0.00     0.157 HD
ENDROOT
BRANCH   1  12
HETATM   12  C3  UNL     1      23.184   5.543  12.323  1.00  0.00    -0.011 C 
HETATM   13  C4  UNL     1      21.709   5.993  12.206  1.00  0.00     0.020 C 
BRANCH  12  14
HETATM   14  C2  UNL     1      23.100   4.049  12.083  1.00  0.00     0.010 C 
HETATM   15  C1  UNL     1      21.951   3.590  11.266  1.00  0.00     0.006 C 
ENDBRANCH  12  14
BRANCH  12  16
HETATM   16  C5  UNL     1      23.911   6.281  11.300  1.00  0.00     0.022 C 
BRANCH  16  17
HETATM   17  C6  UNL     1      23.257   7.041  10.223  1.00  0.00    -0.050 C 
HETATM   18  C7  UNL     1      22.518   6.271   9.179  1.00  0.00     0.014 C 
HETATM   19  C8  UNL     1      24.457   7.647   9.427  1.00  0.00     0.014 C 
HETATM   20  C9  UNL     1      22.495   8.270  10.625  1.00  0.00     0.014 C 
ENDBRANCH  16  17
ENDBRANCH  12  16
ENDBRANCH   1  12
BRANCH   5  21
HETATM   21  N2  UNL     1      24.477   6.261  17.812  1.00  0.00    -0.214 N 
HETATM   22  C13 UNL     1      25.145   7.447  18.263  1.00  0.00     0.167 C 
HETATM   23  C14 UNL     1      25.929   7.292  19.522  1.00  0.00     0.188 C 
HETATM   24  O1  UNL     1      25.521   6.293  20.360  1.00  0.00    -0.388 OA
HETATM   25  C15 UNL     1      24.261   5.787  20.139  1.00  0.00     0.188 C 
HETATM   26  C16 UNL     1      24.103   5.236  18.744  1.00  0.00     0.167 C 
ENDBRANCH   5  21
TORSDOF 5
ENDMDL
MODEL 2
REMARK VINA RESULT: -7.192624230      0.254      1.050
REMARK  5 active torsions:
REMARK  status: ('A' for Active; 'I' for Inactive)
REMARK    1  A    between atoms: C2_2  and  C3_3 
REMARK    2  A    between atoms: C3_3  and  C5_5 
REMARK    3  A    between atoms: C3_3  and  C10_10 
REMARK    4  A    between atoms: C5_5  and  C6_6 
REMARK    5  A    between atoms: C12_14  and  N2_15 
ROOT
HETATM    1  C10 UNL     1      23.628   5.750  13.676  1.00  0.00     0.010 A 
HETATM    2  C11 UNL     1      22.727   6.034  14.687  1.00  0.00     0.117 A 
HETATM    3  N1  UNL     1      23.052   6.178  15.985  1.00  0.00    -0.201 N 
ATOM      4  H1  UNL     1      22.333   6.387  16.677  1.00  0.00     0.183 HD
HETATM    5  C12 UNL     1      24.321   6.045  16.354  1.00  0.00     0.681 A 
HETATM    6  N3  UNL     1      25.244   5.775  15.450  1.00  0.00    -0.176 N 
ATOM      7  H3  UNL     1      26.215   5.676  15.746  1.00  0.00     0.186 HD
HETATM    8  C17 UNL     1      24.930   5.624  14.125  1.00  0.00     0.123 A 
HETATM    9  N4  UNL     1      25.872   5.384  13.322  1.00  0.00    -0.385 N 
ATOM     10  H41 UNL     1      26.833   5.292  13.653  1.00  0.00     0.157 HD
ATOM     11  H42 UNL     1      25.637   5.271  12.335  1.00  0.00     0.157 HD
ENDROOT
BRANCH   1  12
HETATM   12  C3  UNL     1      23.225   5.587  12.266  1.00  0.00    -0.011 C 
HETATM   13  C4  UNL     1      21.758   6.066  12.188  1.00  0.00     0.020 C 
BRANCH  12  14
HETATM   14  C2  UNL     1      23.108   4.098  12.007  1.00  0.00     0.010 C 
HETATM   15  C1  UNL     1      21.894   3.663  11.275  1.00  0.00     0.006 C 
ENDBRANCH  12  14
BRANCH  12  16
HETATM   16  C5  UNL     1      23.944   6.326  11.238  1.00  0.00     0.022 C 
BRANCH  16  17
HETATM   17  C6  UNL     1      23.281   7.080  10.162  1.00  0.00    -0.050 C 
HETATM   18  C7  UNL     1      22.544   6.303   9.122  1.00  0.00     0.014 C 
HETATM   19  C8  UNL     1      24.474   7.692   9.360  1.00  0.00     0.014 C 
HETATM   20  C9  UNL     1      22.512   8.304  10.564  1.00  0.00     0.014 C 
ENDBRANCH  16  17
ENDBRANCH  12  16
ENDBRANCH   1  12
BRANCH   5  21
HETATM   21  N2  UNL     1      24.653   6.196  17.735  1.00  0.00    -0.214 N 
HETATM   22  C13 UNL     1      24.521   5.090  18.638  1.00  0.00     0.167 C 
HETATM   23  C14 UNL     1      24.293   5.462  20.064  1.00  0.00     0.188 C 
HETATM   24  O1  UNL     1      24.754   6.691  20.441  1.00  0.00    -0.388 OA
HETATM   25  C15 UNL     1      25.663   7.288  19.599  1.00  0.00     0.188 C 
HETATM   26  C16 UNL     1      25.117   7.470  18.205  1.00  0.00     0.167 C 
ENDBRANCH   5  21
TORSDOF 5
ENDMDL
MODEL 3
REMARK VINA RESULT: -7.031306702      1.081      2.837
REMARK  5 active torsions:
REMARK  status: ('A' for Active; 'I' for Inactive)
REMARK    1  A    between atoms: C2_2  and  C3_3 
REMARK    2  A    between atoms: C3_3  and  C5_5 
REMARK    3  A    between atoms: C3_3  and  C10_10 
REMARK    4  A    between atoms: C5_5  and  C6_6 
REMARK    5  A    between atoms: C12_14  and  N2_15 
ROOT
HETATM    1  C10 UNL     1      23.364   6.002  13.973  1.00  0.00     0.010 A 
HETATM    2  C11 UNL     1      24.664   6.237  14.382  1.00  0.00     0.117 A 
HETATM    3  N1  UNL     1      25.071   6.269  15.664  1.00  0.00    -0.201 N 
ATOM      4  H1  UNL     1      26.049   6.450  15.891  1.00  0.00     0.183 HD
HETATM    5  C12 UNL     1      24.183   6.062  16.630  1.00  0.00     0.681 A 
HETATM    6  N3  UNL     1      22.921   5.829  16.325  1.00  0.00    -0.176 N 
ATOM      7  H3  UNL     1      22.249   5.671  17.076  1.00  0.00     0.186 HD
HETATM    8  C17 UNL     1      22.491   5.794  15.024  1.00  0.00     0.123 A 
HETATM    9  N4  UNL     1      21.272   5.549  14.816  1.00  0.00    -0.385 N 
ATOM     10  H41 UNL     1      20.627   5.395  15.592  1.00  0.00     0.157 HD
ATOM     11  H42 UNL     1      20.951   5.524  13.848  1.00  0.00     0.157 HD
ENDROOT
BRANCH   1  12
HETATM   12  C3  UNL     1      22.959   5.989  12.554  1.00  0.00    -0.011 C 
HETATM   13  C4  UNL     1      24.269   5.857  11.743  1.00  0.00     0.020 C 
BRANCH  12  14
HETATM   14  C2  UNL     1      22.492   7.390  12.213  1.00  0.00     0.010 C 
HETATM   15  C1  UNL     1      23.393   8.177  11.338  1.00  0.00     0.006 C 
ENDBRANCH  12  14
BRANCH  12  16
HETATM   16  C5  UNL     1      22.085   4.926  12.079  1.00  0.00     0.022 C 
BRANCH  16  17
HETATM   17  C6  UNL     1      21.232   5.043  10.886  1.00  0.00    -0.050 C 
HETATM   18  C7  UNL     1      20.061   5.967  10.958  1.00  0.00     0.014 C 
HETATM   19  C8  UNL     1      20.561   3.637  10.780  1.00  0.00     0.014 C 
HETATM   20  C9  UNL     1      21.928   5.160   9.562  1.00  0.00     0.014 C 
ENDBRANCH  16  17
ENDBRANCH  12  16
ENDBRANCH   1  12
BRANCH   5  21
HETATM   21  N2  UNL     1      24.626   6.103  17.988  1.00  0.00    -0.214 N 
HETATM   22  C13 UNL     1      24.363   5.004  18.870  1.00  0.00     0.167 C 
HETATM   23  C14 UNL     1      24.297   5.356  20.318  1.00  0.00     0.188 C 
HETATM   24  O1  UNL     1      24.989   6.474  20.692  1.00  0.00    -0.388 OA
HETATM   25  C15 UNL     1      25.931   6.935  19.802  1.00  0.00     0.188 C 
HETATM   26  C16 UNL     1      25.334   7.260  18.456  1.00  0.00     0.167 C 
ENDBRANCH   5  21
TORSDOF 5
ENDMDL
MODEL 4
REMARK VINA RESULT: -6.979432189      1.143      2.540
REMARK  5 active torsions:
REMARK  status: ('A' for Active; 'I' for Inactive)
REMARK    1  A    between atoms: C2_2  and  C3_3 
REMARK    2  A    between atoms: C3_3  and  C5_5 
REMARK    3  A    between atoms: C3_3  and  C10_10 
REMARK    4  A    between atoms: C5_5  and  C6_6 
REMARK    5  A    between atoms: C12_14  and  N2_15 
ROOT
HETATM    1  C10 UNL     1      23.641   6.987  13.961  1.00  0.00     0.010 A 
HETATM    2  C11 UNL     1      22.955   7.522  15.036  1.00  0.00     0.117 A 
HETATM    3  N1  UNL     1      23.294   7.346  16.326  1.00  0.00    -0.201 N 
ATOM      4  H1  UNL     1      22.738   7.772  17.069  1.00  0.00     0.183 HD
HETATM    5  C12 UNL     1      24.361   6.612  16.622  1.00  0.00     0.681 A 
HETATM    6  N3  UNL     1      25.072   6.068  15.654  1.00  0.00    -0.176 N 
ATOM      7  H3  UNL     1      25.890   5.507  15.893  1.00  0.00     0.186 HD
HETATM    8  C17 UNL     1      24.740   6.236  14.335  1.00  0.00     0.123 A 
HETATM    9  N4  UNL     1      25.481   5.696  13.469  1.00  0.00    -0.385 N 
ATOM     10  H41 UNL     1      26.292   5.142  13.745  1.00  0.00     0.157 HD
ATOM     11  H42 UNL     1      25.233   5.821  12.487  1.00  0.00     0.157 HD
ENDROOT
BRANCH   1  12
HETATM   12  C3  UNL     1      23.226   7.195  12.560  1.00  0.00    -0.011 C 
HETATM   13  C4  UNL     1      24.188   8.262  11.988  1.00  0.00     0.020 C 
BRANCH  12  14
HETATM   14  C2  UNL     1      21.897   7.923  12.595  1.00  0.00     0.010 C 
HETATM   15  C1  UNL     1      21.469   8.548  11.320  1.00  0.00     0.006 C 
ENDBRANCH  12  14
BRANCH  12  16
HETATM   16  C5  UNL     1      23.277   6.072  11.635  1.00  0.00     0.022 C 
BRANCH  16  17
HETATM   17  C6  UNL     1      22.398   4.896  11.731  1.00  0.00    -0.050 C 
HETATM   18  C7  UNL     1      23.006   3.609  12.182  1.00  0.00     0.014 C 
HETATM   19  C8  UNL     1      22.022   4.602  10.244  1.00  0.00     0.014 C 
HETATM   20  C9  UNL     1      21.051   5.104  12.360  1.00  0.00     0.014 C 
ENDBRANCH  16  17
ENDBRANCH  12  16
ENDBRANCH   1  12
BRANCH   5  21
HETATM   21  N2  UNL     1      24.708   6.430  17.995  1.00  0.00    -0.214 N 
HETATM   22  C13 UNL     1      24.482   5.169  18.639  1.00  0.00     0.167 C 
HETATM   23  C14 UNL     1      24.291   5.238  20.117  1.00  0.00     0.188 C 
HETATM   24  O1  UNL     1      24.859   6.313  20.742  1.00  0.00    -0.388 OA
HETATM   25  C15 UNL     1      25.814   6.999  20.029  1.00  0.00     0.188 C 
HETATM   26  C16 UNL     1      25.282   7.527  18.721  1.00  0.00     0.167 C 
ENDBRANCH   5  21
TORSDOF 5
ENDMDL
MODEL 5
REMARK VINA RESULT: -6.882742615      1.459      2.871
REMARK  5 active torsions:
REMARK  status: ('A' for Active; 'I' for Inactive)
REMARK    1  A    between atoms: C2_2  and  C3_3 
REMARK    2  A    between atoms: C3_3  and  C5_5 
REMARK    3  A    between atoms: C3_3  and  C10_10 
REMARK    4  A    between atoms: C5_5  and  C6_6 
REMARK    5  A    between atoms: C12_14  and  N2_15 
ROOT
HETATM    1  C10 UNL     1      22.737   7.317  14.394  1.00  0.00     0.010 A 
HETATM    2  C11 UNL     1      23.769   8.041  14.964  1.00  0.00     0.117 A 
HETATM    3  N1  UNL     1      24.304   7.791  16.173  1.00  0.00    -0.201 N 
ATOM      4  H1  UNL     1      25.064   8.369  16.531  1.00  0.00     0.183 HD
HETATM    5  C12 UNL     1      23.830   6.781  16.895  1.00  0.00     0.681 A 
HETATM    6  N3  UNL     1      22.847   6.040  16.422  1.00  0.00    -0.176 N 
ATOM      7  H3  UNL     1      22.493   5.266  16.985  1.00  0.00     0.186 HD
HETATM    8  C17 UNL     1      22.290   6.282  15.193  1.00  0.00     0.123 A 
HETATM    9  N4  UNL     1      21.366   5.516  14.807  1.00  0.00    -0.385 N 
ATOM     10  H41 UNL     1      21.036   4.752  15.397  1.00  0.00     0.157 HD
ATOM     11  H42 UNL     1      20.951   5.697  13.892  1.00  0.00     0.157 HD
ENDROOT
BRANCH   1  12
HETATM   12  C3  UNL     1      22.171   7.635  13.068  1.00  0.00    -0.011 C 
HETATM   13  C4  UNL     1      23.177   8.600  12.401  1.00  0.00     0.020 C 
BRANCH  12  14
HETATM   14  C2  UNL     1      20.962   8.518  13.303  1.00  0.00     0.010 C 
HETATM   15  C1  UNL     1      19.681   8.022  12.744  1.00  0.00     0.006 C 
ENDBRANCH  12  14
BRANCH  12  16
HETATM   16  C5  UNL     1      21.958   6.556  12.115  1.00  0.00     0.022 C 
BRANCH  16  17
HETATM   17  C6  UNL     1      23.049   5.849  11.425  1.00  0.00    -0.050 C 
HETATM   18  C7  UNL     1      23.429   6.323  10.061  1.00  0.00     0.014 C 
HETATM   19  C8  UNL     1      22.447   4.435  11.148  1.00  0.00     0.014 C 
HETATM   20  C9  UNL     1      24.266   5.519  12.238  1.00  0.00     0.014 C 
ENDBRANCH  16  17
ENDBRANCH  12  16
ENDBRANCH   1  12
BRANCH   5  21
HETATM   21  N2  UNL     1      24.404   6.529  18.178  1.00  0.00    -0.214 N 
HETATM   22  C13 UNL     1      24.265   5.242  18.795  1.00  0.00     0.167 C 
HETATM   23  C14 UNL     1      24.331   5.243  20.284  1.00  0.00     0.188 C 
HETATM   24  O1  UNL     1      25.020   6.278  20.850  1.00  0.00    -0.388 OA
HETATM   25  C15 UNL     1      25.854   6.985  20.015  1.00  0.00     0.188 C 
HETATM   26  C16 UNL     1      25.117   7.581  18.843  1.00  0.00     0.167 C 
ENDBRANCH   5  21
TORSDOF 5
ENDMDL
