MODEL 1
REMARK VINA RESULT: -4.190968187      0.000      0.000
REMARK  3 active torsions:
REMARK  status: ('A' for Active; 'I' for Inactive)
REMARK    1  A    between atoms: N2_4  and  N3_6 
REMARK    2  A    between atoms: C3_8  and  N4_9 
REMARK    3  A    between atoms: N4_9  and  C4_11 
ROOT
HETATM    1  N3  UNL     1      32.571  29.373  67.175  1.00  0.00    -0.282 N 
ATOM      2  H3  UNL     1      32.658  29.293  66.162  1.00  0.00     0.189 HD
HETATM    3  C3  UNL     1      31.386  29.454  67.666  1.00  0.00     0.199 C 
ENDROOT
BRANCH   1   4
HETATM    4  N2  UNL     1      33.731  29.385  67.912  1.00  0.00    -0.245 N 
HETATM    5  N1  UNL     1      34.498  28.411  68.095  1.00  0.00    -0.322 N 
HETATM    6  C1  UNL     1      34.298  27.081  67.557  1.00  0.00     0.172 C 
HETATM    7  C2  UNL     1      35.680  28.627  68.910  1.00  0.00     0.172 C 
ATOM      8  H2  UNL     1      33.992  30.269  68.350  1.00  0.00     0.208 HD
ENDBRANCH   1   4
BRANCH   3   9
HETATM    9  N4  UNL     1      30.260  29.431  66.814  1.00  0.00    -0.348 N 
ATOM     10  H4  UNL     1      29.886  28.523  66.535  1.00  0.00     0.167 HD
BRANCH   9  11
HETATM   11  C4  UNL     1      29.619  30.591  66.325  1.00  0.00     0.174 C 
HETATM   12  N5  UNL     1      28.380  30.602  66.005  1.00  0.00    -0.395 N 
ATOM     13  H52 UNL     1      27.853  29.736  66.112  1.00  0.00     0.156 HD
ATOM     14  H51 UNL     1      27.918  31.440  65.652  1.00  0.00     0.156 HD
ENDBRANCH   9  11
ENDBRANCH   3   9
TORSDOF 3
ENDMDL
MODEL 2
REMARK VINA RESULT: -3.932489446      8.637      9.979
REMARK  3 active torsions:
REMARK  status: ('A' for Active; 'I' for Inactive)
REMARK    1  A    between atoms: N2_4  and  N3_6 
REMARK    2  A    between atoms: C3_8  and  N4_9 
REMARK    3  A    between atoms: N4_9  and  C4_11 
ROOT
HETATM    1  N3  UNL     1      27.949  22.366  69.488  1.00  0.00    -0.282 N 
ATOM      2  H3  UNL     1      28.691  23.021  69.735  1.00  0.00     0.189 HD
HETATM    3  C3  UNL     1      27.996  21.191  70.006  1.00  0.00     0.199 C 
ENDROOT
BRANCH   1   4
HETATM    4  N2  UNL     1      26.975  22.807  68.624  1.00  0.00    -0.245 N 
HETATM    5  N1  UNL     1      26.038  23.589  68.909  1.00  0.00    -0.322 N 
HETATM    6  C1  UNL     1      25.810  24.177  70.213  1.00  0.00     0.172 C 
HETATM    7  C2  UNL     1      25.106  23.937  67.852  1.00  0.00     0.172 C 
ATOM      8  H2  UNL     1      27.019  22.467  67.664  1.00  0.00     0.208 HD
ENDBRANCH   1   4
BRANCH   3   9
HETATM    9  N4  UNL     1      29.046  20.842  70.885  1.00  0.00    -0.348 N 
ATOM     10  H4  UNL     1      29.697  20.113  70.590  1.00  0.00     0.167 HD
BRANCH   9  11
HETATM   11  C4  UNL     1      29.247  21.442  72.148  1.00  0.00     0.174 C 
HETATM   12  N5  UNL     1      30.326  22.062  72.443  1.00  0.00    -0.395 N 
ATOM     13  H52 UNL     1      31.055  22.115  71.732  1.00  0.00     0.156 HD
ATOM     14  H51 UNL     1      30.471  22.495  73.355  1.00  0.00     0.156 HD
ENDBRANCH   9  11
ENDBRANCH   3   9
TORSDOF 3
ENDMDL
MODEL 3
REMARK VINA RESULT: -3.887485829      1.417      1.898
REMARK  3 active torsions:
REMARK  status: ('A' for Active; 'I' for Inactive)
REMARK    1  A    between atoms: N2_4  and  N3_6 
REMARK    2  A    between atoms: C3_8  and  N4_9 
REMARK    3  A    between atoms: N4_9  and  C4_11 
ROOT
HETATM    1  N3  UNL     1      31.097  29.834  67.297  1.00  0.00    -0.282 N 
ATOM      2  H3  UNL     1      30.788  30.424  68.070  1.00  0.00     0.189 HD
HETATM    3  C3  UNL     1      30.278  29.652  66.324  1.00  0.00     0.199 C 
ENDROOT
BRANCH   1   4
HETATM    4  N2  UNL     1      32.358  29.293  67.376  1.00  0.00    -0.245 N 
HETATM    5  N1  UNL     1      32.659  28.202  67.915  1.00  0.00    -0.322 N 
HETATM    6  C1  UNL     1      31.722  27.304  68.559  1.00  0.00     0.172 C 
HETATM    7  C2  UNL     1      34.055  27.803  67.895  1.00  0.00     0.172 C 
ATOM      8  H2  UNL     1      33.119  29.828  66.958  1.00  0.00     0.208 HD
ENDBRANCH   1   4
BRANCH   3   9
HETATM    9  N4  UNL     1      29.002  30.259  66.345  1.00  0.00    -0.348 N 
ATOM     10  H4  UNL     1      28.408  30.100  67.159  1.00  0.00     0.167 HD
BRANCH   9  11
HETATM   11  C4  UNL     1      28.501  31.073  65.305  1.00  0.00     0.174 C 
HETATM   12  N5  UNL     1      29.269  31.752  64.541  1.00  0.00    -0.395 N 
ATOM     13  H52 UNL     1      30.275  31.693  64.701  1.00  0.00     0.156 HD
ATOM     14  H51 UNL     1      28.907  32.340  63.789  1.00  0.00     0.156 HD
ENDBRANCH   9  11
ENDBRANCH   3   9
TORSDOF 3
ENDMDL
MODEL 4
REMARK VINA RESULT: -3.746606959      8.761     10.240
REMARK  3 active torsions:
REMARK  status: ('A' for Active; 'I' for Inactive)
REMARK    1  A    between atoms: N2_4  and  N3_6 
REMARK    2  A    between atoms: C3_8  and  N4_9 
REMARK    3  A    between atoms: N4_9  and  C4_11 
ROOT
HETATM    1  N3  UNL     1      29.155  21.412  71.420  1.00  0.00    -0.282 N 
ATOM      2  H3  UNL     1      29.470  20.533  71.009  1.00  0.00     0.189 HD
HETATM    3  C3  UNL     1      29.616  21.727  72.577  1.00  0.00     0.199 C 
ENDROOT
BRANCH   1   4
HETATM    4  N2  UNL     1      28.267  22.170  70.693  1.00  0.00    -0.245 N 
HETATM    5  N1  UNL     1      27.807  21.884  69.563  1.00  0.00    -0.322 N 
HETATM    6  C1  UNL     1      28.130  20.690  68.810  1.00  0.00     0.172 C 
HETATM    7  C2  UNL     1      26.877  22.820  68.958  1.00  0.00     0.172 C 
ATOM      8  H2  UNL     1      27.955  23.045  71.113  1.00  0.00     0.208 HD
ENDBRANCH   1   4
BRANCH   3   9
HETATM    9  N4  UNL     1      30.527  20.871  73.237  1.00  0.00    -0.348 N 
ATOM     10  H4  UNL     1      30.159  20.030  73.683  1.00  0.00     0.167 HD
BRANCH   9  11
HETATM   11  C4  UNL     1      31.917  21.112  73.315  1.00  0.00     0.174 C 
HETATM   12  N5  UNL     1      32.483  22.054  72.662  1.00  0.00    -0.395 N 
ATOM     13  H52 UNL     1      31.897  22.642  72.069  1.00  0.00     0.156 HD
ATOM     14  H51 UNL     1      33.487  22.228  72.719  1.00  0.00     0.156 HD
ENDBRANCH   9  11
ENDBRANCH   3   9
TORSDOF 3
ENDMDL
MODEL 5
REMARK VINA RESULT: -3.678583739      8.783      9.117
REMARK  3 active torsions:
REMARK  status: ('A' for Active; 'I' for Inactive)
REMARK    1  A    between atoms: N2_4  and  N3_6 
REMARK    2  A    between atoms: C3_8  and  N4_9 
REMARK    3  A    between atoms: N4_9  and  C4_11 
ROOT
HETATM    1  N3  UNL     1      27.604  22.008  70.610  1.00  0.00    -0.282 N 
ATOM      2  H3  UNL     1      26.771  21.663  71.087  1.00  0.00     0.189 HD
HETATM    3  C3  UNL     1      27.437  22.639  69.503  1.00  0.00     0.199 C 
ENDROOT
BRANCH   1   4
HETATM    4  N2  UNL     1      28.821  21.761  71.200  1.00  0.00    -0.245 N 
HETATM    5  N1  UNL     1      29.016  21.522  72.415  1.00  0.00    -0.322 N 
HETATM    6  C1  UNL     1      27.983  21.461  73.428  1.00  0.00     0.172 C 
HETATM    7  C2  UNL     1      30.383  21.286  72.844  1.00  0.00     0.172 C 
ATOM      8  H2  UNL     1      29.641  21.774  70.593  1.00  0.00     0.208 HD
ENDBRANCH   1   4
BRANCH   3   9
HETATM    9  N4  UNL     1      26.138  22.838  68.986  1.00  0.00    -0.348 N 
ATOM     10  H4  UNL     1      25.729  22.096  68.416  1.00  0.00     0.167 HD
BRANCH   9  11
HETATM   11  C4  UNL     1      25.370  24.002  69.211  1.00  0.00     0.174 C 
HETATM   12  N5  UNL     1      25.329  24.581  70.352  1.00  0.00    -0.395 N 
ATOM     13  H52 UNL     1      25.874  24.175  71.112  1.00  0.00     0.156 HD
ATOM     14  H51 UNL     1      24.775  25.422  70.514  1.00  0.00     0.156 HD
ENDBRANCH   9  11
ENDBRANCH   3   9
TORSDOF 3
ENDMDL
