MODEL 1
REMARK VINA RESULT: -5.309191555      0.000      0.000
REMARK  3 active torsions:
REMARK  status: ('A' for Active; 'I' for Inactive)
REMARK    1  A    between atoms: C1_2  and  C2_4 
REMARK    2  A    between atoms: C4_8  and  N3_9 
REMARK    3  A    between atoms: N3_9  and  C5_11 
ROOT
HETATM    1  C2  UNL     1      -0.274  59.806  43.936  1.00  0.00     0.072 A 
HETATM    2  C3  UNL     1       1.022  60.051  43.556  1.00  0.00     0.108 A 
HETATM    3  N2  UNL     1       1.864  59.605  44.519  1.00  0.00    -0.350 N 
ATOM      4  H2  UNL     1       2.883  59.657  44.498  1.00  0.00     0.166 HD
HETATM    5  C4  UNL     1       1.122  59.083  45.501  1.00  0.00     0.133 A 
HETATM    6  C6  UNL     1      -0.233  59.200  45.154  1.00  0.00     0.107 A 
HETATM    7  N4  UNL     1      -1.304  58.760  45.943  1.00  0.00    -0.097 NA
ENDROOT
BRANCH   5   8
HETATM    8  N3  UNL     1       1.590  58.499  46.708  1.00  0.00    -0.319 N 
ATOM      9  H3  UNL     1       1.174  58.817  47.583  1.00  0.00     0.169 HD
BRANCH   8  10
HETATM   10  C5  UNL     1       2.584  57.518  46.776  1.00  0.00     0.354 C 
HETATM   11  O2  UNL     1       3.500  57.295  45.956  1.00  0.00    -0.283 OA
ENDBRANCH   8  10
ENDBRANCH   5   8
BRANCH   1  12
HETATM   12  C1  UNL     1      -1.470  60.152  43.145  1.00  0.00     0.268 C 
HETATM   13  N1  UNL     1      -2.333  59.148  42.632  1.00  0.00    -0.057 NA
HETATM   14  O1  UNL     1      -1.675  61.373  42.955  1.00  0.00    -0.271 OA
ENDBRANCH   1  12
TORSDOF 3
ENDMDL
MODEL 2
REMARK VINA RESULT: -5.249078734      1.713      2.324
REMARK  3 active torsions:
REMARK  status: ('A' for Active; 'I' for Inactive)
REMARK    1  A    between atoms: C1_2  and  C2_4 
REMARK    2  A    between atoms: C4_8  and  N3_9 
REMARK    3  A    between atoms: N3_9  and  C5_11 
ROOT
HETATM    1  C2  UNL     1      -1.785  59.736  43.932  1.00  0.00     0.072 A 
HETATM    2  C3  UNL     1      -2.122  58.539  44.513  1.00  0.00     0.108 A 
HETATM    3  N2  UNL     1      -1.236  58.252  45.496  1.00  0.00    -0.350 N 
ATOM      4  H2  UNL     1      -1.247  57.424  46.093  1.00  0.00     0.166 HD
HETATM    5  C4  UNL     1      -0.344  59.247  45.546  1.00  0.00     0.133 A 
HETATM    6  C6  UNL     1      -0.671  60.196  44.565  1.00  0.00     0.107 A 
HETATM    7  N4  UNL     1       0.042  61.377  44.323  1.00  0.00    -0.097 NA
ENDROOT
BRANCH   5   8
HETATM    8  N3  UNL     1       0.763  59.359  46.428  1.00  0.00    -0.319 N 
ATOM      9  H3  UNL     1       0.933  60.264  46.866  1.00  0.00     0.169 HD
BRANCH   8  10
HETATM   10  C5  UNL     1       1.635  58.311  46.736  1.00  0.00     0.354 C 
HETATM   11  O2  UNL     1       1.370  57.239  47.321  1.00  0.00    -0.283 OA
ENDBRANCH   8  10
ENDBRANCH   5   8
BRANCH   1  12
HETATM   12  C1  UNL     1      -2.518  60.378  42.824  1.00  0.00     0.268 C 
HETATM   13  N1  UNL     1      -3.285  61.555  43.028  1.00  0.00    -0.057 NA
HETATM   14  O1  UNL     1      -2.422  59.826  41.703  1.00  0.00    -0.271 OA
ENDBRANCH   1  12
TORSDOF 3
ENDMDL
MODEL 3
REMARK VINA RESULT: -5.181631234      2.926      4.974
REMARK  3 active torsions:
REMARK  status: ('A' for Active; 'I' for Inactive)
REMARK    1  A    between atoms: C1_2  and  C2_4 
REMARK    2  A    between atoms: C4_8  and  N3_9 
REMARK    3  A    between atoms: N3_9  and  C5_11 
ROOT
HETATM    1  C2  UNL     1      -1.652  59.611  43.555  1.00  0.00     0.072 A 
HETATM    2  C3  UNL     1      -2.658  59.700  42.625  1.00  0.00     0.108 A 
HETATM    3  N2  UNL     1      -3.779  59.123  43.119  1.00  0.00    -0.350 N 
ATOM      4  H2  UNL     1      -4.678  59.048  42.642  1.00  0.00     0.166 HD
HETATM    5  C4  UNL     1      -3.500  58.671  44.346  1.00  0.00     0.133 A 
HETATM    6  C6  UNL     1      -2.160  58.967  44.642  1.00  0.00     0.107 A 
HETATM    7  N4  UNL     1      -1.513  58.644  45.842  1.00  0.00    -0.097 NA
ENDROOT
BRANCH   5   8
HETATM    8  N3  UNL     1      -4.382  57.997  45.231  1.00  0.00    -0.319 N 
ATOM      9  H3  UNL     1      -4.068  57.839  46.188  1.00  0.00     0.169 HD
BRANCH   8  10
HETATM   10  C5  UNL     1      -5.654  57.537  44.877  1.00  0.00     0.354 C 
HETATM   11  O2  UNL     1      -6.011  57.026  43.794  1.00  0.00    -0.283 OA
ENDBRANCH   8  10
ENDBRANCH   5   8
BRANCH   1  12
HETATM   12  C1  UNL     1      -0.282  60.128  43.375  1.00  0.00     0.268 C 
HETATM   13  N1  UNL     1       0.652  59.470  42.531  1.00  0.00    -0.057 NA
HETATM   14  O1  UNL     1       0.004  61.171  44.006  1.00  0.00    -0.271 OA
ENDBRANCH   1  12
TORSDOF 3
ENDMDL
MODEL 4
REMARK VINA RESULT: -5.162146898      2.810      5.571
REMARK  3 active torsions:
REMARK  status: ('A' for Active; 'I' for Inactive)
REMARK    1  A    between atoms: C1_2  and  C2_4 
REMARK    2  A    between atoms: C4_8  and  N3_9 
REMARK    3  A    between atoms: N3_9  and  C5_11 
ROOT
HETATM    1  C2  UNL     1      -1.860  59.359  44.784  1.00  0.00     0.072 A 
HETATM    2  C3  UNL     1      -2.981  58.889  45.422  1.00  0.00     0.108 A 
HETATM    3  N2  UNL     1      -3.881  58.470  44.500  1.00  0.00    -0.350 N 
ATOM      4  H2  UNL     1      -4.801  58.075  44.694  1.00  0.00     0.166 HD
HETATM    5  C4  UNL     1      -3.348  58.667  43.290  1.00  0.00     0.133 A 
HETATM    6  C6  UNL     1      -2.070  59.228  43.445  1.00  0.00     0.107 A 
HETATM    7  N4  UNL     1      -1.212  59.571  42.392  1.00  0.00    -0.097 NA
ENDROOT
BRANCH   5   8
HETATM    8  N3  UNL     1      -3.943  58.371  42.036  1.00  0.00    -0.319 N 
ATOM      9  H3  UNL     1      -3.403  58.571  41.194  1.00  0.00     0.169 HD
BRANCH   8  10
HETATM   10  C5  UNL     1      -5.220  57.825  41.878  1.00  0.00     0.354 C 
HETATM   11  O2  UNL     1      -5.917  57.243  42.736  1.00  0.00    -0.283 OA
ENDBRANCH   8  10
ENDBRANCH   5   8
BRANCH   1  12
HETATM   12  C1  UNL     1      -0.665  59.899  45.457  1.00  0.00     0.268 C 
HETATM   13  N1  UNL     1       0.044  59.143  46.427  1.00  0.00    -0.057 NA
HETATM   14  O1  UNL     1      -0.316  61.056  45.123  1.00  0.00    -0.271 OA
ENDBRANCH   1  12
TORSDOF 3
ENDMDL
MODEL 5
REMARK VINA RESULT: -5.129153335      3.210      5.638
REMARK  3 active torsions:
REMARK  status: ('A' for Active; 'I' for Inactive)
REMARK    1  A    between atoms: C1_2  and  C2_4 
REMARK    2  A    between atoms: C4_8  and  N3_9 
REMARK    3  A    between atoms: N3_9  and  C5_11 
ROOT
HETATM    1  C2  UNL     1      -1.930  59.281  44.975  1.00  0.00     0.072 A 
HETATM    2  C3  UNL     1      -2.957  58.846  45.775  1.00  0.00     0.108 A 
HETATM    3  N2  UNL     1      -3.952  58.352  45.000  1.00  0.00    -0.350 N 
ATOM      4  H2  UNL     1      -4.834  57.961  45.331  1.00  0.00     0.166 HD
HETATM    5  C4  UNL     1      -3.571  58.468  43.724  1.00  0.00     0.133 A 
HETATM    6  C6  UNL     1      -2.296  59.053  43.684  1.00  0.00     0.107 A 
HETATM    7  N4  UNL     1      -1.576  59.329  42.514  1.00  0.00    -0.097 NA
ENDROOT
BRANCH   5   8
HETATM    8  N3  UNL     1      -4.306  58.077  42.574  1.00  0.00    -0.319 N 
ATOM      9  H3  UNL     1      -3.836  58.120  41.670  1.00  0.00     0.169 HD
BRANCH   8  10
HETATM   10  C5  UNL     1      -5.633  57.636  42.598  1.00  0.00     0.354 C 
HETATM   11  O2  UNL     1      -6.152  56.806  43.374  1.00  0.00    -0.283 OA
ENDBRANCH   8  10
ENDBRANCH   5   8
BRANCH   1  12
HETATM   12  C1  UNL     1      -0.673  59.882  45.460  1.00  0.00     0.268 C 
HETATM   13  N1  UNL     1      -0.141  61.059  44.871  1.00  0.00    -0.057 NA
HETATM   14  O1  UNL     1      -0.110  59.296  46.414  1.00  0.00    -0.271 OA
ENDBRANCH   1  12
TORSDOF 3
ENDMDL
