MODEL 1
REMARK VINA RESULT: -7.866324428      0.000      0.000
REMARK  13 active torsions:
REMARK  status: ('A' for Active; 'I' for Inactive)
REMARK    1  A    between atoms: C5_5  and  S1_6 
REMARK    2  A    between atoms: S1_6  and  N1_9 
REMARK    3  A    between atoms: N1_9  and  C6_11 
REMARK    4  A    between atoms: C6_11  and  C7_12 
REMARK    5  A    between atoms: C7_12  and  C8_13 
REMARK    6  A    between atoms: C8_13  and  C9_14 
REMARK    7  A    between atoms: C9_14  and  C10_15 
REMARK    8  A    between atoms: C10_15  and  C11_16 
REMARK    9  A    between atoms: C11_16  and  C12_17 
REMARK   10  A    between atoms: C12_17  and  C13_18 
REMARK   11  A    between atoms: C13_18  and  C14_19 
REMARK   12  A    between atoms: C21_28  and  N2_29 
REMARK   13  A    between atoms: N2_29  and  C22_32 
ROOT
HETATM    1  C1  UNL     1      28.939  30.845  12.905  1.00  0.00     0.016 C 
HETATM    2  C2  UNL     1      29.665  30.764  11.554  1.00  0.00    -0.036 C 
HETATM    3  C3  UNL     1      31.130  30.640  11.837  1.00  0.00     0.011 C 
HETATM    4  C4  UNL     1      31.491  31.816  12.735  1.00  0.00     0.022 C 
HETATM    5  C5  UNL     1      31.274  33.131  12.006  1.00  0.00     0.130 C 
HETATM    6  C15 UNL     1      29.983  33.245  11.299  1.00  0.00     0.027 C 
HETATM    7  C16 UNL     1      29.450  31.983  10.719  1.00  0.00    -0.005 C 
HETATM    8  C17 UNL     1      27.962  32.212  10.413  1.00  0.00     0.006 C 
HETATM    9  C18 UNL     1      27.421  30.992   9.722  1.00  0.00     0.005 C 
HETATM   10  C19 UNL     1      27.694  29.738  10.473  1.00  0.00    -0.008 C 
HETATM   11  C20 UNL     1      27.496  28.565   9.500  1.00  0.00     0.038 C 
HETATM   12  C21 UNL     1      28.774  28.612   8.707  1.00  0.00     0.187 C 
HETATM   13  C27 UNL     1      29.850  29.134   9.639  1.00  0.00     0.038 C 
HETATM   14  C28 UNL     1      29.131  29.540  10.872  1.00  0.00     0.000 C 
ENDROOT
BRANCH   5  15
HETATM   15  S1  UNL     1      31.710  34.462  13.039  1.00  0.00     0.234 S 
HETATM   16  O1  UNL     1      30.650  34.642  14.137  1.00  0.00    -0.205 OA
HETATM   17  O2  UNL     1      31.600  35.749  12.232  1.00  0.00    -0.205 OA
BRANCH  15  18
HETATM   18  N1  UNL     1      33.203  34.446  13.787  1.00  0.00    -0.299 N 
ATOM     19  H1  UNL     1      33.250  34.452  14.806  1.00  0.00     0.177 HD
BRANCH  18  20
HETATM   20  C6  UNL     1      34.387  34.426  13.047  1.00  0.00     0.073 C 
BRANCH  20  21
HETATM   21  C7  UNL     1      34.975  33.031  12.986  1.00  0.00     0.045 C 
BRANCH  21  22
HETATM   22  C8  UNL     1      34.922  32.360  11.663  1.00  0.00     0.005 C 
BRANCH  22  23
HETATM   23  C9  UNL     1      36.108  32.469  10.788  1.00  0.00     0.000 C 
BRANCH  23  24
HETATM   24  C10 UNL     1      36.740  31.083  10.540  1.00  0.00     0.000 C 
BRANCH  24  25
HETATM   25  C11 UNL     1      36.992  30.806   9.096  1.00  0.00     0.001 C 
BRANCH  25  26
HETATM   26  C12 UNL     1      36.475  29.417   8.785  1.00  0.00     0.010 C 
BRANCH  26  27
HETATM   27  C13 UNL     1      35.028  29.215   9.143  1.00  0.00     0.113 C 
BRANCH  27  28
HETATM   28  C14 UNL     1      34.710  27.784   9.361  1.00  0.00     0.172 C 
HETATM   29  O3  UNL     1      35.677  26.944   9.379  1.00  0.00    -0.648 OA
HETATM   30  O4  UNL     1      33.444  27.307   9.546  1.00  0.00    -0.648 OA
ENDBRANCH  27  28
ENDBRANCH  26  27
ENDBRANCH  25  26
ENDBRANCH  24  25
ENDBRANCH  23  24
ENDBRANCH  22  23
ENDBRANCH  21  22
ENDBRANCH  20  21
ENDBRANCH  18  20
ENDBRANCH  15  18
ENDBRANCH   5  15
BRANCH  12  31
HETATM   31  N2  UNL     1      29.061  27.309   8.208  1.00  0.00    -0.065 N 
ATOM     32  H22 UNL     1      29.643  26.792   8.867  1.00  0.00     0.278 HD
ATOM     33  H21 UNL     1      28.225  26.726   8.226  1.00  0.00     0.278 HD
BRANCH  31  34
HETATM   34  C22 UNL     1      29.644  27.307   6.919  1.00  0.00     0.211 C 
HETATM   35  C23 UNL     1      31.100  26.860   6.932  1.00  0.00     0.036 C 
HETATM   36  C24 UNL     1      31.098  25.345   6.990  1.00  0.00     0.029 C 
HETATM   37  C25 UNL     1      30.517  24.733   5.740  1.00  0.00     0.232 C 
HETATM   38  N3  UNL     1      29.841  25.804   4.997  1.00  0.00    -0.073 N 
HETATM   39  C26 UNL     1      28.908  26.522   5.870  1.00  0.00     0.265 C 
ATOM     40  H32 UNL     1      30.507  26.436   4.551  1.00  0.00     0.277 HD
ATOM     41  H31 UNL     1      29.381  25.452   4.157  1.00  0.00     0.277 HD
ENDBRANCH  31  34
ENDBRANCH  12  31
TORSDOF 13
ENDMDL
MODEL 2
REMARK VINA RESULT: -7.665862193      3.437      8.303
REMARK  13 active torsions:
REMARK  status: ('A' for Active; 'I' for Inactive)
REMARK    1  A    between atoms: C5_5  and  S1_6 
REMARK    2  A    between atoms: S1_6  and  N1_9 
REMARK    3  A    between atoms: N1_9  and  C6_11 
REMARK    4  A    between atoms: C6_11  and  C7_12 
REMARK    5  A    between atoms: C7_12  and  C8_13 
REMARK    6  A    between atoms: C8_13  and  C9_14 
REMARK    7  A    between atoms: C9_14  and  C10_15 
REMARK    8  A    between atoms: C10_15  and  C11_16 
REMARK    9  A    between atoms: C11_16  and  C12_17 
REMARK   10  A    between atoms: C12_17  and  C13_18 
REMARK   11  A    between atoms: C13_18  and  C14_19 
REMARK   12  A    between atoms: C21_28  and  N2_29 
REMARK   13  A    between atoms: N2_29  and  C22_32 
ROOT
HETATM    1  C1  UNL     1      31.258  31.184  13.814  1.00  0.00     0.016 C 
HETATM    2  C2  UNL     1      30.950  32.546  13.172  1.00  0.00    -0.036 C 
HETATM    3  C3  UNL     1      29.461  32.672  13.078  1.00  0.00     0.011 C 
HETATM    4  C4  UNL     1      28.976  31.439  12.327  1.00  0.00     0.022 C 
HETATM    5  C5  UNL     1      29.526  31.426  10.911  1.00  0.00     0.130 C 
HETATM    6  C15 UNL     1      30.971  31.707  10.802  1.00  0.00     0.027 C 
HETATM    7  C16 UNL     1      31.519  32.668  11.797  1.00  0.00    -0.005 C 
HETATM    8  C17 UNL     1      33.047  32.507  11.794  1.00  0.00     0.006 C 
HETATM    9  C18 UNL     1      33.640  33.542  12.707  1.00  0.00     0.005 C 
HETATM   10  C19 UNL     1      33.036  33.522  14.066  1.00  0.00    -0.008 C 
HETATM   11  C20 UNL     1      33.389  34.854  14.749  1.00  0.00     0.038 C 
HETATM   12  C21 UNL     1      32.407  35.793  14.102  1.00  0.00     0.187 C 
HETATM   13  C27 UNL     1      31.165  34.981  13.788  1.00  0.00     0.038 C 
HETATM   14  C28 UNL     1      31.533  33.576  14.092  1.00  0.00     0.000 C 
ENDROOT
BRANCH   5  15
HETATM   15  S1  UNL     1      28.945  30.022  10.062  1.00  0.00     0.234 S 
HETATM   16  O1  UNL     1      27.459  30.198   9.712  1.00  0.00    -0.205 OA
HETATM   17  O2  UNL     1      28.940  28.847  11.029  1.00  0.00    -0.205 OA
BRANCH  15  18
HETATM   18  N1  UNL     1      29.730  29.542   8.667  1.00  0.00    -0.299 N 
ATOM     19  H1  UNL     1      29.578  30.063   7.804  1.00  0.00     0.177 HD
BRANCH  18  20
HETATM   20  C6  UNL     1      30.590  28.441   8.660  1.00  0.00     0.073 C 
BRANCH  20  21
HETATM   21  C7  UNL     1      32.041  28.875   8.612  1.00  0.00     0.045 C 
BRANCH  21  22
HETATM   22  C8  UNL     1      32.866  28.516   9.793  1.00  0.00     0.005 C 
BRANCH  22  23
HETATM   23  C9  UNL     1      33.894  29.482  10.232  1.00  0.00     0.000 C 
BRANCH  23  24
HETATM   24  C10 UNL     1      34.328  30.396   9.066  1.00  0.00     0.000 C 
BRANCH  24  25
HETATM   25  C11 UNL     1      35.800  30.629   9.025  1.00  0.00     0.001 C 
BRANCH  25  26
HETATM   26  C12 UNL     1      36.494  29.284   9.093  1.00  0.00     0.010 C 
BRANCH  26  27
HETATM   27  C13 UNL     1      36.380  28.481   7.825  1.00  0.00     0.113 C 
BRANCH  27  28
HETATM   28  C14 UNL     1      36.051  27.062   8.102  1.00  0.00     0.172 C 
HETATM   29  O3  UNL     1      35.825  26.717   9.315  1.00  0.00    -0.648 OA
HETATM   30  O4  UNL     1      35.974  26.099   7.138  1.00  0.00    -0.648 OA
ENDBRANCH  27  28
ENDBRANCH  26  27
ENDBRANCH  25  26
ENDBRANCH  24  25
ENDBRANCH  23  24
ENDBRANCH  22  23
ENDBRANCH  21  22
ENDBRANCH  20  21
ENDBRANCH  18  20
ENDBRANCH  15  18
ENDBRANCH   5  15
BRANCH  12  31
HETATM   31  N2  UNL     1      32.148  36.877  14.988  1.00  0.00    -0.065 N 
ATOM     32  H22 UNL     1      32.307  36.597  15.955  1.00  0.00     0.278 HD
ATOM     33  H21 UNL     1      32.866  37.594  14.897  1.00  0.00     0.278 HD
BRANCH  31  34
HETATM   34  C22 UNL     1      30.858  37.441  14.838  1.00  0.00     0.211 C 
HETATM   35  C23 UNL     1      30.276  37.937  16.155  1.00  0.00     0.036 C 
HETATM   36  C24 UNL     1      30.894  39.294  16.430  1.00  0.00     0.029 C 
HETATM   37  C25 UNL     1      30.474  40.322  15.410  1.00  0.00     0.232 C 
HETATM   38  N3  UNL     1      29.855  39.605  14.288  1.00  0.00    -0.073 N 
HETATM   39  C26 UNL     1      30.738  38.536  13.815  1.00  0.00     0.265 C 
ATOM     40  H32 UNL     1      28.927  39.253  14.527  1.00  0.00     0.277 HD
ATOM     41  H31 UNL     1      29.586  40.237  13.534  1.00  0.00     0.277 HD
ENDBRANCH  31  34
ENDBRANCH  12  31
TORSDOF 13
ENDMDL
MODEL 3
REMARK VINA RESULT: -7.643742561      0.739      1.052
REMARK  13 active torsions:
REMARK  status: ('A' for Active; 'I' for Inactive)
REMARK    1  A    between atoms: C5_5  and  S1_6 
REMARK    2  A    between atoms: S1_6  and  N1_9 
REMARK    3  A    between atoms: N1_9  and  C6_11 
REMARK    4  A    between atoms: C6_11  and  C7_12 
REMARK    5  A    between atoms: C7_12  and  C8_13 
REMARK    6  A    between atoms: C8_13  and  C9_14 
REMARK    7  A    between atoms: C9_14  and  C10_15 
REMARK    8  A    between atoms: C10_15  and  C11_16 
REMARK    9  A    between atoms: C11_16  and  C12_17 
REMARK   10  A    between atoms: C12_17  and  C13_18 
REMARK   11  A    between atoms: C13_18  and  C14_19 
REMARK   12  A    between atoms: C21_28  and  N2_29 
REMARK   13  A    between atoms: N2_29  and  C22_32 
ROOT
HETATM    1  C1  UNL     1      28.876  30.871  12.924  1.00  0.00     0.016 C 
HETATM    2  C2  UNL     1      29.630  30.784  11.589  1.00  0.00    -0.036 C 
HETATM    3  C3  UNL     1      31.086  30.626  11.904  1.00  0.00     0.011 C 
HETATM    4  C4  UNL     1      31.451  31.788  12.819  1.00  0.00     0.022 C 
HETATM    5  C5  UNL     1      31.279  33.112  12.095  1.00  0.00     0.130 C 
HETATM    6  C15 UNL     1      30.007  33.259  11.361  1.00  0.00     0.027 C 
HETATM    7  C16 UNL     1      29.460  32.013  10.758  1.00  0.00    -0.005 C 
HETATM    8  C17 UNL     1      27.985  32.277  10.422  1.00  0.00     0.006 C 
HETATM    9  C18 UNL     1      27.434  31.074   9.709  1.00  0.00     0.005 C 
HETATM   10  C19 UNL     1      27.663  29.809  10.457  1.00  0.00    -0.008 C 
HETATM   11  C20 UNL     1      27.462  28.647   9.470  1.00  0.00     0.038 C 
HETATM   12  C21 UNL     1      28.758  28.672   8.706  1.00  0.00     0.187 C 
HETATM   13  C27 UNL     1      29.823  29.164   9.666  1.00  0.00     0.038 C 
HETATM   14  C28 UNL     1      29.086  29.576  10.886  1.00  0.00     0.000 C 
ENDROOT
BRANCH   5  15
HETATM   15  S1  UNL     1      31.720  34.426  13.147  1.00  0.00     0.234 S 
HETATM   16  O1  UNL     1      30.608  34.667  14.180  1.00  0.00    -0.205 OA
HETATM   17  O2  UNL     1      31.725  35.711  12.331  1.00  0.00    -0.205 OA
BRANCH  15  18
HETATM   18  N1  UNL     1      33.163  34.339  13.984  1.00  0.00    -0.299 N 
ATOM     19  H1  UNL     1      33.147  34.285  15.003  1.00  0.00     0.177 HD
BRANCH  18  20
HETATM   20  C6  UNL     1      34.391  34.339  13.318  1.00  0.00     0.073 C 
BRANCH  20  21
HETATM   21  C7  UNL     1      34.799  32.937  12.914  1.00  0.00     0.045 C 
BRANCH  21  22
HETATM   22  C8  UNL     1      35.410  32.800  11.568  1.00  0.00     0.005 C 
BRANCH  22  23
HETATM   23  C9  UNL     1      35.396  31.462  10.940  1.00  0.00     0.000 C 
BRANCH  23  24
HETATM   24  C10 UNL     1      36.798  31.081  10.419  1.00  0.00     0.000 C 
BRANCH  24  25
HETATM   25  C11 UNL     1      36.917  31.179   8.936  1.00  0.00     0.001 C 
BRANCH  25  26
HETATM   26  C12 UNL     1      36.206  29.989   8.326  1.00  0.00     0.010 C 
BRANCH  26  27
HETATM   27  C13 UNL     1      36.736  28.662   8.797  1.00  0.00     0.113 C 
BRANCH  27  28
HETATM   28  C14 UNL     1      35.643  27.736   9.174  1.00  0.00     0.172 C 
HETATM   29  O3  UNL     1      35.817  26.481   8.984  1.00  0.00    -0.648 OA
HETATM   30  O4  UNL     1      34.457  28.142   9.716  1.00  0.00    -0.648 OA
ENDBRANCH  27  28
ENDBRANCH  26  27
ENDBRANCH  25  26
ENDBRANCH  24  25
ENDBRANCH  23  24
ENDBRANCH  22  23
ENDBRANCH  21  22
ENDBRANCH  20  21
ENDBRANCH  18  20
ENDBRANCH  15  18
ENDBRANCH   5  15
BRANCH  12  31
HETATM   31  N2  UNL     1      29.027  27.367   8.205  1.00  0.00    -0.065 N 
ATOM     32  H22 UNL     1      29.936  27.038   8.528  1.00  0.00     0.278 HD
ATOM     33  H21 UNL     1      28.426  26.678   8.655  1.00  0.00     0.278 HD
BRANCH  31  34
HETATM   34  C22 UNL     1      28.933  27.267   6.796  1.00  0.00     0.211 C 
HETATM   35  C23 UNL     1      29.280  28.570   6.088  1.00  0.00     0.036 C 
HETATM   36  C24 UNL     1      30.793  28.655   6.033  1.00  0.00     0.029 C 
HETATM   37  C25 UNL     1      31.387  27.574   5.166  1.00  0.00     0.232 C 
HETATM   38  N3  UNL     1      30.334  26.585   4.908  1.00  0.00    -0.073 N 
HETATM   39  C26 UNL     1      29.720  26.151   6.166  1.00  0.00     0.265 C 
ATOM     40  H32 UNL     1      29.639  26.933   4.246  1.00  0.00     0.277 HD
ATOM     41  H31 UNL     1      30.679  25.796   4.362  1.00  0.00     0.277 HD
ENDBRANCH  31  34
ENDBRANCH  12  31
TORSDOF 13
ENDMDL
MODEL 4
REMARK VINA RESULT: -7.579110737      2.830      6.253
REMARK  13 active torsions:
REMARK  status: ('A' for Active; 'I' for Inactive)
REMARK    1  A    between atoms: C5_5  and  S1_6 
REMARK    2  A    between atoms: S1_6  and  N1_9 
REMARK    3  A    between atoms: N1_9  and  C6_11 
REMARK    4  A    between atoms: C6_11  and  C7_12 
REMARK    5  A    between atoms: C7_12  and  C8_13 
REMARK    6  A    between atoms: C8_13  and  C9_14 
REMARK    7  A    between atoms: C9_14  and  C10_15 
REMARK    8  A    between atoms: C10_15  and  C11_16 
REMARK    9  A    between atoms: C11_16  and  C12_17 
REMARK   10  A    between atoms: C12_17  and  C13_18 
REMARK   11  A    between atoms: C13_18  and  C14_19 
REMARK   12  A    between atoms: C21_28  and  N2_29 
REMARK   13  A    between atoms: N2_29  and  C22_32 
ROOT
HETATM    1  C1  UNL     1      33.584  31.436   8.485  1.00  0.00     0.016 C 
HETATM    2  C2  UNL     1      33.800  30.191   9.357  1.00  0.00    -0.036 C 
HETATM    3  C3  UNL     1      32.448  29.657   9.721  1.00  0.00     0.011 C 
HETATM    4  C4  UNL     1      31.691  30.814  10.360  1.00  0.00     0.022 C 
HETATM    5  C5  UNL     1      32.372  31.253  11.644  1.00  0.00     0.130 C 
HETATM    6  C15 UNL     1      33.834  31.431  11.545  1.00  0.00     0.027 C 
HETATM    7  C16 UNL     1      34.536  30.501  10.619  1.00  0.00    -0.005 C 
HETATM    8  C17 UNL     1      35.925  31.097  10.339  1.00  0.00     0.006 C 
HETATM    9  C18 UNL     1      36.701  30.126   9.495  1.00  0.00     0.005 C 
HETATM   10  C19 UNL     1      35.965  29.713   8.270  1.00  0.00    -0.008 C 
HETATM   11  C20 UNL     1      36.637  28.438   7.736  1.00  0.00     0.038 C 
HETATM   12  C21 UNL     1      36.085  27.393   8.667  1.00  0.00     0.187 C 
HETATM   13  C27 UNL     1      34.698  27.853   9.069  1.00  0.00     0.038 C 
HETATM   14  C28 UNL     1      34.564  29.220   8.509  1.00  0.00     0.000 C 
ENDROOT
BRANCH   5  15
HETATM   15  S1  UNL     1      31.483  32.562  12.370  1.00  0.00     0.234 S 
HETATM   16  O1  UNL     1      31.168  33.632  11.313  1.00  0.00    -0.205 OA
HETATM   17  O2  UNL     1      32.407  33.288  13.339  1.00  0.00    -0.205 OA
BRANCH  15  18
HETATM   18  N1  UNL     1      30.058  32.221  13.172  1.00  0.00    -0.299 N 
ATOM     19  H1  UNL     1      29.683  32.899  13.835  1.00  0.00     0.177 HD
BRANCH  18  20
HETATM   20  C6  UNL     1      29.369  31.025  12.953  1.00  0.00     0.073 C 
BRANCH  20  21
HETATM   21  C7  UNL     1      28.047  31.272  12.254  1.00  0.00     0.045 C 
BRANCH  21  22
HETATM   22  C8  UNL     1      28.131  31.828  10.881  1.00  0.00     0.005 C 
BRANCH  22  23
HETATM   23  C9  UNL     1      27.798  30.930   9.754  1.00  0.00     0.000 C 
BRANCH  23  24
HETATM   24  C10 UNL     1      27.095  29.651  10.257  1.00  0.00     0.000 C 
BRANCH  24  25
HETATM   25  C11 UNL     1      27.683  28.402   9.692  1.00  0.00     0.001 C 
BRANCH  25  26
HETATM   26  C12 UNL     1      28.960  28.098  10.447  1.00  0.00     0.010 C 
BRANCH  26  27
HETATM   27  C13 UNL     1      29.346  26.644  10.421  1.00  0.00     0.113 C 
BRANCH  27  28
HETATM   28  C14 UNL     1      30.581  26.418   9.632  1.00  0.00     0.172 C 
HETATM   29  O3  UNL     1      30.499  26.446   8.354  1.00  0.00    -0.648 OA
HETATM   30  O4  UNL     1      31.805  26.184  10.190  1.00  0.00    -0.648 OA
ENDBRANCH  27  28
ENDBRANCH  26  27
ENDBRANCH  25  26
ENDBRANCH  24  25
ENDBRANCH  23  24
ENDBRANCH  22  23
ENDBRANCH  21  22
ENDBRANCH  20  21
ENDBRANCH  18  20
ENDBRANCH  15  18
ENDBRANCH   5  15
BRANCH  12  31
HETATM   31  N2  UNL     1      36.079  26.134   8.003  1.00  0.00    -0.065 N 
ATOM     32  H22 UNL     1      36.818  25.533   8.366  1.00  0.00     0.278 HD
ATOM     33  H21 UNL     1      35.264  25.587   8.279  1.00  0.00     0.278 HD
BRANCH  31  34
HETATM   34  C22 UNL     1      36.162  26.231   6.594  1.00  0.00     0.211 C 
HETATM   35  C23 UNL     1      37.316  25.424   6.014  1.00  0.00     0.036 C 
HETATM   36  C24 UNL     1      36.855  23.982   5.939  1.00  0.00     0.029 C 
HETATM   37  C25 UNL     1      35.726  23.802   4.957  1.00  0.00     0.232 C 
HETATM   38  N3  UNL     1      35.215  25.137   4.620  1.00  0.00    -0.073 N 
HETATM   39  C26 UNL     1      34.907  25.889   5.840  1.00  0.00     0.265 C 
ATOM     40  H32 UNL     1      35.855  25.646   4.011  1.00  0.00     0.277 HD
ATOM     41  H31 UNL     1      34.413  25.089   3.991  1.00  0.00     0.277 HD
ENDBRANCH  31  34
ENDBRANCH  12  31
TORSDOF 13
ENDMDL
MODEL 5
REMARK VINA RESULT: -7.548263672      1.977      2.625
REMARK  13 active torsions:
REMARK  status: ('A' for Active; 'I' for Inactive)
REMARK    1  A    between atoms: C5_5  and  S1_6 
REMARK    2  A    between atoms: S1_6  and  N1_9 
REMARK    3  A    between atoms: N1_9  and  C6_11 
REMARK    4  A    between atoms: C6_11  and  C7_12 
REMARK    5  A    between atoms: C7_12  and  C8_13 
REMARK    6  A    between atoms: C8_13  and  C9_14 
REMARK    7  A    between atoms: C9_14  and  C10_15 
REMARK    8  A    between atoms: C10_15  and  C11_16 
REMARK    9  A    between atoms: C11_16  and  C12_17 
REMARK   10  A    between atoms: C12_17  and  C13_18 
REMARK   11  A    between atoms: C13_18  and  C14_19 
REMARK   12  A    between atoms: C21_28  and  N2_29 
REMARK   13  A    between atoms: N2_29  and  C22_32 
ROOT
HETATM    1  C1  UNL     1      28.114  31.691  13.113  1.00  0.00     0.016 C 
HETATM    2  C2  UNL     1      29.202  31.109  12.199  1.00  0.00    -0.036 C 
HETATM    3  C3  UNL     1      30.429  30.906  13.034  1.00  0.00     0.011 C 
HETATM    4  C4  UNL     1      30.731  32.251  13.682  1.00  0.00     0.022 C 
HETATM    5  C5  UNL     1      31.061  33.291  12.625  1.00  0.00     0.130 C 
HETATM    6  C15 UNL     1      30.130  33.333  11.481  1.00  0.00     0.027 C 
HETATM    7  C16 UNL     1      29.549  32.026  11.072  1.00  0.00    -0.005 C 
HETATM    8  C17 UNL     1      28.332  32.324  10.183  1.00  0.00     0.006 C 
HETATM    9  C18 UNL     1      27.788  31.024   9.663  1.00  0.00     0.005 C 
HETATM   10  C19 UNL     1      27.515  30.041  10.745  1.00  0.00    -0.008 C 
HETATM   11  C20 UNL     1      27.389  28.656  10.090  1.00  0.00     0.038 C 
HETATM   12  C21 UNL     1      28.832  28.302   9.851  1.00  0.00     0.187 C 
HETATM   13  C27 UNL     1      29.633  28.956  10.960  1.00  0.00     0.038 C 
HETATM   14  C28 UNL     1      28.662  29.806  11.691  1.00  0.00     0.000 C 
ENDROOT
BRANCH   5  15
HETATM   15  S1  UNL     1      31.422  34.815  13.384  1.00  0.00     0.234 S 
HETATM   16  O1  UNL     1      30.157  35.384  14.045  1.00  0.00    -0.205 OA
HETATM   17  O2  UNL     1      31.734  35.830  12.293  1.00  0.00    -0.205 OA
BRANCH  15  18
HETATM   18  N1  UNL     1      32.647  34.881  14.518  1.00  0.00    -0.299 N 
ATOM     19  H1  UNL     1      32.576  35.542  15.291  1.00  0.00     0.177 HD
BRANCH  18  20
HETATM   20  C6  UNL     1      33.767  34.051  14.427  1.00  0.00     0.073 C 
BRANCH  20  21
HETATM   21  C7  UNL     1      34.754  34.566  13.399  1.00  0.00     0.045 C 
BRANCH  21  22
HETATM   22  C8  UNL     1      35.065  33.645  12.278  1.00  0.00     0.005 C 
BRANCH  22  23
HETATM   23  C9  UNL     1      34.296  32.386  12.188  1.00  0.00     0.000 C 
BRANCH  23  24
HETATM   24  C10 UNL     1      34.474  31.727  10.804  1.00  0.00     0.000 C 
BRANCH  24  25
HETATM   25  C11 UNL     1      33.256  30.999  10.343  1.00  0.00     0.001 C 
BRANCH  25  26
HETATM   26  C12 UNL     1      33.535  29.512  10.430  1.00  0.00     0.010 C 
BRANCH  26  27
HETATM   27  C13 UNL     1      34.690  29.063   9.576  1.00  0.00     0.113 C 
BRANCH  27  28
HETATM   28  C14 UNL     1      34.602  27.621   9.248  1.00  0.00     0.172 C 
HETATM   29  O3  UNL     1      35.665  26.912   9.337  1.00  0.00    -0.648 OA
HETATM   30  O4  UNL     1      33.450  27.001   8.856  1.00  0.00    -0.648 OA
ENDBRANCH  27  28
ENDBRANCH  26  27
ENDBRANCH  25  26
ENDBRANCH  24  25
ENDBRANCH  23  24
ENDBRANCH  22  23
ENDBRANCH  21  22
ENDBRANCH  20  21
ENDBRANCH  18  20
ENDBRANCH  15  18
ENDBRANCH   5  15
BRANCH  12  31
HETATM   31  N2  UNL     1      28.967  26.885   9.834  1.00  0.00    -0.065 N 
ATOM     32  H22 UNL     1      28.062  26.436   9.974  1.00  0.00     0.278 HD
ATOM     33  H21 UNL     1      29.178  26.556   8.893  1.00  0.00     0.278 HD
BRANCH  31  34
HETATM   34  C22 UNL     1      29.917  26.391  10.760  1.00  0.00     0.211 C 
HETATM   35  C23 UNL     1      29.306  26.078  12.120  1.00  0.00     0.036 C 
HETATM   36  C24 UNL     1      28.638  24.722  12.004  1.00  0.00     0.029 C 
HETATM   37  C25 UNL     1      29.637  23.619  11.766  1.00  0.00     0.232 C 
HETATM   38  N3  UNL     1      30.913  24.249  11.401  1.00  0.00    -0.073 N 
HETATM   39  C26 UNL     1      30.716  25.202  10.305  1.00  0.00     0.265 C 
ATOM     40  H32 UNL     1      31.366  24.683  12.206  1.00  0.00     0.277 HD
ATOM     41  H31 UNL     1      31.628  23.557  11.178  1.00  0.00     0.277 HD
ENDBRANCH  31  34
ENDBRANCH  12  31
TORSDOF 13
ENDMDL
