MODEL 1
REMARK VINA RESULT: -7.762998837      0.000      0.000
REMARK  14 active torsions:
REMARK  status: ('A' for Active; 'I' for Inactive)
REMARK    1  A    between atoms: C2_2  and  C3_3 
REMARK    2  A    between atoms: C3_3  and  C4_4 
REMARK    3  A    between atoms: C4_4  and  C5_5 
REMARK    4  A    between atoms: C5_5  and  C6_6 
REMARK    5  A    between atoms: C6_6  and  C7_7 
REMARK    6  A    between atoms: C7_7  and  C8_8 
REMARK    7  A    between atoms: C8_8  and  C9_9 
REMARK    8  A    between atoms: C11_14  and  C12_15 
REMARK    9  A    between atoms: C12_15  and  C14_17 
REMARK   10  A    between atoms: C17_23  and  C18_24 
REMARK   11  A    between atoms: C18_24  and  C20_26 
REMARK   12  A    between atoms: C25_33  and  C26_34 
REMARK   13  A    between atoms: C26_34  and  C28_36 
REMARK   14  A    between atoms: C30_40  and  O4_41 
ROOT
HETATM    1  C9  UNL     1      33.275  31.172  11.037  1.00  0.00     0.159 C 
HETATM    2  N1  UNL     1      33.093  31.294   9.627  1.00  0.00    -0.347 N 
ATOM      3  H1  UNL     1      32.323  31.881   9.305  1.00  0.00     0.163 HD
HETATM    4  C10 UNL     1      33.884  30.676   8.642  1.00  0.00     0.241 C 
HETATM    5  O1  UNL     1      34.319  31.431   7.695  1.00  0.00    -0.271 OA
HETATM    6  C11 UNL     1      34.291  29.269   8.532  1.00  0.00     0.180 C 
HETATM    7  N2  UNL     1      33.930  28.717   7.223  1.00  0.00    -0.346 N 
ATOM      8  H2  UNL     1      34.106  29.322   6.421  1.00  0.00     0.163 HD
HETATM    9  C16 UNL     1      33.376  27.466   6.933  1.00  0.00     0.240 C 
HETATM   10  O2  UNL     1      34.030  26.611   6.210  1.00  0.00    -0.272 OA
HETATM   11  C17 UNL     1      32.056  26.963   7.377  1.00  0.00     0.202 C 
HETATM   12  N3  UNL     1      31.652  27.483   8.666  1.00  0.00    -0.086 NA
HETATM   13  O3  UNL     1      30.310  27.629   8.600  1.00  0.00    -0.286 OA
HETATM   14  C22 UNL     1      29.619  27.302   9.731  1.00  0.00     0.196 C 
HETATM   15  C23 UNL     1      29.167  28.565  10.498  1.00  0.00     0.030 C 
HETATM   16  C24 UNL     1      30.101  29.676  10.220  1.00  0.00     0.028 C 
HETATM   17  C25 UNL     1      29.805  31.050  10.579  1.00  0.00     0.087 C 
HETATM   18  N4  UNL     1      30.747  31.601  11.526  1.00  0.00    -0.368 N 
ATOM     19  H4  UNL     1      30.404  32.416  12.035  1.00  0.00     0.161 HD
HETATM   20  C30 UNL     1      32.045  31.213  11.865  1.00  0.00     0.135 C 
ENDROOT
BRANCH   1  21
HETATM   21  C8  UNL     1      34.257  32.253  11.429  1.00  0.00     0.033 C 
BRANCH  21  22
HETATM   22  C7  UNL     1      34.189  32.740  12.823  1.00  0.00     0.002 C 
BRANCH  22  23
HETATM   23  C6  UNL     1      34.397  34.266  12.764  1.00  0.00     0.000 C 
BRANCH  23  24
HETATM   24  C5  UNL     1      35.852  34.480  12.330  1.00  0.00     0.000 C 
BRANCH  24  25
HETATM   25  C4  UNL     1      36.593  35.441  13.194  1.00  0.00     0.000 C 
BRANCH  25  26
HETATM   26  C3  UNL     1      36.098  35.665  14.559  1.00  0.00    -0.000 C 
BRANCH  26  27
HETATM   27  C2  UNL     1      36.633  34.859  15.683  1.00  0.00    -0.005 C 
HETATM   28  C1  UNL     1      35.962  33.607  16.068  1.00  0.00     0.005 C 
ENDBRANCH  26  27
ENDBRANCH  25  26
ENDBRANCH  24  25
ENDBRANCH  23  24
ENDBRANCH  22  23
ENDBRANCH  21  22
ENDBRANCH   1  21
BRANCH  20  29
HETATM   29  O4  UNL     1      32.308  30.812  13.078  1.00  0.00    -0.348 OA
ATOM     30  H4  UNL     1      32.542  29.891  13.074  1.00  0.00     0.219 HD
ENDBRANCH  20  29
BRANCH   6  31
HETATM   31  C12 UNL     1      35.760  29.000   8.652  1.00  0.00     0.013 C 
HETATM   32  C13 UNL     1      36.190  27.587   8.737  1.00  0.00     0.012 C 
BRANCH  31  33
HETATM   33  C14 UNL     1      36.465  29.781   9.720  1.00  0.00     0.002 C 
HETATM   34  C15 UNL     1      37.357  30.853   9.080  1.00  0.00     0.005 C 
ENDBRANCH  31  33
ENDBRANCH   6  31
BRANCH  17  35
HETATM   35  C26 UNL     1      28.400  31.393  11.012  1.00  0.00     0.004 C 
HETATM   36  C27 UNL     1      27.647  32.290  10.092  1.00  0.00     0.012 C 
BRANCH  35  37
HETATM   37  C28 UNL     1      28.273  31.710  12.474  1.00  0.00     0.002 C 
HETATM   38  C29 UNL     1      27.728  30.501  13.240  1.00  0.00     0.005 C 
ENDBRANCH  35  37
ENDBRANCH  17  35
BRANCH  11  39
HETATM   39  C18 UNL     1      30.992  27.185   6.322  1.00  0.00     0.012 C 
HETATM   40  C19 UNL     1      30.762  25.861   5.591  1.00  0.00     0.012 C 
BRANCH  39  41
HETATM   41  C20 UNL     1      31.372  28.189   5.294  1.00  0.00     0.002 C 
HETATM   42  C21 UNL     1      30.423  29.377   5.439  1.00  0.00     0.005 C 
ENDBRANCH  39  41
ENDBRANCH  11  39
TORSDOF 14
ENDMDL
MODEL 2
REMARK VINA RESULT: -7.637251879      0.716      1.155
REMARK  14 active torsions:
REMARK  status: ('A' for Active; 'I' for Inactive)
REMARK    1  A    between atoms: C2_2  and  C3_3 
REMARK    2  A    between atoms: C3_3  and  C4_4 
REMARK    3  A    between atoms: C4_4  and  C5_5 
REMARK    4  A    between atoms: C5_5  and  C6_6 
REMARK    5  A    between atoms: C6_6  and  C7_7 
REMARK    6  A    between atoms: C7_7  and  C8_8 
REMARK    7  A    between atoms: C8_8  and  C9_9 
REMARK    8  A    between atoms: C11_14  and  C12_15 
REMARK    9  A    between atoms: C12_15  and  C14_17 
REMARK   10  A    between atoms: C17_23  and  C18_24 
REMARK   11  A    between atoms: C18_24  and  C20_26 
REMARK   12  A    between atoms: C25_33  and  C26_34 
REMARK   13  A    between atoms: C26_34  and  C28_36 
REMARK   14  A    between atoms: C30_40  and  O4_41 
ROOT
HETATM    1  C9  UNL     1      33.305  30.940  10.744  1.00  0.00     0.159 C 
HETATM    2  N1  UNL     1      33.040  30.965   9.342  1.00  0.00    -0.347 N 
ATOM      3  H1  UNL     1      32.280  31.566   9.021  1.00  0.00     0.163 HD
HETATM    4  C10 UNL     1      33.736  30.233   8.363  1.00  0.00     0.241 C 
HETATM    5  O1  UNL     1      34.146  30.890   7.335  1.00  0.00    -0.271 OA
HETATM    6  C11 UNL     1      34.066  28.802   8.340  1.00  0.00     0.180 C 
HETATM    7  N2  UNL     1      33.597  28.173   7.102  1.00  0.00    -0.346 N 
ATOM      8  H2  UNL     1      33.750  28.706   6.246  1.00  0.00     0.163 HD
HETATM    9  C16 UNL     1      32.966  26.934   6.946  1.00  0.00     0.240 C 
HETATM   10  O2  UNL     1      33.529  25.994   6.253  1.00  0.00    -0.272 OA
HETATM   11  C17 UNL     1      31.653  26.538   7.505  1.00  0.00     0.202 C 
HETATM   12  N3  UNL     1      31.358  27.174   8.771  1.00  0.00    -0.086 NA
HETATM   13  O3  UNL     1      30.023  27.386   8.774  1.00  0.00    -0.286 OA
HETATM   14  C22 UNL     1      29.391  27.182   9.966  1.00  0.00     0.196 C 
HETATM   15  C23 UNL     1      29.050  28.522  10.658  1.00  0.00     0.030 C 
HETATM   16  C24 UNL     1      30.017  29.558  10.238  1.00  0.00     0.028 C 
HETATM   17  C25 UNL     1      29.811  30.968  10.505  1.00  0.00     0.087 C 
HETATM   18  N4  UNL     1      30.837  31.539  11.347  1.00  0.00    -0.368 N 
ATOM     19  H4  UNL     1      30.567  32.406  11.811  1.00  0.00     0.161 HD
HETATM   20  C30 UNL     1      32.134  31.109  11.638  1.00  0.00     0.135 C 
ENDROOT
BRANCH   1  21
HETATM   21  C8  UNL     1      34.361  31.994  10.990  1.00  0.00     0.033 C 
BRANCH  21  22
HETATM   22  C7  UNL     1      34.619  32.360  12.398  1.00  0.00     0.002 C 
BRANCH  22  23
HETATM   23  C6  UNL     1      35.075  33.832  12.391  1.00  0.00     0.000 C 
BRANCH  23  24
HETATM   24  C5  UNL     1      33.940  34.633  13.038  1.00  0.00     0.000 C 
BRANCH  24  25
HETATM   25  C4  UNL     1      34.307  35.229  14.352  1.00  0.00     0.000 C 
BRANCH  25  26
HETATM   26  C3  UNL     1      35.715  35.586  14.578  1.00  0.00    -0.000 C 
BRANCH  26  27
HETATM   27  C2  UNL     1      36.513  34.851  15.589  1.00  0.00    -0.005 C 
HETATM   28  C1  UNL     1      36.028  33.560  16.103  1.00  0.00     0.005 C 
ENDBRANCH  26  27
ENDBRANCH  25  26
ENDBRANCH  24  25
ENDBRANCH  23  24
ENDBRANCH  22  23
ENDBRANCH  21  22
ENDBRANCH   1  21
BRANCH  20  29
HETATM   29  O4  UNL     1      32.453  30.787  12.861  1.00  0.00    -0.348 OA
ATOM     30  H4  UNL     1      33.239  31.250  13.126  1.00  0.00     0.219 HD
ENDBRANCH  20  29
BRANCH   6  31
HETATM   31  C12 UNL     1      35.526  28.466   8.392  1.00  0.00     0.013 C 
HETATM   32  C13 UNL     1      36.385  29.294   9.266  1.00  0.00     0.012 C 
BRANCH  31  33
HETATM   33  C14 UNL     1      36.193  28.323   7.058  1.00  0.00     0.002 C 
HETATM   34  C15 UNL     1      36.968  26.999   7.000  1.00  0.00     0.005 C 
ENDBRANCH  31  33
ENDBRANCH   6  31
BRANCH  17  35
HETATM   35  C26 UNL     1      28.455  31.418  10.993  1.00  0.00     0.004 C 
HETATM   36  C27 UNL     1      27.727  32.355  10.091  1.00  0.00     0.012 C 
BRANCH  35  37
HETATM   37  C28 UNL     1      28.416  31.762  12.453  1.00  0.00     0.002 C 
HETATM   38  C29 UNL     1      27.805  30.611  13.259  1.00  0.00     0.005 C 
ENDBRANCH  35  37
ENDBRANCH  17  35
BRANCH  11  39
HETATM   39  C18 UNL     1      30.536  26.735   6.502  1.00  0.00     0.012 C 
HETATM   40  C19 UNL     1      30.264  25.393   5.820  1.00  0.00     0.012 C 
BRANCH  39  41
HETATM   41  C20 UNL     1      30.865  27.710   5.428  1.00  0.00     0.002 C 
HETATM   42  C21 UNL     1      30.082  28.989   5.714  1.00  0.00     0.005 C 
ENDBRANCH  39  41
ENDBRANCH  11  39
TORSDOF 14
ENDMDL
MODEL 3
REMARK VINA RESULT: -7.581132642      1.006      1.639
REMARK  14 active torsions:
REMARK  status: ('A' for Active; 'I' for Inactive)
REMARK    1  A    between atoms: C2_2  and  C3_3 
REMARK    2  A    between atoms: C3_3  and  C4_4 
REMARK    3  A    between atoms: C4_4  and  C5_5 
REMARK    4  A    between atoms: C5_5  and  C6_6 
REMARK    5  A    between atoms: C6_6  and  C7_7 
REMARK    6  A    between atoms: C7_7  and  C8_8 
REMARK    7  A    between atoms: C8_8  and  C9_9 
REMARK    8  A    between atoms: C11_14  and  C12_15 
REMARK    9  A    between atoms: C12_15  and  C14_17 
REMARK   10  A    between atoms: C17_23  and  C18_24 
REMARK   11  A    between atoms: C18_24  and  C20_26 
REMARK   12  A    between atoms: C25_33  and  C26_34 
REMARK   13  A    between atoms: C26_34  and  C28_36 
REMARK   14  A    between atoms: C30_40  and  O4_41 
ROOT
HETATM    1  C9  UNL     1      33.131  31.260  11.004  1.00  0.00     0.159 C 
HETATM    2  N1  UNL     1      32.953  31.281   9.588  1.00  0.00    -0.347 N 
ATOM      3  H1  UNL     1      32.174  31.830   9.225  1.00  0.00     0.163 HD
HETATM    4  C10 UNL     1      33.758  30.610   8.651  1.00  0.00     0.241 C 
HETATM    5  O1  UNL     1      34.183  31.306   7.655  1.00  0.00    -0.271 OA
HETATM    6  C11 UNL     1      34.189  29.206   8.639  1.00  0.00     0.180 C 
HETATM    7  N2  UNL     1      33.843  28.560   7.370  1.00  0.00    -0.346 N 
ATOM      8  H2  UNL     1      34.011  29.111   6.528  1.00  0.00     0.163 HD
HETATM    9  C16 UNL     1      33.312  27.281   7.166  1.00  0.00     0.240 C 
HETATM   10  O2  UNL     1      33.982  26.391   6.505  1.00  0.00    -0.272 OA
HETATM   11  C17 UNL     1      31.999  26.788   7.640  1.00  0.00     0.202 C 
HETATM   12  N3  UNL     1      31.581  27.388   8.889  1.00  0.00    -0.086 NA
HETATM   13  O3  UNL     1      30.236  27.506   8.810  1.00  0.00    -0.286 OA
HETATM   14  C22 UNL     1      29.548  27.245   9.958  1.00  0.00     0.196 C 
HETATM   15  C23 UNL     1      29.071  28.551  10.636  1.00  0.00     0.030 C 
HETATM   16  C24 UNL     1      29.987  29.656  10.284  1.00  0.00     0.028 C 
HETATM   17  C25 UNL     1      29.665  31.046  10.547  1.00  0.00     0.087 C 
HETATM   18  N4  UNL     1      30.594  31.677  11.456  1.00  0.00    -0.368 N 
ATOM     19  H4  UNL     1      30.235  32.519  11.907  1.00  0.00     0.161 HD
HETATM   20  C30 UNL     1      31.898  31.336  11.824  1.00  0.00     0.135 C 
ENDROOT
BRANCH   1  21
HETATM   21  C8  UNL     1      34.093  32.382  11.323  1.00  0.00     0.033 C 
BRANCH  21  22
HETATM   22  C7  UNL     1      34.624  32.431  12.702  1.00  0.00     0.002 C 
BRANCH  22  23
HETATM   23  C6  UNL     1      34.970  33.906  12.984  1.00  0.00     0.000 C 
BRANCH  23  24
HETATM   24  C5  UNL     1      34.407  34.217  14.376  1.00  0.00     0.000 C 
BRANCH  24  25
HETATM   25  C4  UNL     1      33.411  35.324  14.379  1.00  0.00     0.000 C 
BRANCH  25  26
HETATM   26  C3  UNL     1      32.686  35.602  13.132  1.00  0.00    -0.000 C 
BRANCH  26  27
HETATM   27  C2  UNL     1      31.397  34.923  12.857  1.00  0.00    -0.005 C 
HETATM   28  C1  UNL     1      30.707  34.202  13.939  1.00  0.00     0.005 C 
ENDBRANCH  26  27
ENDBRANCH  25  26
ENDBRANCH  24  25
ENDBRANCH  23  24
ENDBRANCH  22  23
ENDBRANCH  21  22
ENDBRANCH   1  21
BRANCH  20  29
HETATM   29  O4  UNL     1      32.162  31.024  13.063  1.00  0.00    -0.348 OA
ATOM     30  H4  UNL     1      33.091  30.849  13.164  1.00  0.00     0.219 HD
ENDBRANCH  20  29
BRANCH   6  31
HETATM   31  C12 UNL     1      35.662  28.972   8.781  1.00  0.00     0.013 C 
HETATM   32  C13 UNL     1      36.117  27.574   8.949  1.00  0.00     0.012 C 
BRANCH  31  33
HETATM   33  C14 UNL     1      36.347  29.826   9.805  1.00  0.00     0.002 C 
HETATM   34  C15 UNL     1      37.275  30.831   9.111  1.00  0.00     0.005 C 
ENDBRANCH  31  33
ENDBRANCH   6  31
BRANCH  17  35
HETATM   35  C26 UNL     1      28.253  31.394  10.951  1.00  0.00     0.004 C 
HETATM   36  C27 UNL     1      27.503  32.248   9.989  1.00  0.00     0.012 C 
BRANCH  35  37
HETATM   37  C28 UNL     1      28.108  31.765  12.398  1.00  0.00     0.002 C 
HETATM   38  C29 UNL     1      27.726  30.539  13.232  1.00  0.00     0.005 C 
ENDBRANCH  35  37
ENDBRANCH  17  35
BRANCH  11  39
HETATM   39  C18 UNL     1      30.935  26.918   6.570  1.00  0.00     0.012 C 
HETATM   40  C19 UNL     1      30.754  25.551   5.908  1.00  0.00     0.012 C 
BRANCH  39  41
HETATM   41  C20 UNL     1      31.288  27.879   5.492  1.00  0.00     0.002 C 
HETATM   42  C21 UNL     1      30.367  29.088   5.635  1.00  0.00     0.005 C 
ENDBRANCH  39  41
ENDBRANCH  11  39
TORSDOF 14
ENDMDL
MODEL 4
REMARK VINA RESULT: -7.553139878      0.760      1.429
REMARK  14 active torsions:
REMARK  status: ('A' for Active; 'I' for Inactive)
REMARK    1  A    between atoms: C2_2  and  C3_3 
REMARK    2  A    between atoms: C3_3  and  C4_4 
REMARK    3  A    between atoms: C4_4  and  C5_5 
REMARK    4  A    between atoms: C5_5  and  C6_6 
REMARK    5  A    between atoms: C6_6  and  C7_7 
REMARK    6  A    between atoms: C7_7  and  C8_8 
REMARK    7  A    between atoms: C8_8  and  C9_9 
REMARK    8  A    between atoms: C11_14  and  C12_15 
REMARK    9  A    between atoms: C12_15  and  C14_17 
REMARK   10  A    between atoms: C17_23  and  C18_24 
REMARK   11  A    between atoms: C18_24  and  C20_26 
REMARK   12  A    between atoms: C25_33  and  C26_34 
REMARK   13  A    between atoms: C26_34  and  C28_36 
REMARK   14  A    between atoms: C30_40  and  O4_41 
ROOT
HETATM    1  C9  UNL     1      33.247  31.156  11.119  1.00  0.00     0.159 C 
HETATM    2  N1  UNL     1      33.076  31.247   9.705  1.00  0.00    -0.347 N 
ATOM      3  H1  UNL     1      32.313  31.832   9.365  1.00  0.00     0.163 HD
HETATM    4  C10 UNL     1      33.868  30.600   8.740  1.00  0.00     0.241 C 
HETATM    5  O1  UNL     1      34.315  31.330   7.779  1.00  0.00    -0.271 OA
HETATM    6  C11 UNL     1      34.263  29.187   8.665  1.00  0.00     0.180 C 
HETATM    7  N2  UNL     1      33.906  28.609   7.366  1.00  0.00    -0.346 N 
ATOM      8  H2  UNL     1      34.092  29.194   6.551  1.00  0.00     0.163 HD
HETATM    9  C16 UNL     1      33.344  27.356   7.101  1.00  0.00     0.240 C 
HETATM   10  O2  UNL     1      33.994  26.480   6.402  1.00  0.00    -0.272 OA
HETATM   11  C17 UNL     1      32.016  26.875   7.548  1.00  0.00     0.202 C 
HETATM   12  N3  UNL     1      31.608  27.427   8.822  1.00  0.00    -0.086 NA
HETATM   13  O3  UNL     1      30.268  27.583   8.744  1.00  0.00    -0.286 OA
HETATM   14  C22 UNL     1      29.568  27.287   9.877  1.00  0.00     0.196 C 
HETATM   15  C23 UNL     1      29.121  28.572  10.613  1.00  0.00     0.030 C 
HETATM   16  C24 UNL     1      30.067  29.668  10.315  1.00  0.00     0.028 C 
HETATM   17  C25 UNL     1      29.779  31.052  10.641  1.00  0.00     0.087 C 
HETATM   18  N4  UNL     1      30.720  31.617  11.581  1.00  0.00    -0.368 N 
ATOM     19  H4  UNL     1      30.381  32.445  12.070  1.00  0.00     0.161 HD
HETATM   20  C30 UNL     1      32.013  31.226  11.938  1.00  0.00     0.135 C 
ENDROOT
BRANCH   1  21
HETATM   21  C8  UNL     1      34.236  32.237  11.493  1.00  0.00     0.033 C 
BRANCH  21  22
HETATM   22  C7  UNL     1      33.740  33.316  12.372  1.00  0.00     0.002 C 
BRANCH  22  23
HETATM   23  C6  UNL     1      34.848  33.577  13.411  1.00  0.00     0.000 C 
BRANCH  23  24
HETATM   24  C5  UNL     1      35.054  35.096  13.442  1.00  0.00     0.000 C 
BRANCH  24  25
HETATM   25  C4  UNL     1      36.450  35.512  13.133  1.00  0.00     0.000 C 
BRANCH  25  26
HETATM   26  C3  UNL     1      37.041  35.054  11.868  1.00  0.00    -0.000 C 
BRANCH  26  27
HETATM   27  C2  UNL     1      37.685  36.029  10.955  1.00  0.00    -0.005 C 
HETATM   28  C1  UNL     1      38.313  37.240  11.506  1.00  0.00     0.005 C 
ENDBRANCH  26  27
ENDBRANCH  25  26
ENDBRANCH  24  25
ENDBRANCH  23  24
ENDBRANCH  22  23
ENDBRANCH  21  22
ENDBRANCH   1  21
BRANCH  20  29
HETATM   29  O4  UNL     1      32.264  30.850  13.161  1.00  0.00    -0.348 OA
ATOM     30  H4  UNL     1      31.660  30.165  13.423  1.00  0.00     0.219 HD
ENDBRANCH  20  29
BRANCH   6  31
HETATM   31  C12 UNL     1      35.729  28.909   8.800  1.00  0.00     0.013 C 
HETATM   32  C13 UNL     1      36.143  27.498   8.968  1.00  0.00     0.012 C 
BRANCH  31  33
HETATM   33  C14 UNL     1      36.444  29.743   9.820  1.00  0.00     0.002 C 
HETATM   34  C15 UNL     1      37.358  30.756   9.118  1.00  0.00     0.005 C 
ENDBRANCH  31  33
ENDBRANCH   6  31
BRANCH  17  35
HETATM   35  C26 UNL     1      28.375  31.417  11.057  1.00  0.00     0.004 C 
HETATM   36  C27 UNL     1      27.657  32.347  10.142  1.00  0.00     0.012 C 
BRANCH  35  37
HETATM   37  C28 UNL     1      28.229  31.708  12.523  1.00  0.00     0.002 C 
HETATM   38  C29 UNL     1      27.757  30.459  13.273  1.00  0.00     0.005 C 
ENDBRANCH  35  37
ENDBRANCH  17  35
BRANCH  11  39
HETATM   39  C18 UNL     1      30.961  27.081   6.481  1.00  0.00     0.012 C 
HETATM   40  C19 UNL     1      30.753  25.753   5.752  1.00  0.00     0.012 C 
BRANCH  39  41
HETATM   41  C20 UNL     1      31.340  28.086   5.454  1.00  0.00     0.002 C 
HETATM   42  C21 UNL     1      30.347  29.242   5.553  1.00  0.00     0.005 C 
ENDBRANCH  39  41
ENDBRANCH  11  39
TORSDOF 14
ENDMDL
MODEL 5
REMARK VINA RESULT: -7.550951332      5.257     10.377
REMARK  14 active torsions:
REMARK  status: ('A' for Active; 'I' for Inactive)
REMARK    1  A    between atoms: C2_2  and  C3_3 
REMARK    2  A    between atoms: C3_3  and  C4_4 
REMARK    3  A    between atoms: C4_4  and  C5_5 
REMARK    4  A    between atoms: C5_5  and  C6_6 
REMARK    5  A    between atoms: C6_6  and  C7_7 
REMARK    6  A    between atoms: C7_7  and  C8_8 
REMARK    7  A    between atoms: C8_8  and  C9_9 
REMARK    8  A    between atoms: C11_14  and  C12_15 
REMARK    9  A    between atoms: C12_15  and  C14_17 
REMARK   10  A    between atoms: C17_23  and  C18_24 
REMARK   11  A    between atoms: C18_24  and  C20_26 
REMARK   12  A    between atoms: C25_33  and  C26_34 
REMARK   13  A    between atoms: C26_34  and  C28_36 
REMARK   14  A    between atoms: C30_40  and  O4_41 
ROOT
HETATM    1  C9  UNL     1      33.003  35.137  13.552  1.00  0.00     0.159 C 
HETATM    2  N1  UNL     1      33.857  35.631  14.584  1.00  0.00    -0.347 N 
ATOM      3  H1  UNL     1      33.422  35.859  15.478  1.00  0.00     0.163 HD
HETATM    4  C10 UNL     1      35.245  35.828  14.476  1.00  0.00     0.241 C 
HETATM    5  O1  UNL     1      35.972  35.336  15.417  1.00  0.00    -0.271 OA
HETATM    6  C11 UNL     1      35.999  36.530  13.429  1.00  0.00     0.180 C 
HETATM    7  N2  UNL     1      36.867  37.561  14.007  1.00  0.00    -0.346 N 
ATOM      8  H2  UNL     1      37.370  37.297  14.853  1.00  0.00     0.163 HD
HETATM    9  C16 UNL     1      37.093  38.861  13.543  1.00  0.00     0.240 C 
HETATM   10  O2  UNL     1      38.277  39.225  13.163  1.00  0.00    -0.272 OA
HETATM   11  C17 UNL     1      36.086  39.941  13.426  1.00  0.00     0.202 C 
HETATM   12  N3  UNL     1      34.757  39.452  13.130  1.00  0.00    -0.086 NA
HETATM   13  O3  UNL     1      33.907  40.277  13.782  1.00  0.00    -0.286 OA
HETATM   14  C22 UNL     1      32.760  40.596  13.115  1.00  0.00     0.196 C 
HETATM   15  C23 UNL     1      31.550  39.810  13.671  1.00  0.00     0.030 C 
HETATM   16  C24 UNL     1      32.013  38.530  14.248  1.00  0.00     0.028 C 
HETATM   17  C25 UNL     1      31.160  37.697  15.074  1.00  0.00     0.087 C 
HETATM   18  N4  UNL     1      30.921  36.392  14.502  1.00  0.00    -0.368 N 
ATOM     19  H4  UNL     1      30.098  35.915  14.870  1.00  0.00     0.161 HD
HETATM   20  C30 UNL     1      31.620  35.670  13.531  1.00  0.00     0.135 C 
ENDROOT
BRANCH   1  21
HETATM   21  C8  UNL     1      33.028  33.630  13.672  1.00  0.00     0.033 C 
BRANCH  21  22
HETATM   22  C7  UNL     1      33.093  32.864  12.409  1.00  0.00     0.002 C 
BRANCH  22  23
HETATM   23  C6  UNL     1      31.905  31.883  12.432  1.00  0.00     0.000 C 
BRANCH  23  24
HETATM   24  C5  UNL     1      31.131  32.121  11.130  1.00  0.00     0.000 C 
BRANCH  24  25
HETATM   25  C4  UNL     1      29.671  32.329  11.337  1.00  0.00     0.000 C 
BRANCH  25  26
HETATM   26  C3  UNL     1      29.107  31.996  12.653  1.00  0.00    -0.000 C 
BRANCH  26  27
HETATM   27  C2  UNL     1      28.251  30.796  12.810  1.00  0.00    -0.005 C 
HETATM   28  C1  UNL     1      28.111  29.848  11.693  1.00  0.00     0.005 C 
ENDBRANCH  26  27
ENDBRANCH  25  26
ENDBRANCH  24  25
ENDBRANCH  23  24
ENDBRANCH  22  23
ENDBRANCH  21  22
ENDBRANCH   1  21
BRANCH  20  29
HETATM   29  O4  UNL     1      31.041  35.373  12.400  1.00  0.00    -0.348 OA
ATOM     30  H4  UNL     1      30.097  35.422  12.494  1.00  0.00     0.219 HD
ENDBRANCH  20  29
BRANCH   6  31
HETATM   31  C12 UNL     1      36.928  35.684  12.612  1.00  0.00     0.013 C 
HETATM   32  C13 UNL     1      37.637  36.339  11.490  1.00  0.00     0.012 C 
BRANCH  31  33
HETATM   33  C14 UNL     1      36.348  34.391  12.124  1.00  0.00     0.002 C 
HETATM   34  C15 UNL     1      36.675  34.201  10.637  1.00  0.00     0.005 C 
ENDBRANCH  31  33
ENDBRANCH   6  31
BRANCH  17  35
HETATM   35  C26 UNL     1      29.857  38.272  15.573  1.00  0.00     0.004 C 
HETATM   36  C27 UNL     1      29.702  38.320  17.054  1.00  0.00     0.012 C 
BRANCH  35  37
HETATM   37  C28 UNL     1      28.652  37.803  14.810  1.00  0.00     0.002 C 
HETATM   38  C29 UNL     1      27.819  38.997  14.335  1.00  0.00     0.005 C 
ENDBRANCH  35  37
ENDBRANCH  17  35
BRANCH  11  39
HETATM   39  C18 UNL     1      36.096  40.847  14.640  1.00  0.00     0.012 C 
HETATM   40  C19 UNL     1      36.853  42.125  14.277  1.00  0.00     0.012 C 
BRANCH  39  41
HETATM   41  C20 UNL     1      36.781  40.255  15.820  1.00  0.00     0.002 C 
HETATM   42  C21 UNL     1      36.388  41.081  17.042  1.00  0.00     0.005 C 
ENDBRANCH  39  41
ENDBRANCH  11  39
TORSDOF 14
ENDMDL
