MODEL 1
REMARK VINA RESULT: -6.761902459      0.000      0.000
REMARK  2 active torsions:
REMARK  status: ('A' for Active; 'I' for Inactive)
REMARK    1  A    between atoms: N1_2  and  C2_4 
REMARK    2  A    between atoms: C5_11  and  C6_12 
ROOT
HETATM    1  C2  UNL     1      22.932  23.794  18.282  1.00  0.00     0.069 A 
HETATM    2  C3  UNL     1      23.208  22.883  17.275  1.00  0.00     0.064 A 
HETATM    3  C4  UNL     1      23.840  23.216  16.103  1.00  0.00     0.062 A 
HETATM    4  N2  UNL     1      24.224  22.552  14.986  1.00  0.00    -0.300 N 
ATOM      5  H2  UNL     1      24.081  21.556  14.821  1.00  0.00     0.187 HD
HETATM    6  N3  UNL     1      24.810  23.382  14.141  1.00  0.00    -0.303 N 
ATOM      7  H3  UNL     1      25.186  23.123  13.229  1.00  0.00     0.186 HD
HETATM    8  C5  UNL     1      24.835  24.617  14.670  1.00  0.00     0.046 A 
HETATM    9  C10 UNL     1      24.228  24.516  15.895  1.00  0.00     0.020 A 
HETATM   10  C11 UNL     1      23.980  25.449  16.855  1.00  0.00     0.060 A 
HETATM   11  C12 UNL     1      23.335  25.098  18.046  1.00  0.00     0.143 A 
HETATM   12  F1  UNL     1      23.100  26.050  18.984  1.00  0.00    -0.204 F 
ENDROOT
BRANCH   8  13
HETATM   13  C6  UNL     1      25.394  25.777  14.041  1.00  0.00    -0.006 C 
HETATM   14  C7  UNL     1      26.725  26.102  14.695  1.00  0.00     0.021 C 
HETATM   15  C8  UNL     1      24.601  27.025  14.022  1.00  0.00     0.021 C 
HETATM   16  C9  UNL     1      25.745  25.460  12.576  1.00  0.00     0.021 C 
ENDBRANCH   8  13
BRANCH   1  17
HETATM   17  N1  UNL     1      22.278  23.411  19.475  1.00  0.00    -0.392 N 
HETATM   18  C1  UNL     1      22.975  23.163  20.693  1.00  0.00     0.146 C 
ATOM     19  H1  UNL     1      21.264  23.308  19.464  1.00  0.00     0.159 HD
ENDBRANCH   1  17
TORSDOF 2
ENDMDL
MODEL 2
REMARK VINA RESULT: -6.533527593      0.183      1.003
REMARK  2 active torsions:
REMARK  status: ('A' for Active; 'I' for Inactive)
REMARK    1  A    between atoms: N1_2  and  C2_4 
REMARK    2  A    between atoms: C5_11  and  C6_12 
ROOT
HETATM    1  C2  UNL     1      22.950  23.852  18.218  1.00  0.00     0.069 A 
HETATM    2  C3  UNL     1      23.171  22.972  17.170  1.00  0.00     0.064 A 
HETATM    3  C4  UNL     1      23.838  23.315  16.020  1.00  0.00     0.062 A 
HETATM    4  N2  UNL     1      24.185  22.680  14.874  1.00  0.00    -0.300 N 
ATOM      5  H2  UNL     1      23.972  21.706  14.660  1.00  0.00     0.187 HD
HETATM    6  N3  UNL     1      24.838  23.504  14.075  1.00  0.00    -0.303 N 
ATOM      7  H3  UNL     1      25.204  23.264  13.154  1.00  0.00     0.186 HD
HETATM    8  C5  UNL     1      24.946  24.708  14.664  1.00  0.00     0.046 A 
HETATM    9  C10 UNL     1      24.321  24.591  15.878  1.00  0.00     0.020 A 
HETATM   10  C11 UNL     1      24.130  25.493  16.881  1.00  0.00     0.060 A 
HETATM   11  C12 UNL     1      23.449  25.133  18.048  1.00  0.00     0.143 A 
HETATM   12  F1  UNL     1      23.274  26.053  19.030  1.00  0.00    -0.204 F 
ENDROOT
BRANCH   8  13
HETATM   13  C6  UNL     1      25.595  25.853  14.096  1.00  0.00    -0.006 C 
HETATM   14  C7  UNL     1      26.064  25.512  12.694  1.00  0.00     0.021 C 
HETATM   15  C8  UNL     1      26.747  26.441  14.812  1.00  0.00     0.021 C 
HETATM   16  C9  UNL     1      24.574  26.989  13.902  1.00  0.00     0.021 C 
ENDBRANCH   8  13
BRANCH   1  17
HETATM   17  N1  UNL     1      22.258  23.460  19.386  1.00  0.00    -0.392 N 
HETATM   18  C1  UNL     1      22.918  23.171  20.616  1.00  0.00     0.146 C 
ATOM     19  H1  UNL     1      21.242  23.381  19.348  1.00  0.00     0.159 HD
ENDBRANCH   1  17
TORSDOF 2
ENDMDL
MODEL 3
REMARK VINA RESULT: -6.181974079      2.032      2.635
REMARK  2 active torsions:
REMARK  status: ('A' for Active; 'I' for Inactive)
REMARK    1  A    between atoms: N1_2  and  C2_4 
REMARK    2  A    between atoms: C5_11  and  C6_12 
ROOT
HETATM    1  C2  UNL     1      23.112  23.478  17.703  1.00  0.00     0.069 A 
HETATM    2  C3  UNL     1      23.538  24.780  17.491  1.00  0.00     0.064 A 
HETATM    3  C4  UNL     1      24.275  25.169  16.401  1.00  0.00     0.062 A 
HETATM    4  N2  UNL     1      24.808  26.332  15.955  1.00  0.00    -0.300 N 
ATOM      5  H2  UNL     1      24.730  27.230  16.432  1.00  0.00     0.187 HD
HETATM    6  N3  UNL     1      25.442  26.136  14.813  1.00  0.00    -0.303 N 
ATOM      7  H3  UNL     1      25.926  26.857  14.278  1.00  0.00     0.186 HD
HETATM    8  C5  UNL     1      25.349  24.841  14.465  1.00  0.00     0.046 A 
HETATM    9  C10 UNL     1      24.622  24.235  15.456  1.00  0.00     0.020 A 
HETATM   10  C11 UNL     1      24.227  22.942  15.619  1.00  0.00     0.060 A 
HETATM   11  C12 UNL     1      23.476  22.558  16.735  1.00  0.00     0.143 A 
HETATM   12  F1  UNL     1      23.097  21.261  16.870  1.00  0.00    -0.204 F 
ENDROOT
BRANCH   8  13
HETATM   13  C6  UNL     1      25.915  24.258  13.284  1.00  0.00    -0.006 C 
HETATM   14  C7  UNL     1      26.156  25.350  12.258  1.00  0.00     0.021 C 
HETATM   15  C8  UNL     1      25.171  23.175  12.604  1.00  0.00     0.021 C 
HETATM   16  C9  UNL     1      27.314  23.698  13.596  1.00  0.00     0.021 C 
ENDBRANCH   8  13
BRANCH   1  17
HETATM   17  N1  UNL     1      22.355  23.118  18.840  1.00  0.00    -0.392 N 
HETATM   18  C1  UNL     1      22.837  23.275  20.172  1.00  0.00     0.146 C 
ATOM     19  H1  UNL     1      21.422  22.729  18.702  1.00  0.00     0.159 HD
ENDBRANCH   1  17
TORSDOF 2
ENDMDL
MODEL 4
REMARK VINA RESULT: -6.146929976      2.063      2.730
REMARK  2 active torsions:
REMARK  status: ('A' for Active; 'I' for Inactive)
REMARK    1  A    between atoms: N1_2  and  C2_4 
REMARK    2  A    between atoms: C5_11  and  C6_12 
ROOT
HETATM    1  C2  UNL     1      23.062  23.402  17.425  1.00  0.00     0.069 A 
HETATM    2  C3  UNL     1      23.263  24.736  17.110  1.00  0.00     0.064 A 
HETATM    3  C4  UNL     1      24.012  25.158  16.040  1.00  0.00     0.062 A 
HETATM    4  N2  UNL     1      24.364  26.356  15.514  1.00  0.00    -0.300 N 
ATOM      5  H2  UNL     1      24.084  27.262  15.889  1.00  0.00     0.187 HD
HETATM    6  N3  UNL     1      25.122  26.182  14.447  1.00  0.00    -0.303 N 
ATOM      7  H3  UNL     1      25.514  26.931  13.875  1.00  0.00     0.186 HD
HETATM    8  C5  UNL     1      25.295  24.867  14.230  1.00  0.00     0.046 A 
HETATM    9  C10 UNL     1      24.603  24.226  15.224  1.00  0.00     0.020 A 
HETATM   10  C11 UNL     1      24.435  22.901  15.492  1.00  0.00     0.060 A 
HETATM   11  C12 UNL     1      23.669  22.483  16.585  1.00  0.00     0.143 A 
HETATM   12  F1  UNL     1      23.520  21.156  16.827  1.00  0.00    -0.204 F 
ENDROOT
BRANCH   8  13
HETATM   13  C6  UNL     1      26.059  24.297  13.159  1.00  0.00    -0.006 C 
HETATM   14  C7  UNL     1      25.191  23.306  12.405  1.00  0.00     0.021 C 
HETATM   15  C8  UNL     1      27.328  23.610  13.482  1.00  0.00     0.021 C 
HETATM   16  C9  UNL     1      26.401  25.384  12.124  1.00  0.00     0.021 C 
ENDBRANCH   8  13
BRANCH   1  17
HETATM   17  N1  UNL     1      22.284  23.008  18.537  1.00  0.00    -0.392 N 
HETATM   18  C1  UNL     1      22.662  23.284  19.883  1.00  0.00     0.146 C 
ATOM     19  H1  UNL     1      21.413  22.505  18.369  1.00  0.00     0.159 HD
ENDBRANCH   1  17
TORSDOF 2
ENDMDL
MODEL 5
REMARK VINA RESULT: -6.129787661      1.417      1.683
REMARK  2 active torsions:
REMARK  status: ('A' for Active; 'I' for Inactive)
REMARK    1  A    between atoms: N1_2  and  C2_4 
REMARK    2  A    between atoms: C5_11  and  C6_12 
ROOT
HETATM    1  C2  UNL     1      23.531  23.510  16.806  1.00  0.00     0.069 A 
HETATM    2  C3  UNL     1      24.098  22.766  15.784  1.00  0.00     0.064 A 
HETATM    3  C4  UNL     1      24.808  23.318  14.746  1.00  0.00     0.062 A 
HETATM    4  N2  UNL     1      25.449  22.846  13.650  1.00  0.00    -0.300 N 
ATOM      5  H2  UNL     1      25.511  21.862  13.389  1.00  0.00     0.187 HD
HETATM    6  N3  UNL     1      25.981  23.843  12.968  1.00  0.00    -0.303 N 
ATOM      7  H3  UNL     1      26.514  23.746  12.103  1.00  0.00     0.186 HD
HETATM    8  C5  UNL     1      25.713  25.005  13.588  1.00  0.00     0.046 A 
HETATM    9  C10 UNL     1      24.979  24.679  14.699  1.00  0.00     0.020 A 
HETATM   10  C11 UNL     1      24.441  25.455  15.681  1.00  0.00     0.060 A 
HETATM   11  C12 UNL     1      23.720  24.880  16.733  1.00  0.00     0.143 A 
HETATM   12  F1  UNL     1      23.196  25.679  17.697  1.00  0.00    -0.204 F 
ENDROOT
BRANCH   8  13
HETATM   13  C6  UNL     1      26.131  26.301  13.140  1.00  0.00    -0.006 C 
HETATM   14  C7  UNL     1      27.031  26.922  14.192  1.00  0.00     0.021 C 
HETATM   15  C8  UNL     1      25.096  27.302  12.803  1.00  0.00     0.021 C 
HETATM   16  C9  UNL     1      27.025  26.160  11.895  1.00  0.00     0.021 C 
ENDBRANCH   8  13
BRANCH   1  17
HETATM   17  N1  UNL     1      22.807  22.903  17.856  1.00  0.00    -0.392 N 
HETATM   18  C1  UNL     1      21.392  22.735  17.823  1.00  0.00     0.146 C 
ATOM     19  H1  UNL     1      23.318  22.571  18.673  1.00  0.00     0.159 HD
ENDBRANCH   1  17
TORSDOF 2
ENDMDL
