MODEL 1
REMARK VINA RESULT: -7.249025709      0.000      0.000
REMARK  1 active torsions:
REMARK  status: ('A' for Active; 'I' for Inactive)
REMARK    1  A    between atoms: C3_6  and  C4_7 
ROOT
HETATM    1  N1  UNL     1      20.762  19.275  16.179  1.00  0.00    -0.378 N 
ATOM      2  H11 UNL     1      19.818  18.996  15.914  1.00  0.00     0.158 HD
ATOM      3  H12 UNL     1      21.277  18.405  16.313  1.00  0.00     0.158 HD
HETATM    4  C1  UNL     1      21.142  20.482  16.297  1.00  0.00     0.165 A 
HETATM    5  C2  UNL     1      22.432  20.864  16.660  1.00  0.00     0.085 A 
HETATM    6  C3  UNL     1      22.478  22.253  16.687  1.00  0.00     0.043 A 
HETATM    7  N2  UNL     1      21.235  22.634  16.346  1.00  0.00    -0.263 N 
ATOM      8  H2  UNL     1      20.920  23.601  16.268  1.00  0.00     0.194 HD
HETATM    9  O1  UNL     1      20.490  21.583  16.127  1.00  0.00    -0.220 OA
ENDROOT
BRANCH   6  10
HETATM   10  C4  UNL     1      23.616  23.148  17.012  1.00  0.00     0.071 C 
HETATM   11  C5  UNL     1      24.299  23.686  15.777  1.00  0.00     0.013 C 
HETATM   12  C6  UNL     1      25.761  23.379  15.732  1.00  0.00     0.001 C 
HETATM   13  C7  UNL     1      26.645  24.575  15.809  1.00  0.00     0.000 C 
HETATM   14  C8  UNL     1      26.299  25.571  16.840  1.00  0.00     0.000 C 
HETATM   15  C9  UNL     1      25.519  25.052  18.004  1.00  0.00     0.003 C 
HETATM   16  C10 UNL     1      24.066  25.430  17.964  1.00  0.00     0.038 C 
HETATM   17  C11 UNL     1      23.220  24.196  17.987  1.00  0.00     0.180 C 
HETATM   18  F1  UNL     1      23.327  23.659  19.278  1.00  0.00    -0.249 F 
ENDBRANCH   6  10
TORSDOF 1
ENDMDL
MODEL 2
REMARK VINA RESULT: -6.986377616      1.872      2.713
REMARK  1 active torsions:
REMARK  status: ('A' for Active; 'I' for Inactive)
REMARK    1  A    between atoms: C3_6  and  C4_7 
ROOT
HETATM    1  N1  UNL     1      20.106  19.089  16.137  1.00  0.00    -0.378 N 
ATOM      2  H11 UNL     1      20.055  18.075  16.045  1.00  0.00     0.158 HD
ATOM      3  H12 UNL     1      19.142  19.417  16.090  1.00  0.00     0.158 HD
HETATM    4  C1  UNL     1      21.189  19.739  16.279  1.00  0.00     0.165 A 
HETATM    5  C2  UNL     1      21.260  21.125  16.405  1.00  0.00     0.085 A 
HETATM    6  C3  UNL     1      22.597  21.478  16.541  1.00  0.00     0.043 A 
HETATM    7  N2  UNL     1      23.256  20.307  16.491  1.00  0.00    -0.263 N 
ATOM      8  H2  UNL     1      24.269  20.202  16.561  1.00  0.00     0.194 HD
HETATM    9  O1  UNL     1      22.410  19.324  16.339  1.00  0.00    -0.220 OA
ENDROOT
BRANCH   6  10
HETATM   10  C4  UNL     1      23.201  22.823  16.706  1.00  0.00     0.071 C 
HETATM   11  C5  UNL     1      23.211  23.279  18.146  1.00  0.00     0.013 C 
HETATM   12  C6  UNL     1      22.517  24.587  18.354  1.00  0.00     0.001 C 
HETATM   13  C7  UNL     1      23.409  25.694  18.797  1.00  0.00     0.000 C 
HETATM   14  C8  UNL     1      24.684  25.830  18.069  1.00  0.00     0.000 C 
HETATM   15  C9  UNL     1      24.701  25.269  16.685  1.00  0.00     0.003 C 
HETATM   16  C10 UNL     1      25.437  23.964  16.580  1.00  0.00     0.038 C 
HETATM   17  C11 UNL     1      24.525  22.908  16.038  1.00  0.00     0.180 C 
HETATM   18  F1  UNL     1      24.315  23.213  14.685  1.00  0.00    -0.249 F 
ENDBRANCH   6  10
TORSDOF 1
ENDMDL
MODEL 3
REMARK VINA RESULT: -6.863280323      3.350      4.808
REMARK  1 active torsions:
REMARK  status: ('A' for Active; 'I' for Inactive)
REMARK    1  A    between atoms: C3_6  and  C4_7 
ROOT
HETATM    1  N1  UNL     1      26.439  24.776  11.357  1.00  0.00    -0.378 N 
ATOM      2  H11 UNL     1      26.787  24.268  10.543  1.00  0.00     0.158 HD
ATOM      3  H12 UNL     1      26.593  25.762  11.150  1.00  0.00     0.158 HD
HETATM    4  C1  UNL     1      25.931  24.220  12.380  1.00  0.00     0.165 A 
HETATM    5  C2  UNL     1      25.455  24.913  13.491  1.00  0.00     0.085 A 
HETATM    6  C3  UNL     1      24.976  23.983  14.406  1.00  0.00     0.043 A 
HETATM    7  N2  UNL     1      25.183  22.795  13.812  1.00  0.00    -0.263 N 
ATOM      8  H2  UNL     1      24.943  21.889  14.215  1.00  0.00     0.194 HD
HETATM    9  O1  UNL     1      25.736  22.971  12.642  1.00  0.00    -0.220 OA
ENDROOT
BRANCH   6  10
HETATM   10  C4  UNL     1      24.368  24.206  15.741  1.00  0.00     0.071 C 
HETATM   11  C5  UNL     1      23.906  22.921  16.388  1.00  0.00     0.013 C 
HETATM   12  C6  UNL     1      22.457  22.935  16.755  1.00  0.00     0.001 C 
HETATM   13  C7  UNL     1      22.191  22.871  18.219  1.00  0.00     0.000 C 
HETATM   14  C8  UNL     1      23.006  23.762  19.065  1.00  0.00     0.000 C 
HETATM   15  C9  UNL     1      23.558  24.972  18.385  1.00  0.00     0.003 C 
HETATM   16  C10 UNL     1      25.024  24.865  18.076  1.00  0.00     0.038 C 
HETATM   17  C11 UNL     1      25.247  25.034  16.606  1.00  0.00     0.180 C 
HETATM   18  F1  UNL     1      25.004  26.384  16.315  1.00  0.00    -0.249 F 
ENDBRANCH   6  10
TORSDOF 1
ENDMDL
MODEL 4
REMARK VINA RESULT: -6.840781345      3.221      4.690
REMARK  1 active torsions:
REMARK  status: ('A' for Active; 'I' for Inactive)
REMARK    1  A    between atoms: C3_6  and  C4_7 
ROOT
HETATM    1  N1  UNL     1      26.241  24.862  11.534  1.00  0.00    -0.378 N 
ATOM      2  H11 UNL     1      26.548  24.479  10.640  1.00  0.00     0.158 HD
ATOM      3  H12 UNL     1      26.395  25.868  11.468  1.00  0.00     0.158 HD
HETATM    4  C1  UNL     1      25.774  24.163  12.487  1.00  0.00     0.165 A 
HETATM    5  C2  UNL     1      25.355  24.685  13.709  1.00  0.00     0.085 A 
HETATM    6  C3  UNL     1      24.908  23.631  14.497  1.00  0.00     0.043 A 
HETATM    7  N2  UNL     1      25.077  22.544  13.725  1.00  0.00    -0.263 N 
ATOM      8  H2  UNL     1      24.846  21.589  14.001  1.00  0.00     0.194 HD
HETATM    9  O1  UNL     1      25.579  22.889  12.571  1.00  0.00    -0.220 OA
ENDROOT
BRANCH   6  10
HETATM   10  C4  UNL     1      24.363  23.657  15.877  1.00  0.00     0.071 C 
HETATM   11  C5  UNL     1      23.829  25.017  16.262  1.00  0.00     0.013 C 
HETATM   12  C6  UNL     1      24.463  25.568  17.499  1.00  0.00     0.001 C 
HETATM   13  C7  UNL     1      23.533  25.723  18.651  1.00  0.00     0.000 C 
HETATM   14  C8  UNL     1      22.642  24.580  18.924  1.00  0.00     0.000 C 
HETATM   15  C9  UNL     1      23.124  23.254  18.433  1.00  0.00     0.003 C 
HETATM   16  C10 UNL     1      22.412  22.782  17.198  1.00  0.00     0.038 C 
HETATM   17  C11 UNL     1      23.402  22.546  16.100  1.00  0.00     0.180 C 
HETATM   18  F1  UNL     1      24.129  21.400  16.452  1.00  0.00    -0.249 F 
ENDBRANCH   6  10
TORSDOF 1
ENDMDL
MODEL 5
REMARK VINA RESULT: -6.628995709      3.181      4.288
REMARK  1 active torsions:
REMARK  status: ('A' for Active; 'I' for Inactive)
REMARK    1  A    between atoms: C3_6  and  C4_7 
ROOT
HETATM    1  N1  UNL     1      22.369  23.307  19.390  1.00  0.00    -0.378 N 
ATOM      2  H11 UNL     1      22.137  23.592  20.341  1.00  0.00     0.158 HD
ATOM      3  H12 UNL     1      21.997  22.363  19.290  1.00  0.00     0.158 HD
HETATM    4  C1  UNL     1      22.995  24.036  18.559  1.00  0.00     0.165 A 
HETATM    5  C2  UNL     1      23.311  23.647  17.259  1.00  0.00     0.085 A 
HETATM    6  C3  UNL     1      23.993  24.694  16.649  1.00  0.00     0.043 A 
HETATM    7  N2  UNL     1      24.052  25.647  17.595  1.00  0.00    -0.263 N 
ATOM      8  H2  UNL     1      24.492  26.560  17.478  1.00  0.00     0.194 HD
HETATM    9  O1  UNL     1      23.465  25.232  18.685  1.00  0.00    -0.220 OA
ENDROOT
BRANCH   6  10
HETATM   10  C4  UNL     1      24.543  24.781  15.274  1.00  0.00     0.071 C 
HETATM   11  C5  UNL     1      25.201  26.113  14.999  1.00  0.00     0.013 C 
HETATM   12  C6  UNL     1      24.625  26.820  13.815  1.00  0.00     0.001 C 
HETATM   13  C7  UNL     1      25.570  26.983  12.675  1.00  0.00     0.000 C 
HETATM   14  C8  UNL     1      26.353  25.789  12.306  1.00  0.00     0.000 C 
HETATM   15  C9  UNL     1      25.748  24.477  12.688  1.00  0.00     0.003 C 
HETATM   16  C10 UNL     1      26.409  23.841  13.878  1.00  0.00     0.038 C 
HETATM   17  C11 UNL     1      25.398  23.609  14.957  1.00  0.00     0.180 C 
HETATM   18  F1  UNL     1      24.569  22.568  14.515  1.00  0.00    -0.249 F 
ENDBRANCH   6  10
TORSDOF 1
ENDMDL
