MODEL 1
REMARK VINA RESULT: -3.780699234      0.000      0.000
REMARK  2 active torsions:
REMARK  status: ('A' for Active; 'I' for Inactive)
REMARK    1  A    between atoms: C2_2  and  C4_5 
REMARK    2  A    between atoms: C4_5  and  O1_6 
ROOT
HETATM    1  C1  UNL     1      24.489   5.950   3.951  1.00  0.00     0.034 C 
HETATM    2  C2  UNL     1      25.832   5.648   4.559  1.00  0.00     0.051 C 
HETATM    3  C3  UNL     1      25.685   5.451   6.064  1.00  0.00     0.034 C 
HETATM    4 CL1  UNL     1      26.508   4.186   3.881  1.00  0.00    -0.118 Cl
ENDROOT
BRANCH   2   5
HETATM    5  C4  UNL     1      26.715   6.859   4.368  1.00  0.00     0.189 C 
BRANCH   5   6
HETATM    6  O1  UNL     1      27.278   7.260   5.574  1.00  0.00    -0.399 OA
ATOM      7  H1  UNL     1      28.012   7.845   5.430  1.00  0.00     0.209 HD
ENDBRANCH   5   6
ENDBRANCH   2   5
TORSDOF 2
ENDMDL
MODEL 2
REMARK VINA RESULT: -3.776038037      1.327      1.849
REMARK  2 active torsions:
REMARK  status: ('A' for Active; 'I' for Inactive)
REMARK    1  A    between atoms: C2_2  and  C4_5 
REMARK    2  A    between atoms: C4_5  and  O1_6 
ROOT
HETATM    1  C1  UNL     1      25.671   5.476   6.044  1.00  0.00     0.034 C 
HETATM    2  C2  UNL     1      25.793   5.679   4.558  1.00  0.00     0.051 C 
HETATM    3  C3  UNL     1      26.400   4.436   3.916  1.00  0.00     0.034 C 
HETATM    4 CL1  UNL     1      24.225   5.955   3.837  1.00  0.00    -0.118 Cl
ENDROOT
BRANCH   2   5
HETATM    5  C4  UNL     1      26.768   6.807   4.318  1.00  0.00     0.189 C 
BRANCH   5   6
HETATM    6  O1  UNL     1      27.271   7.295   5.519  1.00  0.00    -0.399 OA
ATOM      7  H1  UNL     1      26.645   7.872   5.941  1.00  0.00     0.209 HD
ENDBRANCH   5   6
ENDBRANCH   2   5
TORSDOF 2
ENDMDL
MODEL 3
REMARK VINA RESULT: -3.681882233      1.294      1.807
REMARK  2 active torsions:
REMARK  status: ('A' for Active; 'I' for Inactive)
REMARK    1  A    between atoms: C2_2  and  C4_5 
REMARK    2  A    between atoms: C4_5  and  O1_6 
ROOT
HETATM    1  C1  UNL     1      26.501   4.381   3.791  1.00  0.00     0.034 C 
HETATM    2  C2  UNL     1      25.975   5.595   4.507  1.00  0.00     0.051 C 
HETATM    3  C3  UNL     1      24.568   5.916   4.014  1.00  0.00     0.034 C 
HETATM    4 CL1  UNL     1      25.898   5.316   6.231  1.00  0.00    -0.118 Cl
ENDROOT
BRANCH   2   5
HETATM    5  C4  UNL     1      26.842   6.773   4.130  1.00  0.00     0.189 C 
BRANCH   5   6
HETATM    6  O1  UNL     1      27.367   7.387   5.260  1.00  0.00    -0.399 OA
ATOM      7  H1  UNL     1      26.727   7.415   5.962  1.00  0.00     0.209 HD
ENDBRANCH   5   6
ENDBRANCH   2   5
TORSDOF 2
ENDMDL
MODEL 4
REMARK VINA RESULT: -3.673930268      2.069      2.644
REMARK  2 active torsions:
REMARK  status: ('A' for Active; 'I' for Inactive)
REMARK    1  A    between atoms: C2_2  and  C4_5 
REMARK    2  A    between atoms: C4_5  and  O1_6 
ROOT
HETATM    1  C1  UNL     1      25.834   5.368   6.054  1.00  0.00     0.034 C 
HETATM    2  C2  UNL     1      25.953   5.654   4.582  1.00  0.00     0.051 C 
HETATM    3  C3  UNL     1      24.575   5.963   4.004  1.00  0.00     0.034 C 
HETATM    4 CL1  UNL     1      26.985   7.036   4.298  1.00  0.00    -0.118 Cl
ENDROOT
BRANCH   2   5
HETATM    5  C4  UNL     1      26.434   4.397   3.898  1.00  0.00     0.189 C 
BRANCH   5   6
HETATM    6  O1  UNL     1      27.112   4.697   2.722  1.00  0.00    -0.399 OA
ATOM      7  H1  UNL     1      27.934   4.224   2.671  1.00  0.00     0.209 HD
ENDBRANCH   5   6
ENDBRANCH   2   5
TORSDOF 2
ENDMDL
MODEL 5
REMARK VINA RESULT: -3.665080013      2.056      2.418
REMARK  2 active torsions:
REMARK  status: ('A' for Active; 'I' for Inactive)
REMARK    1  A    between atoms: C2_2  and  C4_5 
REMARK    2  A    between atoms: C4_5  and  O1_6 
ROOT
HETATM    1  C1  UNL     1      26.704   6.838   4.324  1.00  0.00     0.034 C 
HETATM    2  C2  UNL     1      25.775   5.669   4.509  1.00  0.00     0.051 C 
HETATM    3  C3  UNL     1      25.596   5.383   5.996  1.00  0.00     0.034 C 
HETATM    4 CL1  UNL     1      24.203   6.010   3.826  1.00  0.00    -0.118 Cl
ENDROOT
BRANCH   2   5
HETATM    5  C4  UNL     1      26.434   4.448   3.912  1.00  0.00     0.189 C 
BRANCH   5   6
HETATM    6  O1  UNL     1      27.070   4.759   2.716  1.00  0.00    -0.399 OA
ATOM      7  H1  UNL     1      27.721   4.103   2.495  1.00  0.00     0.209 HD
ENDBRANCH   5   6
ENDBRANCH   2   5
TORSDOF 2
ENDMDL
