MODEL 1
REMARK VINA RESULT: -4.730674522      0.000      0.000
REMARK  0 active torsions:
REMARK  status: ('A' for Active; 'I' for Inactive)
ROOT
HETATM    1  C1  UNL     1      25.590   4.810   4.508  1.00  0.00     0.012 C 
HETATM    2  C2  UNL     1      26.260   5.882   3.737  1.00  0.00     0.013 C 
HETATM    3  C3  UNL     1      27.214   5.338   2.664  1.00  0.00     0.034 C 
HETATM    4  C4  UNL     1      27.970   6.611   2.336  1.00  0.00     0.233 C 
HETATM    5  N1  UNL     1      27.929   7.442   3.513  1.00  0.00    -0.071 N 
ATOM      6  H11 UNL     1      27.493   8.349   3.347  1.00  0.00     0.277 HD
ATOM      7  H12 UNL     1      28.849   7.786   3.790  1.00  0.00     0.277 HD
HETATM    8  C5  UNL     1      27.271   6.678   4.556  1.00  0.00     0.185 C 
HETATM    9  C6  UNL     1      26.631   7.523   5.603  1.00  0.00     0.040 C 
ENDROOT
TORSDOF 0
ENDMDL
MODEL 2
REMARK VINA RESULT: -4.534649475      1.794      3.404
REMARK  0 active torsions:
REMARK  status: ('A' for Active; 'I' for Inactive)
ROOT
HETATM    1  C1  UNL     1      27.891   7.518   4.232  1.00  0.00     0.012 C 
HETATM    2  C2  UNL     1      26.629   6.814   4.556  1.00  0.00     0.013 C 
HETATM    3  C3  UNL     1      26.426   6.619   6.066  1.00  0.00     0.034 C 
HETATM    4  C4  UNL     1      25.303   5.602   6.036  1.00  0.00     0.233 C 
HETATM    5  N1  UNL     1      25.424   4.876   4.796  1.00  0.00    -0.071 N 
ATOM      6  H11 UNL     1      24.593   4.946   4.209  1.00  0.00     0.277 HD
ATOM      7  H12 UNL     1      25.409   3.864   4.924  1.00  0.00     0.277 HD
HETATM    8  C5  UNL     1      26.626   5.348   4.137  1.00  0.00     0.185 C 
HETATM    9  C6  UNL     1      26.607   5.168   2.658  1.00  0.00     0.040 C 
ENDROOT
TORSDOF 0
ENDMDL
MODEL 3
REMARK VINA RESULT: -4.529494515      0.838      2.364
REMARK  0 active torsions:
REMARK  status: ('A' for Active; 'I' for Inactive)
ROOT
HETATM    1  C1  UNL     1      25.283   5.287   4.974  1.00  0.00     0.012 C 
HETATM    2  C2  UNL     1      26.605   5.940   4.830  1.00  0.00     0.013 C 
HETATM    3  C3  UNL     1      26.669   7.312   5.514  1.00  0.00     0.034 C 
HETATM    4  C4  UNL     1      27.950   7.837   4.895  1.00  0.00     0.233 C 
HETATM    5  N1  UNL     1      28.096   7.191   3.615  1.00  0.00    -0.071 N 
ATOM      6  H11 UNL     1      28.962   6.658   3.533  1.00  0.00     0.277 HD
ATOM      7  H12 UNL     1      28.273   7.847   2.854  1.00  0.00     0.277 HD
HETATM    8  C5  UNL     1      26.911   6.383   3.403  1.00  0.00     0.185 C 
HETATM    9  C6  UNL     1      27.125   5.237   2.474  1.00  0.00     0.040 C 
ENDROOT
TORSDOF 0
ENDMDL
MODEL 4
REMARK VINA RESULT: -4.514199364      1.438      2.577
REMARK  0 active torsions:
REMARK  status: ('A' for Active; 'I' for Inactive)
ROOT
HETATM    1  C1  UNL     1      26.861   5.271   2.586  1.00  0.00     0.012 C 
HETATM    2  C2  UNL     1      26.742   5.443   4.053  1.00  0.00     0.013 C 
HETATM    3  C3  UNL     1      25.373   5.009   4.594  1.00  0.00     0.034 C 
HETATM    4  C4  UNL     1      25.446   5.627   5.977  1.00  0.00     0.233 C 
HETATM    5  N1  UNL     1      26.332   6.761   5.886  1.00  0.00    -0.071 N 
ATOM      6  H11 UNL     1      27.135   6.692   6.511  1.00  0.00     0.277 HD
ATOM      7  H12 UNL     1      25.932   7.613   6.280  1.00  0.00     0.277 HD
HETATM    8  C5  UNL     1      26.708   6.902   4.492  1.00  0.00     0.185 C 
HETATM    9  C6  UNL     1      28.010   7.599   4.291  1.00  0.00     0.040 C 
ENDROOT
TORSDOF 0
ENDMDL
MODEL 5
REMARK VINA RESULT: -4.401955752      0.940      1.230
REMARK  0 active torsions:
REMARK  status: ('A' for Active; 'I' for Inactive)
ROOT
HETATM    1  C1  UNL     1      25.417   5.120   6.025  1.00  0.00     0.012 C 
HETATM    2  C2  UNL     1      25.805   5.596   4.677  1.00  0.00     0.013 C 
HETATM    3  C3  UNL     1      26.360   4.475   3.786  1.00  0.00     0.034 C 
HETATM    4  C4  UNL     1      26.972   5.316   2.683  1.00  0.00     0.233 C 
HETATM    5  N1  UNL     1      27.316   6.589   3.264  1.00  0.00    -0.071 N 
ATOM      6  H11 UNL     1      26.852   7.375   2.808  1.00  0.00     0.277 HD
ATOM      7  H12 UNL     1      28.277   6.871   3.068  1.00  0.00     0.277 HD
HETATM    8  C5  UNL     1      27.028   6.506   4.683  1.00  0.00     0.185 C 
HETATM    9  C6  UNL     1      26.763   7.828   5.318  1.00  0.00     0.040 C 
ENDROOT
TORSDOF 0
ENDMDL
