MODEL 1
REMARK VINA RESULT: -7.449133898      0.000      0.000
REMARK  4 active torsions:
REMARK  status: ('A' for Active; 'I' for Inactive)
REMARK    1  A    between atoms: C1_2  and  N1_3 
REMARK    2  A    between atoms: C1_2  and  N3_15 
REMARK    3  A    between atoms: N1_3  and  C2_5 
REMARK    4  A    between atoms: N3_15  and  C9_17 
ROOT
HETATM    1  N1  UNL     1      22.995   8.752  33.384  1.00  0.00    -0.313 N 
ATOM      2  H1  UNL     1      22.959   7.808  33.770  1.00  0.00     0.170 HD
ENDROOT
BRANCH   1   3
HETATM    3  C1  UNL     1      24.264   9.362  33.028  1.00  0.00     0.178 C 
HETATM    4  S1  UNL     1      25.127   8.719  31.814  1.00  0.00    -0.040 SA
BRANCH   3   5
HETATM    5  N3  UNL     1      24.708  10.512  33.706  1.00  0.00    -0.333 N 
ATOM      6  H3  UNL     1      24.842  10.427  34.714  1.00  0.00     0.168 HD
BRANCH   5   7
HETATM    7  C9  UNL     1      24.986  11.762  33.140  1.00  0.00     0.034 A 
HETATM    8  C10 UNL     1      26.157  12.099  32.530  1.00  0.00     0.029 A 
HETATM    9  C11 UNL     1      26.351  13.364  31.956  1.00  0.00     0.002 A 
HETATM   10  C12 UNL     1      25.356  14.308  31.993  1.00  0.00     0.000 A 
HETATM   11  C13 UNL     1      24.170  13.995  32.600  1.00  0.00     0.002 A 
HETATM   12  C14 UNL     1      23.987  12.757  33.160  1.00  0.00     0.029 A 
ENDBRANCH   5   7
ENDBRANCH   3   5
ENDBRANCH   1   3
BRANCH   1  13
HETATM   13  C2  UNL     1      21.893   9.447  33.196  1.00  0.00     0.152 A 
HETATM   14  N2  UNL     1      21.637  10.686  33.616  1.00  0.00    -0.335 N 
HETATM   15  C3  UNL     1      20.464  11.216  33.326  1.00  0.00     0.051 A 
ATOM     16  H2  UNL     1      22.329  11.212  34.149  1.00  0.00     0.168 HD
HETATM   17  C4  UNL     1      19.996  12.500  33.674  1.00  0.00     0.031 A 
HETATM   18  C8  UNL     1      19.585  10.454  32.610  1.00  0.00     0.035 A 
HETATM   19  C5  UNL     1      18.753  12.921  33.305  1.00  0.00     0.002 A 
HETATM   20  C6  UNL     1      17.870  12.156  32.586  1.00  0.00     0.002 A 
HETATM   21  C7  UNL     1      18.302  10.895  32.233  1.00  0.00     0.021 A 
HETATM   22  S2  UNL     1      20.466   9.009  32.377  1.00  0.00    -0.052 SA
ENDBRANCH   1  13
TORSDOF 4
ENDMDL
MODEL 2
REMARK VINA RESULT: -7.447786215      0.046      1.082
REMARK  4 active torsions:
REMARK  status: ('A' for Active; 'I' for Inactive)
REMARK    1  A    between atoms: C1_2  and  N1_3 
REMARK    2  A    between atoms: C1_2  and  N3_15 
REMARK    3  A    between atoms: N1_3  and  C2_5 
REMARK    4  A    between atoms: N3_15  and  C9_17 
ROOT
HETATM    1  N1  UNL     1      23.002   8.753  33.396  1.00  0.00    -0.313 N 
ATOM      2  H1  UNL     1      22.967   7.812  33.788  1.00  0.00     0.170 HD
ENDROOT
BRANCH   1   3
HETATM    3  C1  UNL     1      24.270   9.363  33.036  1.00  0.00     0.178 C 
HETATM    4  S1  UNL     1      25.139   8.707  31.834  1.00  0.00    -0.040 SA
BRANCH   3   5
HETATM    5  N3  UNL     1      24.708  10.524  33.701  1.00  0.00    -0.333 N 
ATOM      6  H3  UNL     1      24.909  10.433  34.696  1.00  0.00     0.168 HD
BRANCH   5   7
HETATM    7  C9  UNL     1      24.895  11.791  33.135  1.00  0.00     0.034 A 
HETATM    8  C10 UNL     1      23.966  12.789  33.136  1.00  0.00     0.029 A 
HETATM    9  C11 UNL     1      24.238  14.046  32.576  1.00  0.00     0.002 A 
HETATM   10  C12 UNL     1      25.458  14.309  32.006  1.00  0.00     0.000 A 
HETATM   11  C13 UNL     1      26.407  13.323  31.993  1.00  0.00     0.002 A 
HETATM   12  C14 UNL     1      26.135  12.096  32.541  1.00  0.00     0.029 A 
ENDBRANCH   5   7
ENDBRANCH   3   5
ENDBRANCH   1   3
BRANCH   1  13
HETATM   13  C2  UNL     1      21.899   9.444  33.204  1.00  0.00     0.152 A 
HETATM   14  N2  UNL     1      21.634  10.681  33.630  1.00  0.00    -0.335 N 
HETATM   15  C3  UNL     1      20.462  11.208  33.334  1.00  0.00     0.051 A 
ATOM     16  H2  UNL     1      22.321  11.205  34.172  1.00  0.00     0.168 HD
HETATM   17  C4  UNL     1      19.986  12.487  33.686  1.00  0.00     0.031 A 
HETATM   18  C8  UNL     1      19.592  10.447  32.606  1.00  0.00     0.035 A 
HETATM   19  C5  UNL     1      18.745  12.906  33.311  1.00  0.00     0.002 A 
HETATM   20  C6  UNL     1      17.870  12.142  32.579  1.00  0.00     0.002 A 
HETATM   21  C7  UNL     1      18.310  10.885  32.222  1.00  0.00     0.021 A 
HETATM   22  S2  UNL     1      20.480   9.007  32.371  1.00  0.00    -0.052 SA
ENDBRANCH   1  13
TORSDOF 4
ENDMDL
MODEL 3
REMARK VINA RESULT: -7.395150173      1.832      2.539
REMARK  4 active torsions:
REMARK  status: ('A' for Active; 'I' for Inactive)
REMARK    1  A    between atoms: C1_2  and  N1_3 
REMARK    2  A    between atoms: C1_2  and  N3_15 
REMARK    3  A    between atoms: N1_3  and  C2_5 
REMARK    4  A    between atoms: N3_15  and  C9_17 
ROOT
HETATM    1  N1  UNL     1      24.748   9.243  31.947  1.00  0.00    -0.313 N 
ATOM      2  H1  UNL     1      25.249   8.354  31.951  1.00  0.00     0.170 HD
ENDROOT
BRANCH   1   3
HETATM    3  C1  UNL     1      25.438  10.484  31.642  1.00  0.00     0.178 C 
HETATM    4  S1  UNL     1      25.982  10.726  30.133  1.00  0.00    -0.040 SA
BRANCH   3   5
HETATM    5  N3  UNL     1      25.593  11.467  32.638  1.00  0.00    -0.333 N 
ATOM      6  H3  UNL     1      26.446  11.424  33.195  1.00  0.00     0.168 HD
BRANCH   5   7
HETATM    7  C9  UNL     1      24.696  12.498  32.942  1.00  0.00     0.034 A 
HETATM    8  C10 UNL     1      24.735  13.749  32.402  1.00  0.00     0.029 A 
HETATM    9  C11 UNL     1      23.780  14.722  32.732  1.00  0.00     0.002 A 
HETATM   10  C12 UNL     1      22.769  14.439  33.616  1.00  0.00     0.000 A 
HETATM   11  C13 UNL     1      22.709  13.190  34.172  1.00  0.00     0.002 A 
HETATM   12  C14 UNL     1      23.646  12.243  33.846  1.00  0.00     0.029 A 
ENDBRANCH   5   7
ENDBRANCH   3   5
ENDBRANCH   1   3
BRANCH   1  13
HETATM   13  C2  UNL     1      23.461   9.294  32.218  1.00  0.00     0.152 A 
HETATM   14  N2  UNL     1      22.828   8.726  33.246  1.00  0.00    -0.335 N 
HETATM   15  C3  UNL     1      21.523   8.892  33.347  1.00  0.00     0.051 A 
ATOM     16  H2  UNL     1      23.340   8.176  33.936  1.00  0.00     0.168 HD
HETATM   17  C4  UNL     1      20.672   8.380  34.347  1.00  0.00     0.031 A 
HETATM   18  C8  UNL     1      20.905   9.640  32.386  1.00  0.00     0.035 A 
HETATM   19  C5  UNL     1      19.332   8.632  34.329  1.00  0.00     0.002 A 
HETATM   20  C6  UNL     1      18.710   9.384  33.364  1.00  0.00     0.002 A 
HETATM   21  C7  UNL     1      19.521   9.896  32.373  1.00  0.00     0.021 A 
HETATM   22  S2  UNL     1      22.208  10.078  31.373  1.00  0.00    -0.052 SA
ENDBRANCH   1  13
TORSDOF 4
ENDMDL
MODEL 4
REMARK VINA RESULT: -7.311360483      2.402      6.460
REMARK  4 active torsions:
REMARK  status: ('A' for Active; 'I' for Inactive)
REMARK    1  A    between atoms: C1_2  and  N1_3 
REMARK    2  A    between atoms: C1_2  and  N3_15 
REMARK    3  A    between atoms: N1_3  and  C2_5 
REMARK    4  A    between atoms: N3_15  and  C9_17 
ROOT
HETATM    1  N1  UNL     1      20.672  13.078  34.005  1.00  0.00    -0.313 N 
ATOM      2  H1  UNL     1      20.392  13.636  34.812  1.00  0.00     0.170 HD
ENDROOT
BRANCH   1   3
HETATM    3  C1  UNL     1      19.703  12.266  33.290  1.00  0.00     0.178 C 
HETATM    4  S1  UNL     1      18.154  12.747  33.256  1.00  0.00    -0.040 SA
BRANCH   3   5
HETATM    5  N3  UNL     1      20.119  11.106  32.611  1.00  0.00    -0.333 N 
ATOM      6  H3  UNL     1      20.573  11.242  31.708  1.00  0.00     0.168 HD
BRANCH   5   7
HETATM    7  C9  UNL     1      19.975   9.784  33.049  1.00  0.00     0.034 A 
HETATM    8  C10 UNL     1      20.408   8.686  32.368  1.00  0.00     0.029 A 
HETATM    9  C11 UNL     1      20.256   7.391  32.886  1.00  0.00     0.002 A 
HETATM   10  C12 UNL     1      19.661   7.192  34.106  1.00  0.00     0.000 A 
HETATM   11  C13 UNL     1      19.218   8.279  34.810  1.00  0.00     0.002 A 
HETATM   12  C14 UNL     1      19.369   9.542  34.298  1.00  0.00     0.029 A 
ENDBRANCH   5   7
ENDBRANCH   3   5
ENDBRANCH   1   3
BRANCH   1  13
HETATM   13  C2  UNL     1      21.920  13.076  33.587  1.00  0.00     0.152 A 
HETATM   14  N2  UNL     1      22.760  12.041  33.553  1.00  0.00    -0.335 N 
HETATM   15  C3  UNL     1      23.981  12.239  33.095  1.00  0.00     0.051 A 
ATOM     16  H2  UNL     1      22.466  11.118  33.874  1.00  0.00     0.168 HD
HETATM   17  C4  UNL     1      25.015  11.288  32.978  1.00  0.00     0.031 A 
HETATM   18  C8  UNL     1      24.305  13.501  32.683  1.00  0.00     0.035 A 
HETATM   19  C5  UNL     1      26.238  11.634  32.484  1.00  0.00     0.002 A 
HETATM   20  C6  UNL     1      26.563  12.901  32.069  1.00  0.00     0.002 A 
HETATM   21  C7  UNL     1      25.569  13.851  32.174  1.00  0.00     0.021 A 
HETATM   22  S2  UNL     1      22.853  14.356  32.964  1.00  0.00    -0.052 SA
ENDBRANCH   1  13
TORSDOF 4
ENDMDL
MODEL 5
REMARK VINA RESULT: -7.175877608      1.543      5.367
REMARK  4 active torsions:
REMARK  status: ('A' for Active; 'I' for Inactive)
REMARK    1  A    between atoms: C1_2  and  N1_3 
REMARK    2  A    between atoms: C1_2  and  N3_15 
REMARK    3  A    between atoms: N1_3  and  C2_5 
REMARK    4  A    between atoms: N3_15  and  C9_17 
ROOT
HETATM    1  N1  UNL     1      22.329   8.517  33.642  1.00  0.00    -0.313 N 
ATOM      2  H1  UNL     1      22.965   7.834  34.054  1.00  0.00     0.170 HD
ENDROOT
BRANCH   1   3
HETATM    3  C1  UNL     1      20.890   8.368  33.773  1.00  0.00     0.178 C 
HETATM    4  S1  UNL     1      20.186   7.029  33.189  1.00  0.00    -0.040 SA
BRANCH   3   5
HETATM    5  N3  UNL     1      20.137   9.358  34.431  1.00  0.00    -0.333 N 
ATOM      6  H3  UNL     1      20.130   9.326  35.451  1.00  0.00     0.168 HD
BRANCH   5   7
HETATM    7  C9  UNL     1      19.396  10.383  33.830  1.00  0.00     0.034 A 
HETATM    8  C10 UNL     1      18.901  10.345  32.561  1.00  0.00     0.029 A 
HETATM    9  C11 UNL     1      18.139  11.400  32.037  1.00  0.00     0.002 A 
HETATM   10  C12 UNL     1      17.868  12.511  32.794  1.00  0.00     0.000 A 
HETATM   11  C13 UNL     1      18.355  12.574  34.072  1.00  0.00     0.002 A 
HETATM   12  C14 UNL     1      19.100  11.540  34.579  1.00  0.00     0.029 A 
ENDBRANCH   5   7
ENDBRANCH   3   5
ENDBRANCH   1   3
BRANCH   1  13
HETATM   13  C2  UNL     1      22.792   9.554  32.978  1.00  0.00     0.152 A 
HETATM   14  N2  UNL     1      23.661  10.470  33.410  1.00  0.00    -0.335 N 
HETATM   15  C3  UNL     1      24.006  11.443  32.589  1.00  0.00     0.051 A 
ATOM     16  H2  UNL     1      24.048  10.419  34.353  1.00  0.00     0.168 HD
HETATM   17  C4  UNL     1      24.900  12.502  32.848  1.00  0.00     0.031 A 
HETATM   18  C8  UNL     1      23.448  11.447  31.343  1.00  0.00     0.035 A 
HETATM   19  C5  UNL     1      25.167  13.446  31.901  1.00  0.00     0.002 A 
HETATM   20  C6  UNL     1      24.607  13.451  30.649  1.00  0.00     0.002 A 
HETATM   21  C7  UNL     1      23.727  12.425  30.370  1.00  0.00     0.021 A 
HETATM   22  S2  UNL     1      22.450  10.062  31.389  1.00  0.00    -0.052 SA
ENDBRANCH   1  13
TORSDOF 4
ENDMDL
