MODEL 1
REMARK VINA RESULT: -5.483654632      0.000      0.000
REMARK  0 active torsions:
REMARK  status: ('A' for Active; 'I' for Inactive)
ROOT
HETATM    1  C1  UNL     1      26.937   4.823   2.316  1.00  0.00     0.040 C 
HETATM    2  C2  UNL     1      26.894   5.565   3.602  1.00  0.00     0.182 C 
HETATM    3  C3  UNL     1      25.510   5.658   4.209  1.00  0.00     0.032 C 
HETATM    4  C4  UNL     1      25.728   5.990   5.685  1.00  0.00     0.004 C 
HETATM    5  C5  UNL     1      26.383   7.352   5.723  1.00  0.00     0.032 C 
HETATM    6  C6  UNL     1      27.627   7.362   4.890  1.00  0.00     0.182 C 
HETATM    7  C7  UNL     1      28.285   8.706   4.903  1.00  0.00     0.040 C 
HETATM    8  N1  UNL     1      27.428   6.902   3.540  1.00  0.00    -0.067 N 
ATOM      9  H11 UNL     1      26.848   7.535   2.989  1.00  0.00     0.278 HD
ATOM     10  H12 UNL     1      28.274   6.964   2.974  1.00  0.00     0.278 HD
ENDROOT
TORSDOF 0
ENDMDL
MODEL 2
REMARK VINA RESULT: -5.435199607      0.578      3.001
REMARK  0 active torsions:
REMARK  status: ('A' for Active; 'I' for Inactive)
ROOT
HETATM    1  C1  UNL     1      27.967   8.596   4.870  1.00  0.00     0.040 C 
HETATM    2  C2  UNL     1      27.108   7.423   4.569  1.00  0.00     0.182 C 
HETATM    3  C3  UNL     1      26.620   6.689   5.800  1.00  0.00     0.032 C 
HETATM    4  C4  UNL     1      25.413   5.871   5.342  1.00  0.00     0.004 C 
HETATM    5  C5  UNL     1      25.933   4.869   4.337  1.00  0.00     0.032 C 
HETATM    6  C6  UNL     1      26.672   5.563   3.235  1.00  0.00     0.182 C 
HETATM    7  C7  UNL     1      27.208   4.588   2.235  1.00  0.00     0.040 C 
HETATM    8  N1  UNL     1      27.711   6.446   3.696  1.00  0.00    -0.067 N 
ATOM      9  H11 UNL     1      28.486   5.949   4.135  1.00  0.00     0.278 HD
ATOM     10  H12 UNL     1      28.236   6.871   2.932  1.00  0.00     0.278 HD
ENDROOT
TORSDOF 0
ENDMDL
MODEL 3
REMARK VINA RESULT: -5.247005539      1.044      3.011
REMARK  0 active torsions:
REMARK  status: ('A' for Active; 'I' for Inactive)
ROOT
HETATM    1  C1  UNL     1      25.326   5.491   6.299  1.00  0.00     0.040 C 
HETATM    2  C2  UNL     1      26.348   6.053   5.380  1.00  0.00     0.182 C 
HETATM    3  C3  UNL     1      26.426   7.565   5.402  1.00  0.00     0.032 C 
HETATM    4  C4  UNL     1      27.793   7.917   4.815  1.00  0.00     0.004 C 
HETATM    5  C5  UNL     1      27.776   7.439   3.380  1.00  0.00     0.032 C 
HETATM    6  C6  UNL     1      27.422   5.985   3.314  1.00  0.00     0.182 C 
HETATM    7  C7  UNL     1      27.387   5.494   1.901  1.00  0.00     0.040 C 
HETATM    8  N1  UNL     1      26.204   5.650   4.004  1.00  0.00    -0.067 N 
ATOM      9  H11 UNL     1      25.376   6.048   3.560  1.00  0.00     0.278 HD
ATOM     10  H12 UNL     1      25.952   4.667   3.905  1.00  0.00     0.278 HD
ENDROOT
TORSDOF 0
ENDMDL
MODEL 4
REMARK VINA RESULT: -5.183733266      1.190      2.439
REMARK  0 active torsions:
REMARK  status: ('A' for Active; 'I' for Inactive)
ROOT
HETATM    1  C1  UNL     1      27.488   4.684   1.942  1.00  0.00     0.040 C 
HETATM    2  C2  UNL     1      27.060   5.708   2.928  1.00  0.00     0.182 C 
HETATM    3  C3  UNL     1      28.105   6.768   3.204  1.00  0.00     0.032 C 
HETATM    4  C4  UNL     1      27.347   7.946   3.815  1.00  0.00     0.004 C 
HETATM    5  C5  UNL     1      26.777   7.453   5.126  1.00  0.00     0.032 C 
HETATM    6  C6  UNL     1      25.951   6.223   4.911  1.00  0.00     0.182 C 
HETATM    7  C7  UNL     1      25.387   5.710   6.198  1.00  0.00     0.040 C 
HETATM    8  N1  UNL     1      26.638   5.177   4.199  1.00  0.00    -0.067 N 
ATOM      9  H11 UNL     1      27.407   4.775   4.735  1.00  0.00     0.278 HD
ATOM     10  H12 UNL     1      26.078   4.329   4.107  1.00  0.00     0.278 HD
ENDROOT
TORSDOF 0
ENDMDL
MODEL 5
REMARK VINA RESULT: -5.048482164      1.187      3.442
REMARK  0 active torsions:
REMARK  status: ('A' for Active; 'I' for Inactive)
ROOT
HETATM    1  C1  UNL     1      28.386   8.742   4.783  1.00  0.00     0.040 C 
HETATM    2  C2  UNL     1      27.885   7.436   4.286  1.00  0.00     0.182 C 
HETATM    3  C3  UNL     1      27.940   7.292   2.780  1.00  0.00     0.032 C 
HETATM    4  C4  UNL     1      27.869   5.789   2.506  1.00  0.00     0.004 C 
HETATM    5  C5  UNL     1      26.517   5.329   3.002  1.00  0.00     0.032 C 
HETATM    6  C6  UNL     1      26.324   5.713   4.437  1.00  0.00     0.182 C 
HETATM    7  C7  UNL     1      24.985   5.278   4.945  1.00  0.00     0.040 C 
HETATM    8  N1  UNL     1      26.543   7.111   4.701  1.00  0.00    -0.067 N 
ATOM      9  H11 UNL     1      25.840   7.710   4.268  1.00  0.00     0.278 HD
ATOM     10  H12 UNL     1      26.358   7.363   5.671  1.00  0.00     0.278 HD
ENDROOT
TORSDOF 0
ENDMDL
