MODEL 1
REMARK VINA RESULT: -9.399034003      0.000      0.000
REMARK  3 active torsions:
REMARK  status: ('A' for Active; 'I' for Inactive)
REMARK       I    between atoms: C1_2  and  N1_3 
REMARK       I    between atoms: C1_2  and  N3_17 
REMARK    1  A    between atoms: N1_3  and  C2_5 
REMARK    2  A    between atoms: C4_7  and  C5_8 
REMARK    3  A    between atoms: N3_17  and  C11_19 
ROOT
HETATM    1  O1  UNL     1       9.990 -27.760  38.794  1.00  0.00    -0.246 OA
HETATM    2  C1  UNL     1       9.030 -27.042  39.071  1.00  0.00     0.339 C 
HETATM    3  N1  UNL     1       7.948 -27.604  39.871  1.00  0.00    -0.301 N 
ATOM      4  H1  UNL     1       8.056 -27.781  40.870  1.00  0.00     0.171 HD
HETATM    5  N3  UNL     1       8.918 -25.712  38.662  1.00  0.00    -0.140 N 
ATOM      6  H3  UNL     1       8.074 -25.221  38.956  1.00  0.00     0.189 HD
ENDROOT
BRANCH   3   7
HETATM    7  C2  UNL     1       6.825 -27.872  39.241  1.00  0.00     0.096 A 
HETATM    8  C3  UNL     1       6.334 -29.109  38.917  1.00  0.00     0.069 A 
HETATM    9  C4  UNL     1       5.163 -29.145  38.269  1.00  0.00     0.051 A 
HETATM   10  N2  UNL     1       4.572 -27.977  37.994  1.00  0.00    -0.324 N 
HETATM   11  S1  UNL     1       5.630 -26.830  38.629  1.00  0.00     0.004 SA
ATOM     12  H2  UNL     1       3.686 -27.818  37.513  1.00  0.00     0.174 HD
BRANCH   9  13
HETATM   13  C5  UNL     1       4.516 -30.424  37.856  1.00  0.00    -0.009 A 
HETATM   14  C6  UNL     1       3.685 -30.493  36.760  1.00  0.00     0.014 A 
HETATM   15  C7  UNL     1       3.076 -31.681  36.366  1.00  0.00     0.001 A 
HETATM   16  C8  UNL     1       3.284 -32.848  37.064  1.00  0.00     0.000 A 
HETATM   17  C9  UNL     1       4.113 -32.781  38.155  1.00  0.00     0.001 A 
HETATM   18  C10 UNL     1       4.719 -31.593  38.547  1.00  0.00     0.014 A 
ENDBRANCH   9  13
ENDBRANCH   3   7
BRANCH   5  19
HETATM   19  C11 UNL     1       9.838 -24.963  37.886  1.00  0.00     0.696 A 
HETATM   20  N4  UNL     1      11.046 -24.926  38.414  1.00  0.00    -0.112 N 
HETATM   21  S2  UNL     1      12.334 -24.097  37.687  1.00  0.00     0.278 S 
ATOM     22  H4  UNL     1      11.212 -25.415  39.294  1.00  0.00     0.197 HD
HETATM   23  O2  UNL     1      12.751 -22.932  38.574  1.00  0.00    -0.200 OA
HETATM   24  O3  UNL     1      13.522 -24.973  37.414  1.00  0.00    -0.200 OA
HETATM   25  C12 UNL     1      11.745 -23.360  36.198  1.00  0.00     0.107 A 
HETATM   26  C13 UNL     1      12.591 -22.626  35.410  1.00  0.00     0.028 A 
HETATM   27  C17 UNL     1      10.427 -23.553  35.872  1.00  0.00     0.072 A 
HETATM   28  C14 UNL     1      12.124 -22.058  34.256  1.00  0.00     0.002 A 
HETATM   29  C15 UNL     1      10.804 -22.236  33.905  1.00  0.00     0.002 A 
HETATM   30  C16 UNL     1       9.964 -22.967  34.688  1.00  0.00     0.031 A 
HETATM   31  N5  UNL     1       9.537 -24.315  36.683  1.00  0.00    -0.189 N 
ATOM     32  H5  UNL     1       8.576 -24.397  36.350  1.00  0.00     0.184 HD
ENDBRANCH   5  19
TORSDOF 3
ENDMDL
MODEL 2
REMARK VINA RESULT: -9.371914511      2.631      3.337
REMARK  3 active torsions:
REMARK  status: ('A' for Active; 'I' for Inactive)
REMARK       I    between atoms: C1_2  and  N1_3 
REMARK       I    between atoms: C1_2  and  N3_17 
REMARK    1  A    between atoms: N1_3  and  C2_5 
REMARK    2  A    between atoms: C4_7  and  C5_8 
REMARK    3  A    between atoms: N3_17  and  C11_19 
ROOT
HETATM    1  O1  UNL     1       7.535 -24.330  39.262  1.00  0.00    -0.246 OA
HETATM    2  C1  UNL     1       7.244 -24.160  38.078  1.00  0.00     0.339 C 
HETATM    3  N1  UNL     1       5.836 -24.049  37.715  1.00  0.00    -0.301 N 
ATOM      4  H1  UNL     1       5.293 -23.213  37.929  1.00  0.00     0.171 HD
HETATM    5  N3  UNL     1       8.192 -24.068  37.057  1.00  0.00    -0.140 N 
ATOM      6  H3  UNL     1       7.826 -23.926  36.116  1.00  0.00     0.189 HD
ENDROOT
BRANCH   3   7
HETATM    7  C2  UNL     1       5.301 -25.081  37.098  1.00  0.00     0.096 A 
HETATM    8  C3  UNL     1       4.674 -26.154  37.673  1.00  0.00     0.069 A 
HETATM    9  C4  UNL     1       4.203 -27.095  36.846  1.00  0.00     0.051 A 
HETATM   10  N2  UNL     1       4.382 -26.910  35.533  1.00  0.00    -0.324 N 
HETATM   11  S1  UNL     1       5.200 -25.440  35.440  1.00  0.00     0.004 SA
ATOM     12  H2  UNL     1       4.091 -27.518  34.767  1.00  0.00     0.174 HD
BRANCH   9  13
HETATM   13  C5  UNL     1       3.500 -28.314  37.338  1.00  0.00    -0.009 A 
HETATM   14  C6  UNL     1       4.186 -29.466  37.656  1.00  0.00     0.014 A 
HETATM   15  C7  UNL     1       3.539 -30.609  38.116  1.00  0.00     0.001 A 
HETATM   16  C8  UNL     1       2.174 -30.634  38.276  1.00  0.00     0.000 A 
HETATM   17  C9  UNL     1       1.490 -29.488  37.962  1.00  0.00     0.001 A 
HETATM   18  C10 UNL     1       2.137 -28.347  37.501  1.00  0.00     0.014 A 
ENDBRANCH   9  13
ENDBRANCH   3   7
BRANCH   5  19
HETATM   19  C11 UNL     1       9.603 -24.146  37.173  1.00  0.00     0.696 A 
HETATM   20  N4  UNL     1      10.102 -25.243  36.635  1.00  0.00    -0.112 N 
HETATM   21  S2  UNL     1      11.763 -25.584  36.636  1.00  0.00     0.278 S 
ATOM     22  H4  UNL     1       9.464 -25.911  36.201  1.00  0.00     0.197 HD
HETATM   23  O2  UNL     1      12.026 -26.812  37.496  1.00  0.00    -0.200 OA
HETATM   24  O3  UNL     1      12.323 -25.802  35.261  1.00  0.00    -0.200 OA
HETATM   25  C12 UNL     1      12.597 -24.260  37.448  1.00  0.00     0.107 A 
HETATM   26  C13 UNL     1      13.959 -24.285  37.586  1.00  0.00     0.028 A 
HETATM   27  C17 UNL     1      11.834 -23.224  37.923  1.00  0.00     0.072 A 
HETATM   28  C14 UNL     1      14.597 -23.253  38.218  1.00  0.00     0.002 A 
HETATM   29  C15 UNL     1      13.855 -22.200  38.705  1.00  0.00     0.002 A 
HETATM   30  C16 UNL     1      12.500 -22.175  38.565  1.00  0.00     0.031 A 
HETATM   31  N5  UNL     1      10.416 -23.187  37.784  1.00  0.00    -0.189 N 
ATOM     32  H5  UNL     1       9.943 -22.371  38.174  1.00  0.00     0.184 HD
ENDBRANCH   5  19
TORSDOF 3
ENDMDL
MODEL 3
REMARK VINA RESULT: -9.358866067      2.167      2.847
REMARK  3 active torsions:
REMARK  status: ('A' for Active; 'I' for Inactive)
REMARK       I    between atoms: C1_2  and  N1_3 
REMARK       I    between atoms: C1_2  and  N3_17 
REMARK    1  A    between atoms: N1_3  and  C2_5 
REMARK    2  A    between atoms: C4_7  and  C5_8 
REMARK    3  A    between atoms: N3_17  and  C11_19 
ROOT
HETATM    1  O1  UNL     1      10.527 -26.540  39.126  1.00  0.00    -0.246 OA
HETATM    2  C1  UNL     1       9.483 -25.968  38.811  1.00  0.00     0.339 C 
HETATM    3  N1  UNL     1       8.218 -26.508  39.296  1.00  0.00    -0.301 N 
ATOM      4  H1  UNL     1       7.933 -26.411  40.271  1.00  0.00     0.171 HD
HETATM    5  N3  UNL     1       9.442 -24.824  38.012  1.00  0.00    -0.140 N 
ATOM      6  H3  UNL     1       8.516 -24.442  37.822  1.00  0.00     0.189 HD
ENDROOT
BRANCH   3   7
HETATM    7  C2  UNL     1       7.463 -27.128  38.415  1.00  0.00     0.096 A 
HETATM    8  C3  UNL     1       6.255 -27.731  38.640  1.00  0.00     0.069 A 
HETATM    9  C4  UNL     1       5.658 -28.305  37.588  1.00  0.00     0.051 A 
HETATM   10  N2  UNL     1       6.289 -28.242  36.410  1.00  0.00    -0.324 N 
HETATM   11  S1  UNL     1       7.702 -27.392  36.753  1.00  0.00     0.004 SA
ATOM     12  H2  UNL     1       5.984 -28.621  35.513  1.00  0.00     0.174 HD
BRANCH   9  13
HETATM   13  C5  UNL     1       4.341 -28.996  37.694  1.00  0.00    -0.009 A 
HETATM   14  C6  UNL     1       3.154 -28.325  37.497  1.00  0.00     0.014 A 
HETATM   15  C7  UNL     1       1.920 -28.961  37.594  1.00  0.00     0.001 A 
HETATM   16  C8  UNL     1       1.835 -30.301  37.891  1.00  0.00     0.000 A 
HETATM   17  C9  UNL     1       3.016 -30.971  38.085  1.00  0.00     0.001 A 
HETATM   18  C10 UNL     1       4.248 -30.334  37.989  1.00  0.00     0.014 A 
ENDBRANCH   9  13
ENDBRANCH   3   7
BRANCH   5  19
HETATM   19  C11 UNL     1      10.534 -24.129  37.433  1.00  0.00     0.696 A 
HETATM   20  N4  UNL     1      10.310 -23.769  36.184  1.00  0.00    -0.112 N 
HETATM   21  S2  UNL     1      11.453 -22.925  35.260  1.00  0.00     0.278 S 
ATOM     22  H4  UNL     1       9.414 -24.007  35.758  1.00  0.00     0.197 HD
HETATM   23  O2  UNL     1      11.922 -23.803  34.110  1.00  0.00    -0.200 OA
HETATM   24  O3  UNL     1      10.934 -21.624  34.721  1.00  0.00    -0.200 OA
HETATM   25  C12 UNL     1      12.883 -22.661  36.257  1.00  0.00     0.107 A 
HETATM   26  C13 UNL     1      13.966 -21.995  35.749  1.00  0.00     0.028 A 
HETATM   27  C17 UNL     1      12.859 -23.143  37.541  1.00  0.00     0.072 A 
HETATM   28  C14 UNL     1      15.071 -21.797  36.531  1.00  0.00     0.002 A 
HETATM   29  C15 UNL     1      15.074 -22.271  37.824  1.00  0.00     0.002 A 
HETATM   30  C16 UNL     1      13.996 -22.932  38.329  1.00  0.00     0.031 A 
HETATM   31  N5  UNL     1      11.738 -23.837  38.082  1.00  0.00    -0.189 N 
ATOM     32  H5  UNL     1      11.823 -24.155  39.048  1.00  0.00     0.184 HD
ENDBRANCH   5  19
TORSDOF 3
ENDMDL
MODEL 4
REMARK VINA RESULT: -9.353235136      2.411      8.850
REMARK  3 active torsions:
REMARK  status: ('A' for Active; 'I' for Inactive)
REMARK       I    between atoms: C1_2  and  N1_3 
REMARK       I    between atoms: C1_2  and  N3_17 
REMARK    1  A    between atoms: N1_3  and  C2_5 
REMARK    2  A    between atoms: C4_7  and  C5_8 
REMARK    3  A    between atoms: N3_17  and  C11_19 
ROOT
HETATM    1  O1  UNL     1       9.874 -26.860  39.159  1.00  0.00    -0.246 OA
HETATM    2  C1  UNL     1      10.101 -26.851  37.949  1.00  0.00     0.339 C 
HETATM    3  N1  UNL     1      11.488 -26.796  37.500  1.00  0.00    -0.301 N 
ATOM      4  H1  UNL     1      12.105 -27.603  37.571  1.00  0.00     0.171 HD
HETATM    5  N3  UNL     1       9.099 -26.891  36.977  1.00  0.00    -0.140 N 
ATOM      6  H3  UNL     1       9.414 -26.879  36.007  1.00  0.00     0.189 HD
ENDROOT
BRANCH   3   7
HETATM    7  C2  UNL     1      11.901 -25.652  36.998  1.00  0.00     0.096 A 
HETATM    8  C3  UNL     1      11.446 -25.035  35.864  1.00  0.00     0.069 A 
HETATM    9  C4  UNL     1      12.016 -23.867  35.539  1.00  0.00     0.051 A 
HETATM   10  N2  UNL     1      12.977 -23.403  36.345  1.00  0.00    -0.324 N 
HETATM   11  S1  UNL     1      13.095 -24.575  37.549  1.00  0.00     0.004 SA
ATOM     12  H2  UNL     1      13.514 -22.540  36.252  1.00  0.00     0.174 HD
BRANCH   9  13
HETATM   13  C5  UNL     1      11.616 -23.091  34.330  1.00  0.00    -0.009 A 
HETATM   14  C6  UNL     1      10.462 -22.338  34.303  1.00  0.00     0.014 A 
HETATM   15  C7  UNL     1      10.081 -21.610  33.180  1.00  0.00     0.001 A 
HETATM   16  C8  UNL     1      10.850 -21.611  32.040  1.00  0.00     0.000 A 
HETATM   17  C9  UNL     1      12.000 -22.359  32.067  1.00  0.00     0.001 A 
HETATM   18  C10 UNL     1      12.379 -23.086  33.188  1.00  0.00     0.014 A 
ENDBRANCH   9  13
ENDBRANCH   3   7
BRANCH   5  19
HETATM   19  C11 UNL     1       7.697 -26.947  37.177  1.00  0.00     0.696 A 
HETATM   20  N4  UNL     1       7.170 -25.769  37.449  1.00  0.00    -0.112 N 
HETATM   21  S2  UNL     1       5.512 -25.556  37.731  1.00  0.00     0.278 S 
ATOM     22  H4  UNL     1       7.783 -24.955  37.491  1.00  0.00     0.197 HD
HETATM   23  O2  UNL     1       5.295 -25.124  39.174  1.00  0.00    -0.200 OA
HETATM   24  O3  UNL     1       4.878 -24.558  36.806  1.00  0.00    -0.200 OA
HETATM   25  C12 UNL     1       4.722 -27.126  37.592  1.00  0.00     0.107 A 
HETATM   26  C13 UNL     1       3.370 -27.236  37.775  1.00  0.00     0.028 A 
HETATM   27  C17 UNL     1       5.510 -28.209  37.296  1.00  0.00     0.072 A 
HETATM   28  C14 UNL     1       2.766 -28.459  37.665  1.00  0.00     0.002 A 
HETATM   29  C15 UNL     1       3.534 -29.564  37.369  1.00  0.00     0.002 A 
HETATM   30  C16 UNL     1       4.879 -29.453  37.186  1.00  0.00     0.031 A 
HETATM   31  N5  UNL     1       6.918 -28.107  37.103  1.00  0.00    -0.189 N 
ATOM     32  H5  UNL     1       7.411 -28.973  36.888  1.00  0.00     0.184 HD
ENDBRANCH   5  19
TORSDOF 3
ENDMDL
MODEL 5
REMARK VINA RESULT: -9.336262542      2.062      2.983
REMARK  3 active torsions:
REMARK  status: ('A' for Active; 'I' for Inactive)
REMARK       I    between atoms: C1_2  and  N1_3 
REMARK       I    between atoms: C1_2  and  N3_17 
REMARK    1  A    between atoms: N1_3  and  C2_5 
REMARK    2  A    between atoms: C4_7  and  C5_8 
REMARK    3  A    between atoms: N3_17  and  C11_19 
ROOT
HETATM    1  O1  UNL     1      10.595 -27.430  37.666  1.00  0.00    -0.246 OA
HETATM    2  C1  UNL     1      10.024 -26.737  38.508  1.00  0.00     0.339 C 
HETATM    3  N1  UNL     1       9.054 -27.373  39.392  1.00  0.00    -0.301 N 
ATOM      4  H1  UNL     1       9.344 -27.989  40.151  1.00  0.00     0.171 HD
HETATM    5  N3  UNL     1      10.255 -25.370  38.666  1.00  0.00    -0.140 N 
ATOM      6  H3  UNL     1       9.720 -24.905  39.400  1.00  0.00     0.189 HD
ENDROOT
BRANCH   3   7
HETATM    7  C2  UNL     1       7.785 -27.113  39.162  1.00  0.00     0.096 A 
HETATM    8  C3  UNL     1       6.843 -27.971  38.661  1.00  0.00     0.069 A 
HETATM    9  C4  UNL     1       5.604 -27.488  38.507  1.00  0.00     0.051 A 
HETATM   10  N2  UNL     1       5.390 -26.213  38.853  1.00  0.00    -0.324 N 
HETATM   11  S1  UNL     1       6.895 -25.683  39.391  1.00  0.00     0.004 SA
ATOM     12  H2  UNL     1       4.517 -25.686  38.804  1.00  0.00     0.174 HD
BRANCH   9  13
HETATM   13  C5  UNL     1       4.483 -28.314  37.972  1.00  0.00    -0.009 A 
HETATM   14  C6  UNL     1       4.590 -29.681  37.843  1.00  0.00     0.014 A 
HETATM   15  C7  UNL     1       3.550 -30.460  37.344  1.00  0.00     0.001 A 
HETATM   16  C8  UNL     1       2.360 -29.890  36.958  1.00  0.00     0.000 A 
HETATM   17  C9  UNL     1       2.252 -28.529  37.087  1.00  0.00     0.001 A 
HETATM   18  C10 UNL     1       3.292 -27.752  37.584  1.00  0.00     0.014 A 
ENDBRANCH   9  13
ENDBRANCH   3   7
BRANCH   5  19
HETATM   19  C11 UNL     1      11.144 -24.548  37.928  1.00  0.00     0.696 A 
HETATM   20  N4  UNL     1      10.705 -24.276  36.714  1.00  0.00    -0.112 N 
HETATM   21  S2  UNL     1      11.576 -23.314  35.624  1.00  0.00     0.278 S 
ATOM     22  H4  UNL     1       9.806 -24.659  36.421  1.00  0.00     0.197 HD
HETATM   23  O2  UNL     1      12.014 -24.162  34.439  1.00  0.00    -0.200 OA
HETATM   24  O3  UNL     1      10.801 -22.126  35.134  1.00  0.00    -0.200 OA
HETATM   25  C12 UNL     1      13.070 -22.804  36.409  1.00  0.00     0.107 A 
HETATM   26  C13 UNL     1      13.963 -22.010  35.742  1.00  0.00     0.028 A 
HETATM   27  C17 UNL     1      13.289 -23.231  37.694  1.00  0.00     0.072 A 
HETATM   28  C14 UNL     1      15.120 -21.621  36.361  1.00  0.00     0.002 A 
HETATM   29  C15 UNL     1      15.366 -22.035  37.651  1.00  0.00     0.002 A 
HETATM   30  C16 UNL     1      14.476 -22.824  38.314  1.00  0.00     0.031 A 
HETATM   31  N5  UNL     1      12.367 -24.058  38.399  1.00  0.00    -0.189 N 
ATOM     32  H5  UNL     1      12.626 -24.320  39.350  1.00  0.00     0.184 HD
ENDBRANCH   5  19
TORSDOF 3
ENDMDL
