MODEL 1
REMARK VINA RESULT: -8.037222577      0.000      0.000
REMARK  5 active torsions:
REMARK  status: ('A' for Active; 'I' for Inactive)
REMARK    1  A    between atoms: C4_8  and  C5_9 
REMARK    2  A    between atoms: C9_17  and  C10_18 
REMARK    3  A    between atoms: C11_19  and  C12_20 
REMARK    4  A    between atoms: C17_25  and  C18_26 
REMARK    5  A    between atoms: C19_27  and  C20_28 
ROOT
HETATM    1  C5  UNL     1       8.697 -24.829  36.081  1.00  0.00     0.024 A 
HETATM    2  C6  UNL     1       8.448 -23.618  35.447  1.00  0.00     0.104 A 
HETATM    3  N3  UNL     1       7.135 -23.424  35.260  1.00  0.00    -0.349 N 
ATOM      4  H3  UNL     1       6.703 -22.614  34.817  1.00  0.00     0.166 HD
HETATM    5  C7  UNL     1       6.491 -24.495  35.761  1.00  0.00     0.133 A 
HETATM    6  N4  UNL     1       5.191 -24.852  35.840  1.00  0.00    -0.348 N 
ATOM      7  H4  UNL     1       4.469 -24.231  35.475  1.00  0.00     0.167 HD
HETATM    8  C8  UNL     1       4.844 -26.025  36.400  1.00  0.00     0.128 A 
HETATM    9  C9  UNL     1       5.755 -26.914  36.915  1.00  0.00     0.103 A 
HETATM   10  N8  UNL     1       7.059 -26.520  36.818  1.00  0.00    -0.344 N 
ATOM     11  H8  UNL     1       7.784 -27.139  37.182  1.00  0.00     0.167 HD
HETATM   12  C22 UNL     1       7.422 -25.367  36.270  1.00  0.00     0.090 A 
ENDROOT
BRANCH   9  13
HETATM   13  C10 UNL     1       5.425 -28.182  37.498  1.00  0.00    -0.042 C 
HETATM   14  C11 UNL     1       5.120 -29.266  37.962  1.00  0.00    -0.058 C 
BRANCH  14  15
HETATM   15  C12 UNL     1       4.732 -30.549  38.480  1.00  0.00     0.036 A 
HETATM   16  C13 UNL     1       5.619 -31.314  39.237  1.00  0.00     0.022 A 
HETATM   17  C14 UNL     1       5.263 -32.560  39.702  1.00  0.00     0.002 A 
HETATM   18  C15 UNL     1       4.006 -33.025  39.399  1.00  0.00     0.002 A 
HETATM   19  C16 UNL     1       3.127 -32.270  38.653  1.00  0.00     0.022 A 
HETATM   20  C17 UNL     1       3.471 -31.009  38.175  1.00  0.00     0.036 A 
BRANCH  20  21
HETATM   21  C18 UNL     1       2.510 -30.244  37.429  1.00  0.00    -0.057 C 
HETATM   22  C19 UNL     1       1.690 -29.620  36.774  1.00  0.00    -0.023 C 
BRANCH  22  23
HETATM   23  C20 UNL     1       0.717 -28.923  35.982  1.00  0.00     0.177 A 
HETATM   24  N5  UNL     1      -0.603 -28.705  36.244  1.00  0.00    -0.329 N 
HETATM   25  C21 UNL     1      -1.153 -28.004  35.242  1.00  0.00     0.199 A 
ATOM     26  H5  UNL     1      -1.097 -29.027  37.076  1.00  0.00     0.168 HD
HETATM   27  N6  UNL     1      -0.185 -27.776  34.345  1.00  0.00    -0.294 N 
HETATM   28  N7  UNL     1       0.934 -28.336  34.805  1.00  0.00    -0.277 N 
ATOM     29  H6  UNL     1      -0.286 -27.266  33.467  1.00  0.00     0.187 HD
ATOM     30  H7  UNL     1       1.833 -28.318  34.322  1.00  0.00     0.189 HD
ENDBRANCH  22  23
ENDBRANCH  20  21
ENDBRANCH  14  15
ENDBRANCH   9  13
BRANCH   1  31
HETATM   31  C4  UNL     1       9.961 -25.409  36.488  1.00  0.00     0.018 A 
HETATM   32  C2  UNL     1      10.831 -24.961  37.444  1.00  0.00     0.034 A 
HETATM   33  C1  UNL     1      10.663 -23.717  38.256  1.00  0.00     0.070 C 
HETATM   34  N1  UNL     1      11.879 -25.816  37.537  1.00  0.00    -0.305 N 
HETATM   35  N2  UNL     1      11.652 -26.780  36.646  1.00  0.00    -0.311 N 
ATOM     36  H1  UNL     1      12.680 -25.737  38.163  1.00  0.00     0.186 HD
HETATM   37  C3  UNL     1      10.498 -26.570  35.988  1.00  0.00     0.121 A 
ATOM     38  H2  UNL     1      12.273 -27.573  36.484  1.00  0.00     0.186 HD
ENDBRANCH   1  31
TORSDOF 5
ENDMDL
MODEL 2
REMARK VINA RESULT: -7.958887675      1.513      1.868
REMARK  5 active torsions:
REMARK  status: ('A' for Active; 'I' for Inactive)
REMARK    1  A    between atoms: C4_8  and  C5_9 
REMARK    2  A    between atoms: C9_17  and  C10_18 
REMARK    3  A    between atoms: C11_19  and  C12_20 
REMARK    4  A    between atoms: C17_25  and  C18_26 
REMARK    5  A    between atoms: C19_27  and  C20_28 
ROOT
HETATM    1  C5  UNL     1       8.479 -24.834  37.854  1.00  0.00     0.024 A 
HETATM    2  C6  UNL     1       8.162 -23.482  37.878  1.00  0.00     0.104 A 
HETATM    3  N3  UNL     1       6.855 -23.289  38.105  1.00  0.00    -0.349 N 
ATOM      4  H3  UNL     1       6.380 -22.388  38.167  1.00  0.00     0.166 HD
HETATM    5  C7  UNL     1       6.282 -24.500  38.235  1.00  0.00     0.133 A 
HETATM    6  N4  UNL     1       5.016 -24.918  38.456  1.00  0.00    -0.348 N 
ATOM      7  H4  UNL     1       4.268 -24.235  38.572  1.00  0.00     0.167 HD
HETATM    8  C8  UNL     1       4.740 -26.232  38.523  1.00  0.00     0.128 A 
HETATM    9  C9  UNL     1       5.691 -27.212  38.379  1.00  0.00     0.103 A 
HETATM   10  N8  UNL     1       6.958 -26.754  38.158  1.00  0.00    -0.344 N 
ATOM     11  H8  UNL     1       7.710 -27.434  38.041  1.00  0.00     0.167 HD
HETATM   12  C22 UNL     1       7.252 -25.461  38.088  1.00  0.00     0.090 A 
ENDROOT
BRANCH   9  13
HETATM   13  C10 UNL     1       5.430 -28.622  38.423  1.00  0.00    -0.042 C 
HETATM   14  C11 UNL     1       5.190 -29.813  38.496  1.00  0.00    -0.058 C 
BRANCH  14  15
HETATM   15  C12 UNL     1       4.891 -31.214  38.620  1.00  0.00     0.036 A 
HETATM   16  C13 UNL     1       5.611 -32.024  39.498  1.00  0.00     0.022 A 
HETATM   17  C14 UNL     1       5.351 -33.373  39.591  1.00  0.00     0.002 A 
HETATM   18  C15 UNL     1       4.361 -33.895  38.793  1.00  0.00     0.002 A 
HETATM   19  C16 UNL     1       3.648 -33.096  37.927  1.00  0.00     0.022 A 
HETATM   20  C17 UNL     1       3.897 -31.731  37.820  1.00  0.00     0.036 A 
BRANCH  20  21
HETATM   21  C18 UNL     1       3.106 -30.930  36.927  1.00  0.00    -0.057 C 
HETATM   22  C19 UNL     1       2.412 -30.275  36.164  1.00  0.00    -0.023 C 
BRANCH  22  23
HETATM   23  C20 UNL     1       1.565 -29.537  35.271  1.00  0.00     0.177 A 
HETATM   24  N5  UNL     1       1.127 -29.880  34.027  1.00  0.00    -0.329 N 
HETATM   25  C21 UNL     1       0.349 -28.904  33.536  1.00  0.00     0.199 A 
ATOM     26  H5  UNL     1       1.357 -30.748  33.543  1.00  0.00     0.168 HD
HETATM   27  N6  UNL     1       0.293 -27.942  34.466  1.00  0.00    -0.294 N 
HETATM   28  N7  UNL     1       1.031 -28.338  35.504  1.00  0.00    -0.277 N 
ATOM     29  H6  UNL     1      -0.221 -27.065  34.394  1.00  0.00     0.187 HD
ATOM     30  H7  UNL     1       1.167 -27.798  36.359  1.00  0.00     0.189 HD
ENDBRANCH  22  23
ENDBRANCH  20  21
ENDBRANCH  14  15
ENDBRANCH   9  13
BRANCH   1  31
HETATM   31  C4  UNL     1       9.765 -25.473  37.666  1.00  0.00     0.018 A 
HETATM   32  C2  UNL     1      10.130 -26.380  36.710  1.00  0.00     0.034 A 
HETATM   33  C1  UNL     1       9.228 -26.942  35.658  1.00  0.00     0.070 C 
HETATM   34  N1  UNL     1      11.437 -26.701  36.867  1.00  0.00    -0.305 N 
HETATM   35  N2  UNL     1      11.870 -25.996  37.910  1.00  0.00    -0.311 N 
ATOM     36  H1  UNL     1      11.980 -27.352  36.300  1.00  0.00     0.186 HD
HETATM   37  C3  UNL     1      10.886 -25.237  38.425  1.00  0.00     0.121 A 
ATOM     38  H2  UNL     1      12.823 -26.027  38.272  1.00  0.00     0.186 HD
ENDBRANCH   1  31
TORSDOF 5
ENDMDL
MODEL 3
REMARK VINA RESULT: -7.927576973      3.095      5.628
REMARK  5 active torsions:
REMARK  status: ('A' for Active; 'I' for Inactive)
REMARK    1  A    between atoms: C4_8  and  C5_9 
REMARK    2  A    between atoms: C9_17  and  C10_18 
REMARK    3  A    between atoms: C11_19  and  C12_20 
REMARK    4  A    between atoms: C17_25  and  C18_26 
REMARK    5  A    between atoms: C19_27  and  C20_28 
ROOT
HETATM    1  C5  UNL     1       6.523 -26.531  38.981  1.00  0.00     0.024 A 
HETATM    2  C6  UNL     1       7.629 -27.011  39.673  1.00  0.00     0.104 A 
HETATM    3  N3  UNL     1       7.645 -28.351  39.699  1.00  0.00    -0.349 N 
ATOM      4  H3  UNL     1       8.352 -28.936  40.145  1.00  0.00     0.166 HD
HETATM    5  C7  UNL     1       6.560 -28.785  39.032  1.00  0.00     0.133 A 
HETATM    6  N4  UNL     1       6.059 -30.008  38.753  1.00  0.00    -0.348 N 
ATOM      7  H4  UNL     1       6.552 -30.843  39.069  1.00  0.00     0.167 HD
HETATM    8  C8  UNL     1       4.913 -30.128  38.059  1.00  0.00     0.128 A 
HETATM    9  C9  UNL     1       4.193 -29.054  37.599  1.00  0.00     0.103 A 
HETATM   10  N8  UNL     1       4.728 -27.834  37.899  1.00  0.00    -0.344 N 
ATOM     11  H8  UNL     1       4.239 -26.995  37.585  1.00  0.00     0.167 HD
HETATM   12  C22 UNL     1       5.858 -27.693  38.582  1.00  0.00     0.090 A 
ENDROOT
BRANCH   9  13
HETATM   13  C10 UNL     1       2.958 -29.142  36.876  1.00  0.00    -0.042 C 
HETATM   14  C11 UNL     1       1.911 -29.178  36.255  1.00  0.00    -0.058 C 
BRANCH  14  15
HETATM   15  C12 UNL     1       0.677 -29.178  35.517  1.00  0.00     0.036 A 
HETATM   16  C13 UNL     1       0.618 -29.693  34.222  1.00  0.00     0.022 A 
HETATM   17  C14 UNL     1      -0.554 -29.660  33.500  1.00  0.00     0.002 A 
HETATM   18  C15 UNL     1      -1.662 -29.106  34.094  1.00  0.00     0.002 A 
HETATM   19  C16 UNL     1      -1.605 -28.599  35.374  1.00  0.00     0.022 A 
HETATM   20  C17 UNL     1      -0.430 -28.623  36.119  1.00  0.00     0.036 A 
BRANCH  20  21
HETATM   21  C18 UNL     1      -0.426 -28.113  37.462  1.00  0.00    -0.057 C 
HETATM   22  C19 UNL     1      -0.421 -27.647  38.591  1.00  0.00    -0.023 C 
BRANCH  22  23
HETATM   23  C20 UNL     1      -0.420 -27.060  39.901  1.00  0.00     0.177 A 
HETATM   24  N5  UNL     1      -0.779 -27.621  41.090  1.00  0.00    -0.329 N 
HETATM   25  C21 UNL     1      -0.625 -26.726  42.076  1.00  0.00     0.199 A 
ATOM     26  H5  UNL     1      -1.113 -28.577  41.211  1.00  0.00     0.168 HD
HETATM   27  N6  UNL     1      -0.170 -25.598  41.515  1.00  0.00    -0.294 N 
HETATM   28  N7  UNL     1      -0.053 -25.815  40.205  1.00  0.00    -0.277 N 
ATOM     29  H6  UNL     1       0.047 -24.728  42.003  1.00  0.00     0.187 HD
ATOM     30  H7  UNL     1       0.273 -25.124  39.529  1.00  0.00     0.189 HD
ENDBRANCH  22  23
ENDBRANCH  20  21
ENDBRANCH  14  15
ENDBRANCH   9  13
BRANCH   1  31
HETATM   31  C4  UNL     1       6.140 -25.163  38.699  1.00  0.00     0.018 A 
HETATM   32  C2  UNL     1       6.234 -24.483  37.516  1.00  0.00     0.034 A 
HETATM   33  C1  UNL     1       6.809 -25.025  36.247  1.00  0.00     0.070 C 
HETATM   34  N1  UNL     1       5.732 -23.234  37.672  1.00  0.00    -0.305 N 
HETATM   35  N2  UNL     1       5.333 -23.149  38.940  1.00  0.00    -0.311 N 
ATOM     36  H1  UNL     1       5.671 -22.505  36.962  1.00  0.00     0.186 HD
HETATM   37  C3  UNL     1       5.564 -24.300  39.598  1.00  0.00     0.121 A 
ATOM     38  H2  UNL     1       4.909 -22.321  39.358  1.00  0.00     0.186 HD
ENDBRANCH   1  31
TORSDOF 5
ENDMDL
MODEL 4
REMARK VINA RESULT: -7.852073800      1.411      1.498
REMARK  5 active torsions:
REMARK  status: ('A' for Active; 'I' for Inactive)
REMARK    1  A    between atoms: C4_8  and  C5_9 
REMARK    2  A    between atoms: C9_17  and  C10_18 
REMARK    3  A    between atoms: C11_19  and  C12_20 
REMARK    4  A    between atoms: C17_25  and  C18_26 
REMARK    5  A    between atoms: C19_27  and  C20_28 
ROOT
HETATM    1  C5  UNL     1       8.546 -24.985  37.302  1.00  0.00     0.024 A 
HETATM    2  C6  UNL     1       8.320 -23.619  37.420  1.00  0.00     0.104 A 
HETATM    3  N3  UNL     1       7.092 -23.365  37.893  1.00  0.00    -0.349 N 
ATOM      4  H3  UNL     1       6.692 -22.443  38.066  1.00  0.00     0.166 HD
HETATM    5  C7  UNL     1       6.482 -24.547  38.098  1.00  0.00     0.133 A 
HETATM    6  N4  UNL     1       5.257 -24.905  38.541  1.00  0.00    -0.348 N 
ATOM      7  H4  UNL     1       4.586 -24.187  38.813  1.00  0.00     0.167 HD
HETATM    8  C8  UNL     1       4.920 -26.204  38.625  1.00  0.00     0.128 A 
HETATM    9  C9  UNL     1       5.767 -27.227  38.280  1.00  0.00     0.103 A 
HETATM   10  N8  UNL     1       6.996 -26.830  37.836  1.00  0.00    -0.344 N 
ATOM     11  H8  UNL     1       7.671 -27.545  37.563  1.00  0.00     0.167 HD
HETATM   12  C22 UNL     1       7.349 -25.553  37.746  1.00  0.00     0.090 A 
ENDROOT
BRANCH   9  13
HETATM   13  C10 UNL     1       5.436 -28.622  38.335  1.00  0.00    -0.042 C 
HETATM   14  C11 UNL     1       5.157 -29.804  38.423  1.00  0.00    -0.058 C 
BRANCH  14  15
HETATM   15  C12 UNL     1       4.835 -31.197  38.568  1.00  0.00     0.036 A 
HETATM   16  C13 UNL     1       5.545 -32.007  39.454  1.00  0.00     0.022 A 
HETATM   17  C14 UNL     1       5.263 -33.351  39.566  1.00  0.00     0.002 A 
HETATM   18  C15 UNL     1       4.261 -33.867  38.780  1.00  0.00     0.002 A 
HETATM   19  C16 UNL     1       3.558 -33.067  37.906  1.00  0.00     0.022 A 
HETATM   20  C17 UNL     1       3.829 -31.708  37.779  1.00  0.00     0.036 A 
BRANCH  20  21
HETATM   21  C18 UNL     1       3.048 -30.906  36.878  1.00  0.00    -0.057 C 
HETATM   22  C19 UNL     1       2.362 -30.251  36.109  1.00  0.00    -0.023 C 
BRANCH  22  23
HETATM   23  C20 UNL     1       1.524 -29.511  35.209  1.00  0.00     0.177 A 
HETATM   24  N5  UNL     1       1.123 -29.838  33.948  1.00  0.00    -0.329 N 
HETATM   25  C21 UNL     1       0.339 -28.867  33.457  1.00  0.00     0.199 A 
ATOM     26  H5  UNL     1       1.379 -30.693  33.454  1.00  0.00     0.168 HD
HETATM   27  N6  UNL     1       0.244 -27.924  34.402  1.00  0.00    -0.294 N 
HETATM   28  N7  UNL     1       0.963 -28.326  35.451  1.00  0.00    -0.277 N 
ATOM     29  H6  UNL     1      -0.284 -27.054  34.333  1.00  0.00     0.187 HD
ATOM     30  H7  UNL     1       1.069 -27.799  36.318  1.00  0.00     0.189 HD
ENDBRANCH  22  23
ENDBRANCH  20  21
ENDBRANCH  14  15
ENDBRANCH   9  13
BRANCH   1  31
HETATM   31  C4  UNL     1       9.734 -25.684  36.859  1.00  0.00     0.018 A 
HETATM   32  C2  UNL     1      10.999 -25.619  37.375  1.00  0.00     0.034 A 
HETATM   33  C1  UNL     1      11.427 -24.751  38.515  1.00  0.00     0.070 C 
HETATM   34  N1  UNL     1      11.811 -26.459  36.689  1.00  0.00    -0.305 N 
HETATM   35  N2  UNL     1      11.050 -27.034  35.759  1.00  0.00    -0.311 N 
ATOM     36  H1  UNL     1      12.805 -26.618  36.851  1.00  0.00     0.186 HD
HETATM   37  C3  UNL     1       9.782 -26.591  35.828  1.00  0.00     0.121 A 
ATOM     38  H2  UNL     1      11.385 -27.721  35.083  1.00  0.00     0.186 HD
ENDBRANCH   1  31
TORSDOF 5
ENDMDL
MODEL 5
REMARK VINA RESULT: -7.772762760      1.137      1.570
REMARK  5 active torsions:
REMARK  status: ('A' for Active; 'I' for Inactive)
REMARK    1  A    between atoms: C4_8  and  C5_9 
REMARK    2  A    between atoms: C9_17  and  C10_18 
REMARK    3  A    between atoms: C11_19  and  C12_20 
REMARK    4  A    between atoms: C17_25  and  C18_26 
REMARK    5  A    between atoms: C19_27  and  C20_28 
ROOT
HETATM    1  C5  UNL     1       7.780 -24.994  36.546  1.00  0.00     0.024 A 
HETATM    2  C6  UNL     1       7.431 -23.908  35.753  1.00  0.00     0.104 A 
HETATM    3  N3  UNL     1       6.181 -24.026  35.283  1.00  0.00    -0.349 N 
ATOM      4  H3  UNL     1       5.699 -23.360  34.680  1.00  0.00     0.166 HD
HETATM    5  C7  UNL     1       5.679 -25.184  35.751  1.00  0.00     0.133 A 
HETATM    6  N4  UNL     1       4.497 -25.821  35.600  1.00  0.00    -0.348 N 
ATOM      7  H4  UNL     1       3.762 -25.400  35.033  1.00  0.00     0.167 HD
HETATM    8  C8  UNL     1       4.287 -27.008  36.195  1.00  0.00     0.128 A 
HETATM    9  C9  UNL     1       5.226 -27.639  36.974  1.00  0.00     0.103 A 
HETATM   10  N8  UNL     1       6.408 -26.967  37.105  1.00  0.00    -0.344 N 
ATOM     11  H8  UNL     1       7.147 -27.385  37.671  1.00  0.00     0.167 HD
HETATM   12  C22 UNL     1       6.635 -25.794  36.526  1.00  0.00     0.090 A 
ENDROOT
BRANCH   9  13
HETATM   13  C10 UNL     1       5.046 -28.914  37.606  1.00  0.00    -0.042 C 
HETATM   14  C11 UNL     1       4.855 -29.996  38.131  1.00  0.00    -0.058 C 
BRANCH  14  15
HETATM   15  C12 UNL     1       4.588 -31.269  38.742  1.00  0.00     0.036 A 
HETATM   16  C13 UNL     1       5.620 -32.029  39.292  1.00  0.00     0.022 A 
HETATM   17  C14 UNL     1       5.373 -33.266  39.844  1.00  0.00     0.002 A 
HETATM   18  C15 UNL     1       4.079 -33.728  39.836  1.00  0.00     0.002 A 
HETATM   19  C16 UNL     1       3.058 -32.978  39.294  1.00  0.00     0.022 A 
HETATM   20  C17 UNL     1       3.289 -31.726  38.733  1.00  0.00     0.036 A 
BRANCH  20  21
HETATM   21  C18 UNL     1       2.189 -30.965  38.209  1.00  0.00    -0.057 C 
HETATM   22  C19 UNL     1       1.273 -30.290  37.764  1.00  0.00    -0.023 C 
BRANCH  22  23
HETATM   23  C20 UNL     1       0.225 -29.464  37.236  1.00  0.00     0.177 A 
HETATM   24  N5  UNL     1      -1.122 -29.673  37.255  1.00  0.00    -0.329 N 
HETATM   25  C21 UNL     1      -1.747 -28.651  36.654  1.00  0.00     0.199 A 
ATOM     26  H5  UNL     1      -1.584 -30.485  37.665  1.00  0.00     0.168 HD
HETATM   27  N6  UNL     1      -0.800 -27.793  36.253  1.00  0.00    -0.294 N 
HETATM   28  N7  UNL     1       0.382 -28.297  36.611  1.00  0.00    -0.277 N 
ATOM     29  H6  UNL     1      -0.954 -26.912  35.763  1.00  0.00     0.187 HD
ATOM     30  H7  UNL     1       1.282 -27.852  36.430  1.00  0.00     0.189 HD
ENDBRANCH  22  23
ENDBRANCH  20  21
ENDBRANCH  14  15
ENDBRANCH   9  13
BRANCH   1  31
HETATM   31  C4  UNL     1       9.014 -25.251  37.260  1.00  0.00     0.018 A 
HETATM   32  C2  UNL     1      10.040 -26.083  36.908  1.00  0.00     0.034 A 
HETATM   33  C1  UNL     1      10.074 -26.954  35.693  1.00  0.00     0.070 C 
HETATM   34  N1  UNL     1      11.024 -26.005  37.837  1.00  0.00    -0.305 N 
HETATM   35  N2  UNL     1      10.604 -25.132  38.751  1.00  0.00    -0.311 N 
ATOM     36  H1  UNL     1      11.908 -26.513  37.837  1.00  0.00     0.186 HD
HETATM   37  C3  UNL     1       9.388 -24.651  38.438  1.00  0.00     0.121 A 
ATOM     38  H2  UNL     1      11.135 -24.863  39.579  1.00  0.00     0.186 HD
ENDBRANCH   1  31
TORSDOF 5
ENDMDL
