MODEL 1
REMARK VINA RESULT: -6.723242789      0.000      0.000
REMARK  11 active torsions:
REMARK  status: ('A' for Active; 'I' for Inactive)
REMARK    1  A    between atoms: C2_2  and  C3_3 
REMARK    2  A    between atoms: C3_3  and  C4_4 
REMARK    3  A    between atoms: N2_9  and  C6_10 
REMARK    4  A    between atoms: C6_10  and  C7_11 
REMARK    5  A    between atoms: C7_11  and  O2_12 
REMARK    6  A    between atoms: C9_15  and  C10_16 
REMARK    7  A    between atoms: C10_16  and  N3_17 
REMARK    8  A    between atoms: C15_24  and  O3_25 
REMARK    9  A    between atoms: C16_27  and  C17_28 
REMARK   10  A    between atoms: C17_28  and  C18_29 
REMARK   11  A    between atoms: C21_34  and  O4_35 
ROOT
HETATM    1  C4  UNL     1       5.641   4.756  17.614  1.00  0.00     0.161 C 
HETATM    2  N1  UNL     1       4.866   5.530  18.521  1.00  0.00    -0.331 N 
ATOM      3  H1  UNL     1       3.950   5.138  18.743  1.00  0.00     0.165 HD
HETATM    4  C5  UNL     1       5.151   6.733  19.154  1.00  0.00     0.319 C 
HETATM    5  O1  UNL     1       4.246   7.642  19.114  1.00  0.00    -0.247 OA
HETATM    6  N2  UNL     1       6.337   7.084  19.848  1.00  0.00    -0.327 N 
HETATM    7  C8  UNL     1       7.163   6.110  20.540  1.00  0.00     0.186 C 
HETATM    8  C9  UNL     1       6.616   5.586  21.833  1.00  0.00     0.052 C 
HETATM    9  N4  UNL     1       6.023   4.280  21.826  1.00  0.00    -0.336 N 
ATOM     10  H4  UNL     1       5.939   3.939  22.784  1.00  0.00     0.168 HD
HETATM   11  C15 UNL     1       5.535   3.346  20.968  1.00  0.00     0.163 C 
HETATM   12  C16 UNL     1       6.141   2.363  20.001  1.00  0.00     0.062 C 
HETATM   13  N5  UNL     1       5.531   2.381  18.708  1.00  0.00    -0.339 N 
ATOM     14  H5  UNL     1       5.009   1.530  18.502  1.00  0.00     0.167 HD
HETATM   15  C21 UNL     1       5.493   3.300  17.674  1.00  0.00     0.139 C 
ENDROOT
BRANCH   8  16
HETATM   16  C10 UNL     1       5.868   6.652  22.540  1.00  0.00     0.228 C 
BRANCH  16  17
HETATM   17  N3  UNL     1       6.349   7.368  23.620  1.00  0.00    -0.049 N 
HETATM   18  C11 UNL     1       5.611   8.677  23.630  1.00  0.00     0.278 C 
HETATM   19  C12 UNL     1       7.716   7.669  23.839  1.00  0.00     0.244 C 
HETATM   20  C13 UNL     1       7.579   7.499  25.336  1.00  0.00     0.057 C 
HETATM   21  C14 UNL     1       6.251   6.871  24.966  1.00  0.00     0.244 C 
ENDBRANCH  16  17
ENDBRANCH   8  16
BRANCH   6  22
HETATM   22  C6  UNL     1       6.682   8.520  19.813  1.00  0.00     0.153 C 
BRANCH  22  23
HETATM   23  C7  UNL     1       8.064   8.761  20.365  1.00  0.00     0.184 C 
BRANCH  23  24
HETATM   24  O2  UNL     1       8.335  10.102  20.272  1.00  0.00    -0.399 OA
ATOM     25  H2  UNL     1       9.163  10.268  20.708  1.00  0.00     0.209 HD
ENDBRANCH  23  24
ENDBRANCH  22  23
ENDBRANCH   6  22
BRANCH  11  26
HETATM   26  O3  UNL     1       4.237   3.200  20.917  1.00  0.00    -0.345 OA
ATOM     27  H3  UNL     1       3.882   2.724  20.176  1.00  0.00     0.219 HD
ENDBRANCH  11  26
BRANCH  12  28
HETATM   28  C17 UNL     1       7.591   2.186  20.136  1.00  0.00     0.065 C 
BRANCH  28  29
HETATM   29  C18 UNL     1       8.468   2.295  18.956  1.00  0.00    -0.017 C 
HETATM   30  C19 UNL     1       9.171   3.567  18.692  1.00  0.00     0.010 C 
HETATM   31  C20 UNL     1       9.525   1.172  18.965  1.00  0.00     0.010 C 
ENDBRANCH  28  29
ENDBRANCH  12  28
BRANCH   1  32
HETATM   32  C3  UNL     1       5.282   5.334  16.222  1.00  0.00     0.033 C 
BRANCH  32  33
HETATM   33  C2  UNL     1       6.461   5.886  15.505  1.00  0.00    -0.002 C 
HETATM   34  C1  UNL     1       6.082   7.320  15.100  1.00  0.00     0.005 C 
ENDBRANCH  32  33
ENDBRANCH   1  32
BRANCH  15  35
HETATM   35  O4  UNL     1       5.283   2.781  16.491  1.00  0.00    -0.348 OA
ATOM     36  H4  UNL     1       6.036   2.883  15.920  1.00  0.00     0.219 HD
ENDBRANCH  15  35
TORSDOF 11
ENDMDL
MODEL 2
REMARK VINA RESULT: -6.539323139      0.914      1.165
REMARK  11 active torsions:
REMARK  status: ('A' for Active; 'I' for Inactive)
REMARK    1  A    between atoms: C2_2  and  C3_3 
REMARK    2  A    between atoms: C3_3  and  C4_4 
REMARK    3  A    between atoms: N2_9  and  C6_10 
REMARK    4  A    between atoms: C6_10  and  C7_11 
REMARK    5  A    between atoms: C7_11  and  O2_12 
REMARK    6  A    between atoms: C9_15  and  C10_16 
REMARK    7  A    between atoms: C10_16  and  N3_17 
REMARK    8  A    between atoms: C15_24  and  O3_25 
REMARK    9  A    between atoms: C16_27  and  C17_28 
REMARK   10  A    between atoms: C17_28  and  C18_29 
REMARK   11  A    between atoms: C21_34  and  O4_35 
ROOT
HETATM    1  C4  UNL     1       6.380   5.583  17.374  1.00  0.00     0.161 C 
HETATM    2  N1  UNL     1       5.617   6.441  18.213  1.00  0.00    -0.331 N 
ATOM      3  H1  UNL     1       4.613   6.257  18.212  1.00  0.00     0.165 HD
HETATM    4  C5  UNL     1       6.015   7.489  19.033  1.00  0.00     0.319 C 
HETATM    5  O1  UNL     1       5.352   8.585  18.942  1.00  0.00    -0.247 OA
HETATM    6  N2  UNL     1       7.078   7.496  19.971  1.00  0.00    -0.327 N 
HETATM    7  C8  UNL     1       7.515   6.303  20.676  1.00  0.00     0.186 C 
HETATM    8  C9  UNL     1       6.613   5.820  21.770  1.00  0.00     0.052 C 
HETATM    9  N4  UNL     1       5.770   4.694  21.491  1.00  0.00    -0.336 N 
ATOM     10  H4  UNL     1       5.419   4.306  22.367  1.00  0.00     0.168 HD
HETATM   11  C15 UNL     1       5.283   3.971  20.448  1.00  0.00     0.163 C 
HETATM   12  C16 UNL     1       5.852   2.955  19.494  1.00  0.00     0.062 C 
HETATM   13  N5  UNL     1       5.542   3.220  18.123  1.00  0.00    -0.339 N 
ATOM     14  H5  UNL     1       4.904   2.533  17.720  1.00  0.00     0.167 HD
HETATM   15  C21 UNL     1       5.916   4.201  17.223  1.00  0.00     0.139 C 
ENDROOT
BRANCH   8  16
HETATM   16  C10 UNL     1       5.980   6.971  22.456  1.00  0.00     0.228 C 
BRANCH  16  17
HETATM   17  N3  UNL     1       6.273   7.379  23.743  1.00  0.00    -0.049 N 
HETATM   18  C11 UNL     1       5.504   6.474  24.665  1.00  0.00     0.278 C 
HETATM   19  C12 UNL     1       6.097   8.698  24.228  1.00  0.00     0.244 C 
HETATM   20  C13 UNL     1       7.346   8.620  25.078  1.00  0.00     0.057 C 
HETATM   21  C14 UNL     1       7.618   7.379  24.253  1.00  0.00     0.244 C 
ENDBRANCH  16  17
ENDBRANCH   8  16
BRANCH   6  22
HETATM   22  C6  UNL     1       7.720   8.809  20.180  1.00  0.00     0.153 C 
BRANCH  22  23
HETATM   23  C7  UNL     1       9.035   8.663  20.904  1.00  0.00     0.184 C 
BRANCH  23  24
HETATM   24  O2  UNL     1       9.471   9.914  21.257  1.00  0.00    -0.399 OA
ATOM     25  H2  UNL     1      10.399   9.860  21.455  1.00  0.00     0.209 HD
ENDBRANCH  23  24
ENDBRANCH  22  23
ENDBRANCH   6  22
BRANCH  11  26
HETATM   26  O3  UNL     1       4.023   4.138  20.142  1.00  0.00    -0.345 OA
ATOM     27  H3  UNL     1       3.812   4.841  19.540  1.00  0.00     0.219 HD
ENDBRANCH  11  26
BRANCH  12  28
HETATM   28  C17 UNL     1       7.171   2.434  19.869  1.00  0.00     0.065 C 
BRANCH  28  29
HETATM   29  C18 UNL     1       8.285   2.460  18.905  1.00  0.00    -0.017 C 
HETATM   30  C19 UNL     1       9.170   3.641  18.853  1.00  0.00     0.010 C 
HETATM   31  C20 UNL     1       9.180   1.215  19.080  1.00  0.00     0.010 C 
ENDBRANCH  28  29
ENDBRANCH  12  28
BRANCH   1  32
HETATM   32  C3  UNL     1       6.448   6.339  16.023  1.00  0.00     0.033 C 
BRANCH  32  33
HETATM   33  C2  UNL     1       5.226   7.138  15.746  1.00  0.00    -0.002 C 
HETATM   34  C1  UNL     1       5.707   8.440  15.088  1.00  0.00     0.005 C 
ENDBRANCH  32  33
ENDBRANCH   1  32
BRANCH  15  35
HETATM   35  O4  UNL     1       5.850   3.843  15.966  1.00  0.00    -0.348 OA
ATOM     36  H4  UNL     1       6.177   2.961  15.831  1.00  0.00     0.219 HD
ENDBRANCH  15  35
TORSDOF 11
ENDMDL
MODEL 3
REMARK VINA RESULT: -6.433739458      1.013      1.239
REMARK  11 active torsions:
REMARK  status: ('A' for Active; 'I' for Inactive)
REMARK    1  A    between atoms: C2_2  and  C3_3 
REMARK    2  A    between atoms: C3_3  and  C4_4 
REMARK    3  A    between atoms: N2_9  and  C6_10 
REMARK    4  A    between atoms: C6_10  and  C7_11 
REMARK    5  A    between atoms: C7_11  and  O2_12 
REMARK    6  A    between atoms: C9_15  and  C10_16 
REMARK    7  A    between atoms: C10_16  and  N3_17 
REMARK    8  A    between atoms: C15_24  and  O3_25 
REMARK    9  A    between atoms: C16_27  and  C17_28 
REMARK   10  A    between atoms: C17_28  and  C18_29 
REMARK   11  A    between atoms: C21_34  and  O4_35 
ROOT
HETATM    1  C4  UNL     1       6.053   5.416  17.367  1.00  0.00     0.161 C 
HETATM    2  N1  UNL     1       5.279   5.855  18.476  1.00  0.00    -0.331 N 
ATOM      3  H1  UNL     1       4.532   5.218  18.755  1.00  0.00     0.165 HD
HETATM    4  C5  UNL     1       5.372   7.011  19.241  1.00  0.00     0.319 C 
HETATM    5  O1  UNL     1       4.284   7.654  19.460  1.00  0.00    -0.247 OA
HETATM    6  N2  UNL     1       6.540   7.573  19.816  1.00  0.00    -0.327 N 
HETATM    7  C8  UNL     1       7.676   6.772  20.237  1.00  0.00     0.186 C 
HETATM    8  C9  UNL     1       7.492   5.981  21.496  1.00  0.00     0.052 C 
HETATM    9  N4  UNL     1       7.233   4.576  21.369  1.00  0.00    -0.336 N 
ATOM     10  H4  UNL     1       7.393   4.118  22.267  1.00  0.00     0.168 HD
HETATM   11  C15 UNL     1       6.844   3.652  20.452  1.00  0.00     0.163 C 
HETATM   12  C16 UNL     1       7.496   2.975  19.275  1.00  0.00     0.062 C 
HETATM   13  N5  UNL     1       6.693   2.984  18.092  1.00  0.00    -0.339 N 
ATOM     14  H5  UNL     1       6.361   2.056  17.830  1.00  0.00     0.167 HD
HETATM   15  C21 UNL     1       6.267   3.973  17.224  1.00  0.00     0.139 C 
ENDROOT
BRANCH   8  16
HETATM   16  C10 UNL     1       6.641   6.731  22.450  1.00  0.00     0.228 C 
BRANCH  16  17
HETATM   17  N3  UNL     1       7.119   7.530  23.471  1.00  0.00    -0.049 N 
HETATM   18  C11 UNL     1       6.142   8.662  23.623  1.00  0.00     0.278 C 
HETATM   19  C12 UNL     1       8.414   8.102  23.504  1.00  0.00     0.244 C 
HETATM   20  C13 UNL     1       8.531   7.909  25.000  1.00  0.00     0.057 C 
HETATM   21  C14 UNL     1       7.317   7.024  24.803  1.00  0.00     0.244 C 
ENDBRANCH  16  17
ENDBRANCH   8  16
BRANCH   6  22
HETATM   22  C6  UNL     1       6.524   9.044  19.955  1.00  0.00     0.153 C 
BRANCH  22  23
HETATM   23  C7  UNL     1       7.921   9.592  20.093  1.00  0.00     0.184 C 
BRANCH  23  24
HETATM   24  O2  UNL     1       7.914  10.896  19.667  1.00  0.00    -0.399 OA
ATOM     25  H2  UNL     1       8.807  11.144  19.457  1.00  0.00     0.209 HD
ENDBRANCH  23  24
ENDBRANCH  22  23
ENDBRANCH   6  22
BRANCH  11  26
HETATM   26  O3  UNL     1       5.628   3.184  20.552  1.00  0.00    -0.345 OA
ATOM     27  H3  UNL     1       5.245   3.153  21.420  1.00  0.00     0.219 HD
ENDBRANCH  11  26
BRANCH  12  28
HETATM   28  C17 UNL     1       8.949   3.164  19.187  1.00  0.00     0.065 C 
BRANCH  28  29
HETATM   29  C18 UNL     1       9.777   2.223  18.412  1.00  0.00    -0.017 C 
HETATM   30  C19 UNL     1       9.803   0.797  18.794  1.00  0.00     0.010 C 
HETATM   31  C20 UNL     1       9.419   2.297  16.914  1.00  0.00     0.010 C 
ENDBRANCH  28  29
ENDBRANCH  12  28
BRANCH   1  32
HETATM   32  C3  UNL     1       5.341   6.036  16.140  1.00  0.00     0.033 C 
BRANCH  32  33
HETATM   33  C2  UNL     1       6.223   6.941  15.357  1.00  0.00    -0.002 C 
HETATM   34  C1  UNL     1       5.720   8.368  15.627  1.00  0.00     0.005 C 
ENDBRANCH  32  33
ENDBRANCH   1  32
BRANCH  15  35
HETATM   35  O4  UNL     1       5.992   3.556  16.014  1.00  0.00    -0.348 OA
ATOM     36  H4  UNL     1       6.200   2.636  15.900  1.00  0.00     0.219 HD
ENDBRANCH  15  35
TORSDOF 11
ENDMDL
MODEL 4
REMARK VINA RESULT: -6.236984298      1.164      1.451
REMARK  11 active torsions:
REMARK  status: ('A' for Active; 'I' for Inactive)
REMARK    1  A    between atoms: C2_2  and  C3_3 
REMARK    2  A    between atoms: C3_3  and  C4_4 
REMARK    3  A    between atoms: N2_9  and  C6_10 
REMARK    4  A    between atoms: C6_10  and  C7_11 
REMARK    5  A    between atoms: C7_11  and  O2_12 
REMARK    6  A    between atoms: C9_15  and  C10_16 
REMARK    7  A    between atoms: C10_16  and  N3_17 
REMARK    8  A    between atoms: C15_24  and  O3_25 
REMARK    9  A    between atoms: C16_27  and  C17_28 
REMARK   10  A    between atoms: C17_28  and  C18_29 
REMARK   11  A    between atoms: C21_34  and  O4_35 
ROOT
HETATM    1  C4  UNL     1       5.201   4.690  18.185  1.00  0.00     0.161 C 
HETATM    2  N1  UNL     1       4.662   5.096  19.437  1.00  0.00    -0.331 N 
ATOM      3  H1  UNL     1       4.166   4.364  19.946  1.00  0.00     0.165 HD
HETATM    4  C5  UNL     1       4.700   6.327  20.079  1.00  0.00     0.319 C 
HETATM    5  O1  UNL     1       3.593   6.772  20.552  1.00  0.00    -0.247 OA
HETATM    6  N2  UNL     1       5.828   7.163  20.279  1.00  0.00    -0.327 N 
HETATM    7  C8  UNL     1       7.179   6.645  20.416  1.00  0.00     0.186 C 
HETATM    8  C9  UNL     1       7.497   5.980  21.721  1.00  0.00     0.052 C 
HETATM    9  N4  UNL     1       7.520   4.546  21.751  1.00  0.00    -0.336 N 
ATOM     10  H4  UNL     1       7.999   4.231  22.595  1.00  0.00     0.168 HD
HETATM   11  C15 UNL     1       7.116   3.468  21.030  1.00  0.00     0.163 C 
HETATM   12  C16 UNL     1       7.572   2.800  19.760  1.00  0.00     0.062 C 
HETATM   13  N5  UNL     1       6.510   2.522  18.844  1.00  0.00    -0.339 N 
ATOM     14  H5  UNL     1       6.327   1.524  18.737  1.00  0.00     0.167 HD
HETATM   15  C21 UNL     1       5.674   3.308  18.071  1.00  0.00     0.139 C 
ENDROOT
BRANCH   8  16
HETATM   16  C10 UNL     1       6.780   6.657  22.828  1.00  0.00     0.228 C 
BRANCH  16  17
HETATM   17  N3  UNL     1       7.336   7.611  23.659  1.00  0.00    -0.049 N 
HETATM   18  C11 UNL     1       6.279   8.657  23.878  1.00  0.00     0.278 C 
HETATM   19  C12 UNL     1       8.543   8.301  23.394  1.00  0.00     0.244 C 
HETATM   20  C13 UNL     1       8.941   8.295  24.854  1.00  0.00     0.057 C 
HETATM   21  C14 UNL     1       7.820   7.284  24.973  1.00  0.00     0.244 C 
ENDBRANCH  16  17
ENDBRANCH   8  16
BRANCH   6  22
HETATM   22  C6  UNL     1       5.534   8.609  20.332  1.00  0.00     0.153 C 
BRANCH  22  23
HETATM   23  C7  UNL     1       6.474   9.388  19.446  1.00  0.00     0.184 C 
BRANCH  23  24
HETATM   24  O2  UNL     1       7.482   9.891  20.228  1.00  0.00    -0.399 OA
ATOM     25  H2  UNL     1       7.330   9.613  21.124  1.00  0.00     0.209 HD
ENDBRANCH  23  24
ENDBRANCH  22  23
ENDBRANCH   6  22
BRANCH  11  26
HETATM   26  O3  UNL     1       6.095   2.791  21.486  1.00  0.00    -0.345 OA
ATOM     27  H3  UNL     1       5.983   1.904  21.166  1.00  0.00     0.219 HD
ENDBRANCH  11  26
BRANCH  12  28
HETATM   28  C17 UNL     1       8.879   3.250  19.266  1.00  0.00     0.065 C 
BRANCH  28  29
HETATM   29  C18 UNL     1       9.696   2.372  18.409  1.00  0.00    -0.017 C 
HETATM   30  C19 UNL     1       9.834   0.944  18.761  1.00  0.00     0.010 C 
HETATM   31  C20 UNL     1       9.214   2.447  16.946  1.00  0.00     0.010 C 
ENDBRANCH  28  29
ENDBRANCH  12  28
BRANCH   1  32
HETATM   32  C3  UNL     1       4.082   5.022  17.167  1.00  0.00     0.033 C 
BRANCH  32  33
HETATM   33  C2  UNL     1       4.549   5.898  16.060  1.00  0.00    -0.002 C 
HETATM   34  C1  UNL     1       5.814   6.602  16.576  1.00  0.00     0.005 C 
ENDBRANCH  32  33
ENDBRANCH   1  32
BRANCH  15  35
HETATM   35  O4  UNL     1       5.193   2.713  17.009  1.00  0.00    -0.348 OA
ATOM     36  H4  UNL     1       5.563   3.065  16.208  1.00  0.00     0.219 HD
ENDBRANCH  15  35
TORSDOF 11
ENDMDL
MODEL 5
REMARK VINA RESULT: -6.235586847      1.150      1.550
REMARK  11 active torsions:
REMARK  status: ('A' for Active; 'I' for Inactive)
REMARK    1  A    between atoms: C2_2  and  C3_3 
REMARK    2  A    between atoms: C3_3  and  C4_4 
REMARK    3  A    between atoms: N2_9  and  C6_10 
REMARK    4  A    between atoms: C6_10  and  C7_11 
REMARK    5  A    between atoms: C7_11  and  O2_12 
REMARK    6  A    between atoms: C9_15  and  C10_16 
REMARK    7  A    between atoms: C10_16  and  N3_17 
REMARK    8  A    between atoms: C15_24  and  O3_25 
REMARK    9  A    between atoms: C16_27  and  C17_28 
REMARK   10  A    between atoms: C17_28  and  C18_29 
REMARK   11  A    between atoms: C21_34  and  O4_35 
ROOT
HETATM    1  C4  UNL     1       5.907   5.724  17.003  1.00  0.00     0.161 C 
HETATM    2  N1  UNL     1       5.068   6.231  18.033  1.00  0.00    -0.331 N 
ATOM      3  H1  UNL     1       4.297   5.617  18.296  1.00  0.00     0.165 HD
HETATM    4  C5  UNL     1       5.127   7.425  18.739  1.00  0.00     0.319 C 
HETATM    5  O1  UNL     1       4.035   8.090  18.851  1.00  0.00    -0.247 OA
HETATM    6  N2  UNL     1       6.262   8.007  19.359  1.00  0.00    -0.327 N 
HETATM    7  C8  UNL     1       7.358   7.219  19.895  1.00  0.00     0.186 C 
HETATM    8  C9  UNL     1       7.081   6.500  21.181  1.00  0.00     0.052 C 
HETATM    9  N4  UNL     1       6.812   5.093  21.113  1.00  0.00    -0.336 N 
ATOM     10  H4  UNL     1       6.907   4.683  22.043  1.00  0.00     0.168 HD
HETATM   11  C15 UNL     1       6.472   4.124  20.223  1.00  0.00     0.163 C 
HETATM   12  C16 UNL     1       7.190   3.377  19.130  1.00  0.00     0.062 C 
HETATM   13  N5  UNL     1       6.466   3.329  17.898  1.00  0.00    -0.339 N 
ATOM     14  H5  UNL     1       6.139   2.391  17.665  1.00  0.00     0.167 HD
HETATM   15  C21 UNL     1       6.111   4.274  16.952  1.00  0.00     0.139 C 
ENDROOT
BRANCH   8  16
HETATM   16  C10 UNL     1       6.180   7.309  22.035  1.00  0.00     0.228 C 
BRANCH  16  17
HETATM   17  N3  UNL     1       6.345   7.499  23.394  1.00  0.00    -0.049 N 
HETATM   18  C11 UNL     1       7.826   7.498  23.651  1.00  0.00     0.278 C 
HETATM   19  C12 UNL     1       5.757   6.688  24.395  1.00  0.00     0.244 C 
HETATM   20  C13 UNL     1       5.527   7.872  25.309  1.00  0.00     0.057 C 
HETATM   21  C14 UNL     1       5.848   8.672  24.063  1.00  0.00     0.244 C 
ENDBRANCH  16  17
ENDBRANCH   8  16
BRANCH   6  22
HETATM   22  C6  UNL     1       6.256   9.483  19.416  1.00  0.00     0.153 C 
BRANCH  22  23
HETATM   23  C7  UNL     1       7.658  10.029  19.520  1.00  0.00     0.184 C 
BRANCH  23  24
HETATM   24  O2  UNL     1       7.685  11.258  18.913  1.00  0.00    -0.399 OA
ATOM     25  H2  UNL     1       7.662  11.124  17.972  1.00  0.00     0.209 HD
ENDBRANCH  23  24
ENDBRANCH  22  23
ENDBRANCH   6  22
BRANCH  11  26
HETATM   26  O3  UNL     1       5.246   3.673  20.268  1.00  0.00    -0.345 OA
ATOM     27  H3  UNL     1       4.641   4.118  20.850  1.00  0.00     0.219 HD
ENDBRANCH  11  26
BRANCH  12  28
HETATM   28  C17 UNL     1       8.648   3.547  19.128  1.00  0.00     0.065 C 
BRANCH  28  29
HETATM   29  C18 UNL     1       9.519   2.508  18.551  1.00  0.00    -0.017 C 
HETATM   30  C19 UNL     1       9.396   1.115  19.026  1.00  0.00     0.010 C 
HETATM   31  C20 UNL     1       9.389   2.488  17.014  1.00  0.00     0.010 C 
ENDBRANCH  28  29
ENDBRANCH  12  28
BRANCH   1  32
HETATM   32  C3  UNL     1       5.285   6.283  15.699  1.00  0.00     0.033 C 
BRANCH  32  33
HETATM   33  C2  UNL     1       6.228   7.136  14.928  1.00  0.00    -0.002 C 
HETATM   34  C1  UNL     1       5.890   8.589  15.298  1.00  0.00     0.005 C 
ENDBRANCH  32  33
ENDBRANCH   1  32
BRANCH  15  35
HETATM   35  O4  UNL     1       5.910   3.794  15.750  1.00  0.00    -0.348 OA
ATOM     36  H4  UNL     1       6.374   2.976  15.613  1.00  0.00     0.219 HD
ENDBRANCH  15  35
TORSDOF 11
ENDMDL
