MODEL 1
REMARK VINA RESULT: -9.377427063      0.000      0.000
REMARK  9 active torsions:
REMARK  status: ('A' for Active; 'I' for Inactive)
REMARK    1  A    between atoms: C2_2  and  C4_4 
REMARK    2  A    between atoms: C4_4  and  N1_5 
REMARK    3  A    between atoms: C4_4  and  N3_13 
REMARK    4  A    between atoms: C5_7  and  O1_8 
REMARK    5  A    between atoms: C5_7  and  N2_10 
REMARK       I    between atoms: N3_13  and  C8_15 
REMARK    6  A    between atoms: C8_15  and  C9_17 
REMARK    7  A    between atoms: C9_17  and  N4_18 
REMARK    8  A    between atoms: C9_17  and  C21_34 
REMARK       I    between atoms: N4_18  and  C10_20 
REMARK       I    between atoms: C10_20  and  N5_22 
REMARK    9  A    between atoms: N5_22  and  C11_24 
ROOT
HETATM    1  C9  UNL     1       8.047   8.407  20.383  1.00  0.00     0.085 C 
ENDROOT
BRANCH   1   2
HETATM    2  C8  UNL     1       8.078   8.908  21.792  1.00  0.00     0.269 C 
HETATM    3  N3  UNL     1       7.472   8.242  22.849  1.00  0.00    -0.311 N 
ATOM      4  H3  UNL     1       7.053   7.345  22.599  1.00  0.00     0.170 HD
HETATM    5  O2  UNL     1       8.713  10.001  21.942  1.00  0.00    -0.266 OA
BRANCH   3   6
HETATM    6  C4  UNL     1       7.332   8.596  24.230  1.00  0.00     0.090 C 
BRANCH   6   7
HETATM    7  C2  UNL     1       6.164   8.228  25.081  1.00  0.00     0.045 C 
HETATM    8  C1  UNL     1       5.737   6.782  24.798  1.00  0.00     0.017 C 
HETATM    9  C3  UNL     1       5.015   9.156  25.129  1.00  0.00     0.017 C 
ENDBRANCH   6   7
BRANCH   6  10
HETATM   10  N1  UNL     1       8.285   9.157  24.767  1.00  0.00    -0.311 N 
HETATM   11  C5  UNL     1       9.544   9.048  25.157  1.00  0.00     0.219 C 
ATOM     12  H1  UNL     1       7.976  10.096  25.017  1.00  0.00     0.170 HD
BRANCH  11  13
HETATM   13  O1  UNL     1      10.394   9.907  24.620  1.00  0.00    -0.332 OA
ATOM     14  H1  UNL     1      10.935   9.572  23.915  1.00  0.00     0.220 HD
ENDBRANCH  11  13
BRANCH  11  15
HETATM   15  N2  UNL     1      10.196   8.172  26.064  1.00  0.00    -0.356 N 
HETATM   16  C6  UNL     1       9.571   7.095  26.796  1.00  0.00     0.152 C 
HETATM   17  C7  UNL     1      11.634   8.375  26.305  1.00  0.00     0.152 C 
ENDBRANCH  11  15
ENDBRANCH   6  10
ENDBRANCH   3   6
ENDBRANCH   1   2
BRANCH   1  18
HETATM   18  N4  UNL     1       8.218   7.046  20.165  1.00  0.00    -0.307 N 
HETATM   19  C10 UNL     1       7.694   6.160  19.208  1.00  0.00     0.321 C 
HETATM   20  O3  UNL     1       6.963   6.445  18.237  1.00  0.00    -0.247 OA
HETATM   21  N5  UNL     1       7.997   4.756  19.322  1.00  0.00    -0.338 N 
ATOM     22  H5  UNL     1       8.543   4.454  20.130  1.00  0.00     0.164 HD
ATOM     23  H4  UNL     1       8.849   6.601  20.832  1.00  0.00     0.170 HD
BRANCH  21  24
HETATM   24  C11 UNL     1       7.596   3.779  18.406  1.00  0.00     0.094 C 
HETATM   25  C12 UNL     1       7.049   2.489  19.002  1.00  0.00     0.009 C 
HETATM   26  C13 UNL     1       6.471   1.690  17.829  1.00  0.00     0.011 C 
HETATM   27  C17 UNL     1       8.067   1.619  19.638  1.00  0.00     0.011 C 
HETATM   28  C14 UNL     1       7.542   1.333  16.844  1.00  0.00    -0.013 C 
HETATM   29  C15 UNL     1       8.661   0.511  17.481  1.00  0.00     0.009 C 
HETATM   30  C20 UNL     1       8.171   2.618  16.326  1.00  0.00     0.011 C 
HETATM   31  C16 UNL     1       9.182   1.297  18.656  1.00  0.00    -0.013 C 
HETATM   32  C18 UNL     1       9.772   2.592  18.174  1.00  0.00     0.011 C 
HETATM   33  C19 UNL     1       8.720   3.420  17.458  1.00  0.00     0.009 C 
ENDBRANCH  21  24
ENDBRANCH   1  18
BRANCH   1  34
HETATM   34  C21 UNL     1       7.027   9.091  19.514  1.00  0.00     0.033 C 
HETATM   35  C22 UNL     1       7.635  10.306  18.824  1.00  0.00     0.016 C 
HETATM   36  C23 UNL     1       5.778   9.521  20.185  1.00  0.00     0.016 C 
ENDBRANCH   1  34
TORSDOF 9
ENDMDL
MODEL 2
REMARK VINA RESULT: -9.264873121      0.952      1.509
REMARK  9 active torsions:
REMARK  status: ('A' for Active; 'I' for Inactive)
REMARK    1  A    between atoms: C2_2  and  C4_4 
REMARK    2  A    between atoms: C4_4  and  N1_5 
REMARK    3  A    between atoms: C4_4  and  N3_13 
REMARK    4  A    between atoms: C5_7  and  O1_8 
REMARK    5  A    between atoms: C5_7  and  N2_10 
REMARK       I    between atoms: N3_13  and  C8_15 
REMARK    6  A    between atoms: C8_15  and  C9_17 
REMARK    7  A    between atoms: C9_17  and  N4_18 
REMARK    8  A    between atoms: C9_17  and  C21_34 
REMARK       I    between atoms: N4_18  and  C10_20 
REMARK       I    between atoms: C10_20  and  N5_22 
REMARK    9  A    between atoms: N5_22  and  C11_24 
ROOT
HETATM    1  C9  UNL     1       7.577   9.222  19.822  1.00  0.00     0.085 C 
ENDROOT
BRANCH   1   2
HETATM    2  C8  UNL     1       8.035   9.244  21.246  1.00  0.00     0.269 C 
HETATM    3  N3  UNL     1       7.232   8.852  22.309  1.00  0.00    -0.311 N 
ATOM      4  H3  UNL     1       6.320   8.487  22.037  1.00  0.00     0.170 HD
HETATM    5  O2  UNL     1       9.232   9.652  21.401  1.00  0.00    -0.266 OA
BRANCH   3   6
HETATM    6  C4  UNL     1       7.465   8.873  23.723  1.00  0.00     0.090 C 
BRANCH   6   7
HETATM    7  C2  UNL     1       6.515   8.340  24.742  1.00  0.00     0.045 C 
HETATM    8  C1  UNL     1       6.236   6.854  24.479  1.00  0.00     0.017 C 
HETATM    9  C3  UNL     1       5.281   9.106  25.015  1.00  0.00     0.017 C 
ENDBRANCH   6   7
BRANCH   6  10
HETATM   10  N1  UNL     1       8.562   9.271  24.109  1.00  0.00    -0.311 N 
HETATM   11  C5  UNL     1       9.751   8.927  24.577  1.00  0.00     0.219 C 
ATOM     12  H1  UNL     1       8.552  10.288  24.038  1.00  0.00     0.170 HD
BRANCH  11  13
HETATM   13  O1  UNL     1      10.790   9.290  23.845  1.00  0.00    -0.332 OA
ATOM     14  H1  UNL     1      11.614   9.382  24.308  1.00  0.00     0.220 HD
ENDBRANCH  11  13
BRANCH  11  15
HETATM   15  N2  UNL     1      10.157   8.227  25.743  1.00  0.00    -0.356 N 
HETATM   16  C6  UNL     1       9.374   7.244  26.455  1.00  0.00     0.152 C 
HETATM   17  C7  UNL     1      11.484   8.531  26.301  1.00  0.00     0.152 C 
ENDBRANCH  11  15
ENDBRANCH   6  10
ENDBRANCH   3   6
ENDBRANCH   1   2
BRANCH   1  18
HETATM   18  N4  UNL     1       7.643   8.021  19.129  1.00  0.00    -0.307 N 
HETATM   19  C10 UNL     1       7.356   6.693  19.493  1.00  0.00     0.321 C 
HETATM   20  O3  UNL     1       6.879   6.294  20.576  1.00  0.00    -0.247 OA
HETATM   21  N5  UNL     1       7.633   5.640  18.550  1.00  0.00    -0.338 N 
ATOM     22  H5  UNL     1       8.078   5.899  17.669  1.00  0.00     0.164 HD
ATOM     23  H4  UNL     1       7.963   8.121  18.166  1.00  0.00     0.170 HD
BRANCH  21  24
HETATM   24  C11 UNL     1       7.337   4.290  18.757  1.00  0.00     0.094 C 
HETATM   25  C12 UNL     1       8.473   3.432  19.297  1.00  0.00     0.009 C 
HETATM   26  C13 UNL     1       7.851   2.077  19.654  1.00  0.00     0.011 C 
HETATM   27  C17 UNL     1       9.555   3.150  18.323  1.00  0.00     0.011 C 
HETATM   28  C14 UNL     1       7.295   1.405  18.436  1.00  0.00    -0.013 C 
HETATM   29  C15 UNL     1       8.362   1.177  17.366  1.00  0.00     0.009 C 
HETATM   30  C20 UNL     1       6.235   2.308  17.825  1.00  0.00     0.011 C 
HETATM   31  C16 UNL     1       8.988   2.514  17.064  1.00  0.00    -0.013 C 
HETATM   32  C18 UNL     1       7.948   3.440  16.498  1.00  0.00     0.011 C 
HETATM   33  C19 UNL     1       6.818   3.640  17.491  1.00  0.00     0.009 C 
ENDBRANCH  21  24
ENDBRANCH   1  18
BRANCH   1  34
HETATM   34  C21 UNL     1       6.363  10.070  19.560  1.00  0.00     0.033 C 
HETATM   35  C22 UNL     1       5.089   9.244  19.689  1.00  0.00     0.016 C 
HETATM   36  C23 UNL     1       6.323  10.773  18.256  1.00  0.00     0.016 C 
ENDBRANCH   1  34
TORSDOF 9
ENDMDL
MODEL 3
REMARK VINA RESULT: -9.026921930      1.560      3.186
REMARK  9 active torsions:
REMARK  status: ('A' for Active; 'I' for Inactive)
REMARK    1  A    between atoms: C2_2  and  C4_4 
REMARK    2  A    between atoms: C4_4  and  N1_5 
REMARK    3  A    between atoms: C4_4  and  N3_13 
REMARK    4  A    between atoms: C5_7  and  O1_8 
REMARK    5  A    between atoms: C5_7  and  N2_10 
REMARK       I    between atoms: N3_13  and  C8_15 
REMARK    6  A    between atoms: C8_15  and  C9_17 
REMARK    7  A    between atoms: C9_17  and  N4_18 
REMARK    8  A    between atoms: C9_17  and  C21_34 
REMARK       I    between atoms: N4_18  and  C10_20 
REMARK       I    between atoms: C10_20  and  N5_22 
REMARK    9  A    between atoms: N5_22  and  C11_24 
ROOT
HETATM    1  C9  UNL     1       5.654   6.534  22.748  1.00  0.00     0.085 C 
ENDROOT
BRANCH   1   2
HETATM    2  C8  UNL     1       6.435   7.793  22.545  1.00  0.00     0.269 C 
HETATM    3  N3  UNL     1       7.823   7.831  22.527  1.00  0.00    -0.311 N 
ATOM      4  H3  UNL     1       8.272   6.918  22.601  1.00  0.00     0.170 HD
HETATM    5  O2  UNL     1       5.716   8.832  22.387  1.00  0.00    -0.266 OA
BRANCH   3   6
HETATM    6  C4  UNL     1       8.734   8.932  22.422  1.00  0.00     0.090 C 
BRANCH   6   7
HETATM    7  C2  UNL     1       9.168   9.549  21.135  1.00  0.00     0.045 C 
HETATM    8  C1  UNL     1       8.448  10.887  20.921  1.00  0.00     0.017 C 
HETATM    9  C3  UNL     1       9.166   8.706  19.921  1.00  0.00     0.017 C 
ENDBRANCH   6   7
BRANCH   6  10
HETATM   10  N1  UNL     1       9.105   9.459  23.469  1.00  0.00    -0.311 N 
HETATM   11  C5  UNL     1       9.907   9.370  24.518  1.00  0.00     0.219 C 
ATOM     12  H1  UNL     1       8.574  10.324  23.572  1.00  0.00     0.170 HD
BRANCH  11  13
HETATM   13  O1  UNL     1      10.772  10.359  24.672  1.00  0.00    -0.332 OA
ATOM     14  H1  UNL     1      10.400  11.226  24.773  1.00  0.00     0.220 HD
ENDBRANCH  11  13
BRANCH  11  15
HETATM   15  N2  UNL     1      10.035   8.403  25.548  1.00  0.00    -0.356 N 
HETATM   16  C6  UNL     1       9.036   7.431  25.924  1.00  0.00     0.152 C 
HETATM   17  C7  UNL     1      11.285   8.386  26.326  1.00  0.00     0.152 C 
ENDBRANCH  11  15
ENDBRANCH   6  10
ENDBRANCH   3   6
ENDBRANCH   1   2
BRANCH   1  18
HETATM   18  N4  UNL     1       6.063   5.390  22.076  1.00  0.00    -0.307 N 
HETATM   19  C10 UNL     1       6.093   5.045  20.713  1.00  0.00     0.321 C 
HETATM   20  O3  UNL     1       5.801   5.775  19.743  1.00  0.00    -0.247 OA
HETATM   21  N5  UNL     1       6.490   3.711  20.344  1.00  0.00    -0.338 N 
ATOM     22  H5  UNL     1       6.686   3.050  21.097  1.00  0.00     0.164 HD
ATOM     23  H4  UNL     1       6.411   4.656  22.691  1.00  0.00     0.170 HD
BRANCH  21  24
HETATM   24  C11 UNL     1       6.626   3.256  19.029  1.00  0.00     0.094 C 
HETATM   25  C12 UNL     1       6.999   1.789  18.864  1.00  0.00     0.009 C 
HETATM   26  C13 UNL     1       6.860   1.481  17.369  1.00  0.00     0.011 C 
HETATM   27  C17 UNL     1       8.397   1.459  19.229  1.00  0.00     0.011 C 
HETATM   28  C14 UNL     1       7.818   2.301  16.560  1.00  0.00    -0.013 C 
HETATM   29  C15 UNL     1       9.270   2.059  16.969  1.00  0.00     0.009 C 
HETATM   30  C20 UNL     1       7.524   3.772  16.807  1.00  0.00     0.011 C 
HETATM   31  C16 UNL     1       9.372   2.326  18.448  1.00  0.00    -0.013 C 
HETATM   32  C18 UNL     1       9.043   3.766  18.722  1.00  0.00     0.011 C 
HETATM   33  C19 UNL     1       7.633   4.087  18.261  1.00  0.00     0.009 C 
ENDBRANCH  21  24
ENDBRANCH   1  18
BRANCH   1  34
HETATM   34  C21 UNL     1       5.176   6.334  24.161  1.00  0.00     0.033 C 
HETATM   35  C22 UNL     1       3.667   6.122  24.195  1.00  0.00     0.016 C 
HETATM   36  C23 UNL     1       5.509   7.409  25.124  1.00  0.00     0.016 C 
ENDBRANCH   1  34
TORSDOF 9
ENDMDL
MODEL 4
REMARK VINA RESULT: -8.998655344      1.024      1.924
REMARK  9 active torsions:
REMARK  status: ('A' for Active; 'I' for Inactive)
REMARK    1  A    between atoms: C2_2  and  C4_4 
REMARK    2  A    between atoms: C4_4  and  N1_5 
REMARK    3  A    between atoms: C4_4  and  N3_13 
REMARK    4  A    between atoms: C5_7  and  O1_8 
REMARK    5  A    between atoms: C5_7  and  N2_10 
REMARK       I    between atoms: N3_13  and  C8_15 
REMARK    6  A    between atoms: C8_15  and  C9_17 
REMARK    7  A    between atoms: C9_17  and  N4_18 
REMARK    8  A    between atoms: C9_17  and  C21_34 
REMARK       I    between atoms: N4_18  and  C10_20 
REMARK       I    between atoms: C10_20  and  N5_22 
REMARK    9  A    between atoms: N5_22  and  C11_24 
ROOT
HETATM    1  C9  UNL     1       6.845   8.968  19.809  1.00  0.00     0.085 C 
ENDROOT
BRANCH   1   2
HETATM    2  C8  UNL     1       7.424   9.132  21.179  1.00  0.00     0.269 C 
HETATM    3  N3  UNL     1       6.792   8.681  22.330  1.00  0.00    -0.311 N 
ATOM      4  H3  UNL     1       5.925   8.171  22.163  1.00  0.00     0.170 HD
HETATM    5  O2  UNL     1       8.553   9.721  21.199  1.00  0.00    -0.266 OA
BRANCH   3   6
HETATM    6  C4  UNL     1       7.148   8.810  23.712  1.00  0.00     0.090 C 
BRANCH   6   7
HETATM    7  C2  UNL     1       6.293   8.361  24.848  1.00  0.00     0.045 C 
HETATM    8  C1  UNL     1       6.014   6.856  24.738  1.00  0.00     0.017 C 
HETATM    9  C3  UNL     1       5.076   9.139  25.157  1.00  0.00     0.017 C 
ENDBRANCH   6   7
BRANCH   6  10
HETATM   10  N1  UNL     1       8.274   9.233  23.967  1.00  0.00    -0.311 N 
HETATM   11  C5  UNL     1       9.491   8.927  24.386  1.00  0.00     0.219 C 
ATOM     12  H1  UNL     1       8.267  10.235  23.778  1.00  0.00     0.170 HD
BRANCH  11  13
HETATM   13  O1  UNL     1      10.476   9.185  23.543  1.00  0.00    -0.332 OA
ATOM     14  H1  UNL     1      10.974   8.435  23.242  1.00  0.00     0.220 HD
ENDBRANCH  11  13
BRANCH  11  15
HETATM   15  N2  UNL     1       9.977   8.362  25.594  1.00  0.00    -0.356 N 
HETATM   16  C6  UNL     1       9.343   7.306  26.348  1.00  0.00     0.152 C 
HETATM   17  C7  UNL     1      11.228   8.899  26.152  1.00  0.00     0.152 C 
ENDBRANCH  11  15
ENDBRANCH   6  10
ENDBRANCH   3   6
ENDBRANCH   1   2
BRANCH   1  18
HETATM   18  N4  UNL     1       7.011   7.748  19.167  1.00  0.00    -0.307 N 
HETATM   19  C10 UNL     1       7.552   6.518  19.583  1.00  0.00     0.321 C 
HETATM   20  O3  UNL     1       7.963   6.222  20.724  1.00  0.00    -0.247 OA
HETATM   21  N5  UNL     1       7.673   5.453  18.620  1.00  0.00    -0.338 N 
ATOM     22  H5  UNL     1       7.407   5.654  17.656  1.00  0.00     0.164 HD
ATOM     23  H4  UNL     1       6.675   7.742  18.205  1.00  0.00     0.170 HD
BRANCH  21  24
HETATM   24  C11 UNL     1       8.131   4.165  18.913  1.00  0.00     0.094 C 
HETATM   25  C12 UNL     1       9.074   3.543  17.892  1.00  0.00     0.009 C 
HETATM   26  C13 UNL     1       9.610   2.259  18.536  1.00  0.00     0.011 C 
HETATM   27  C17 UNL     1       8.430   3.134  16.621  1.00  0.00     0.011 C 
HETATM   28  C14 UNL     1       8.500   1.288  18.801  1.00  0.00    -0.013 C 
HETATM   29  C15 UNL     1       7.749   0.909  17.526  1.00  0.00     0.009 C 
HETATM   30  C20 UNL     1       7.495   1.944  19.734  1.00  0.00     0.011 C 
HETATM   31  C16 UNL     1       7.270   2.188  16.890  1.00  0.00    -0.013 C 
HETATM   32  C18 UNL     1       6.306   2.878  17.813  1.00  0.00     0.011 C 
HETATM   33  C19 UNL     1       6.978   3.209  19.133  1.00  0.00     0.009 C 
ENDBRANCH  21  24
ENDBRANCH   1  18
BRANCH   1  34
HETATM   34  C21 UNL     1       5.507   9.632  19.629  1.00  0.00     0.033 C 
HETATM   35  C22 UNL     1       4.390   8.596  19.606  1.00  0.00     0.016 C 
HETATM   36  C23 UNL     1       5.359  10.494  18.434  1.00  0.00     0.016 C 
ENDBRANCH   1  34
TORSDOF 9
ENDMDL
MODEL 5
REMARK VINA RESULT: -8.865998047      1.935      4.231
REMARK  9 active torsions:
REMARK  status: ('A' for Active; 'I' for Inactive)
REMARK    1  A    between atoms: C2_2  and  C4_4 
REMARK    2  A    between atoms: C4_4  and  N1_5 
REMARK    3  A    between atoms: C4_4  and  N3_13 
REMARK    4  A    between atoms: C5_7  and  O1_8 
REMARK    5  A    between atoms: C5_7  and  N2_10 
REMARK       I    between atoms: N3_13  and  C8_15 
REMARK    6  A    between atoms: C8_15  and  C9_17 
REMARK    7  A    between atoms: C9_17  and  N4_18 
REMARK    8  A    between atoms: C9_17  and  C21_34 
REMARK       I    between atoms: N4_18  and  C10_20 
REMARK       I    between atoms: C10_20  and  N5_22 
REMARK    9  A    between atoms: N5_22  and  C11_24 
ROOT
HETATM    1  C9  UNL     1       5.420   6.742  22.391  1.00  0.00     0.085 C 
ENDROOT
BRANCH   1   2
HETATM    2  C8  UNL     1       6.272   7.969  22.487  1.00  0.00     0.269 C 
HETATM    3  N3  UNL     1       7.636   7.929  22.743  1.00  0.00    -0.311 N 
ATOM      4  H3  UNL     1       8.028   6.988  22.800  1.00  0.00     0.170 HD
HETATM    5  O2  UNL     1       5.636   9.058  22.311  1.00  0.00    -0.266 OA
BRANCH   3   6
HETATM    6  C4  UNL     1       8.589   8.980  22.942  1.00  0.00     0.090 C 
BRANCH   6   7
HETATM    7  C2  UNL     1       9.264   9.273  24.239  1.00  0.00     0.045 C 
HETATM    8  C1  UNL     1      10.785   9.141  24.086  1.00  0.00     0.017 C 
HETATM    9  C3  UNL     1       8.759   8.603  25.456  1.00  0.00     0.017 C 
ENDBRANCH   6   7
BRANCH   6  10
HETATM   10  N1  UNL     1       8.939   9.618  21.951  1.00  0.00    -0.311 N 
HETATM   11  C5  UNL     1       8.554  10.192  20.823  1.00  0.00     0.219 C 
ATOM     12  H1  UNL     1       9.945   9.766  22.032  1.00  0.00     0.170 HD
BRANCH  11  13
HETATM   13  O1  UNL     1       8.778  11.491  20.727  1.00  0.00    -0.332 OA
ATOM     14  H1  UNL     1       9.386  11.760  20.049  1.00  0.00     0.220 HD
ENDBRANCH  11  13
BRANCH  11  15
HETATM   15  N2  UNL     1       7.929   9.685  19.654  1.00  0.00    -0.356 N 
HETATM   16  C6  UNL     1       7.671   8.293  19.368  1.00  0.00     0.152 C 
HETATM   17  C7  UNL     1       7.517  10.649  18.620  1.00  0.00     0.152 C 
ENDBRANCH  11  15
ENDBRANCH   6  10
ENDBRANCH   3   6
ENDBRANCH   1   2
BRANCH   1  18
HETATM   18  N4  UNL     1       5.713   5.815  21.400  1.00  0.00    -0.307 N 
HETATM   19  C10 UNL     1       6.867   5.068  21.105  1.00  0.00     0.321 C 
HETATM   20  O3  UNL     1       7.927   5.025  21.763  1.00  0.00    -0.247 OA
HETATM   21  N5  UNL     1       6.879   4.251  19.918  1.00  0.00    -0.338 N 
ATOM     22  H5  UNL     1       6.062   4.289  19.309  1.00  0.00     0.164 HD
ATOM     23  H4  UNL     1       4.939   5.642  20.760  1.00  0.00     0.170 HD
BRANCH  21  24
HETATM   24  C11 UNL     1       7.932   3.411  19.542  1.00  0.00     0.094 C 
HETATM   25  C12 UNL     1       8.658   3.785  18.257  1.00  0.00     0.009 C 
HETATM   26  C13 UNL     1       9.889   2.875  18.184  1.00  0.00     0.011 C 
HETATM   27  C17 UNL     1       7.886   3.541  17.014  1.00  0.00     0.011 C 
HETATM   28  C14 UNL     1       9.488   1.435  18.093  1.00  0.00    -0.013 C 
HETATM   29  C15 UNL     1       8.611   1.157  16.873  1.00  0.00     0.009 C 
HETATM   30  C20 UNL     1       8.665   1.083  19.323  1.00  0.00     0.011 C 
HETATM   31  C16 UNL     1       7.432   2.092  16.944  1.00  0.00    -0.013 C 
HETATM   32  C18 UNL     1       6.626   1.791  18.176  1.00  0.00     0.011 C 
HETATM   33  C19 UNL     1       7.473   1.973  19.422  1.00  0.00     0.009 C 
ENDBRANCH  21  24
ENDBRANCH   1  18
BRANCH   1  34
HETATM   34  C21 UNL     1       5.012   6.178  23.725  1.00  0.00     0.033 C 
HETATM   35  C22 UNL     1       3.693   5.424  23.610  1.00  0.00     0.016 C 
HETATM   36  C23 UNL     1       4.892   7.147  24.838  1.00  0.00     0.016 C 
ENDBRANCH   1  34
TORSDOF 9
ENDMDL
