MODEL 1
REMARK VINA RESULT: -7.208886137      0.000      0.000
REMARK  2 active torsions:
REMARK  status: ('A' for Active; 'I' for Inactive)
REMARK    1  A    between atoms: N1_2  and  C2_5 
REMARK    2  A    between atoms: C2_5  and  C3_6 
ROOT
HETATM    1  C3  UNL     1       7.768  58.303  64.381  1.00  0.00    -0.012 A 
HETATM    2  C4  UNL     1       7.206  58.196  63.013  1.00  0.00     0.012 C 
HETATM    3  C5  UNL     1       8.159  58.421  61.901  1.00  0.00     0.006 C 
HETATM    4  C6  UNL     1       9.552  57.964  62.145  1.00  0.00    -0.010 C 
HETATM    5  C7  UNL     1      10.116  57.157  60.967  1.00  0.00     0.005 C 
HETATM    6  C8  UNL     1      11.595  57.065  61.186  1.00  0.00     0.000 C 
HETATM    7  C9  UNL     1      12.005  56.530  62.499  1.00  0.00     0.000 C 
HETATM    8  C10 UNL     1      11.142  56.843  63.651  1.00  0.00     0.005 C 
HETATM    9  C11 UNL     1       9.703  57.076  63.350  1.00  0.00    -0.006 C 
HETATM   10  C12 UNL     1       9.059  57.659  64.587  1.00  0.00     0.001 A 
HETATM   11  C13 UNL     1       9.010  59.144  64.628  1.00  0.00     0.017 A 
ENDROOT
BRANCH   1  12
HETATM   12  C2  UNL     1       6.772  58.371  65.509  1.00  0.00     0.241 C 
BRANCH  12  13
HETATM   13  N1  UNL     1       5.477  57.870  65.154  1.00  0.00    -0.078 N 
HETATM   14  C1  UNL     1       4.687  57.800  66.376  1.00  0.00     0.267 C 
ATOM     15  H12 UNL     1       5.518  56.983  64.654  1.00  0.00     0.276 HD
ATOM     16  H11 UNL     1       5.027  58.416  64.420  1.00  0.00     0.276 HD
ENDBRANCH  12  13
ENDBRANCH   1  12
TORSDOF 2
ENDMDL
MODEL 2
REMARK VINA RESULT: -6.171678255      2.454      5.240
REMARK  2 active torsions:
REMARK  status: ('A' for Active; 'I' for Inactive)
REMARK    1  A    between atoms: N1_2  and  C2_5 
REMARK    2  A    between atoms: C2_5  and  C3_6 
ROOT
HETATM    1  C3  UNL     1      10.865  57.061  62.794  1.00  0.00    -0.012 A 
HETATM    2  C4  UNL     1      10.050  57.752  61.766  1.00  0.00     0.012 C 
HETATM    3  C5  UNL     1       8.582  57.688  61.951  1.00  0.00     0.006 C 
HETATM    4  C6  UNL     1       8.110  57.685  63.361  1.00  0.00    -0.010 C 
HETATM    5  C7  UNL     1       6.963  58.678  63.595  1.00  0.00     0.005 C 
HETATM    6  C8  UNL     1       6.366  58.331  64.924  1.00  0.00     0.000 C 
HETATM    7  C9  UNL     1       7.320  58.279  66.049  1.00  0.00     0.000 C 
HETATM    8  C10 UNL     1       8.687  57.817  65.749  1.00  0.00     0.005 C 
HETATM    9  C11 UNL     1       9.172  58.054  64.362  1.00  0.00    -0.006 C 
HETATM   10  C12 UNL     1      10.447  57.266  64.175  1.00  0.00     0.001 A 
HETATM   11  C13 UNL     1      10.268  55.912  63.589  1.00  0.00     0.017 A 
ENDROOT
BRANCH   1  12
HETATM   12  C2  UNL     1      12.322  56.862  62.470  1.00  0.00     0.241 C 
BRANCH  12  13
HETATM   13  N1  UNL     1      12.632  57.086  61.089  1.00  0.00    -0.078 N 
HETATM   14  C1  UNL     1      13.847  56.342  60.788  1.00  0.00     0.267 C 
ATOM     15  H12 UNL     1      12.702  58.076  60.852  1.00  0.00     0.276 HD
ATOM     16  H11 UNL     1      11.859  56.855  60.465  1.00  0.00     0.276 HD
ENDBRANCH  12  13
ENDBRANCH   1  12
TORSDOF 2
ENDMDL
MODEL 3
REMARK VINA RESULT: -5.526642860      1.949      5.410
REMARK  2 active torsions:
REMARK  status: ('A' for Active; 'I' for Inactive)
REMARK    1  A    between atoms: N1_2  and  C2_5 
REMARK    2  A    between atoms: C2_5  and  C3_6 
ROOT
HETATM    1  C3  UNL     1       8.948  58.117  62.894  1.00  0.00    -0.012 A 
HETATM    2  C4  UNL     1       9.557  57.665  64.167  1.00  0.00     0.012 C 
HETATM    3  C5  UNL     1       8.926  58.177  65.406  1.00  0.00     0.006 C 
HETATM    4  C6  UNL     1       7.454  58.377  65.343  1.00  0.00    -0.010 C 
HETATM    5  C7  UNL     1       6.732  57.788  66.563  1.00  0.00     0.005 C 
HETATM    6  C8  UNL     1       5.345  58.351  66.547  1.00  0.00     0.000 C 
HETATM    7  C9  UNL     1       4.600  58.155  65.288  1.00  0.00     0.000 C 
HETATM    8  C10 UNL     1       5.379  58.171  64.038  1.00  0.00     0.005 C 
HETATM    9  C11 UNL     1       6.801  57.744  64.145  1.00  0.00    -0.006 C 
HETATM   10  C12 UNL     1       7.491  58.102  62.848  1.00  0.00     0.001 A 
HETATM   11  C13 UNL     1       8.172  59.423  62.845  1.00  0.00     0.017 A 
ENDROOT
BRANCH   1  12
HETATM   12  C2  UNL     1       9.742  57.853  61.641  1.00  0.00     0.241 C 
BRANCH  12  13
HETATM   13  N1  UNL     1      10.521  56.652  61.707  1.00  0.00    -0.078 N 
HETATM   14  C1  UNL     1      11.919  57.029  61.542  1.00  0.00     0.267 C 
ATOM     15  H12 UNL     1      10.218  55.944  61.037  1.00  0.00     0.276 HD
ATOM     16  H11 UNL     1      10.352  56.113  62.556  1.00  0.00     0.276 HD
ENDBRANCH  12  13
ENDBRANCH   1  12
TORSDOF 2
ENDMDL
MODEL 4
REMARK VINA RESULT: -5.523760575      2.456      4.913
REMARK  2 active torsions:
REMARK  status: ('A' for Active; 'I' for Inactive)
REMARK    1  A    between atoms: N1_2  and  C2_5 
REMARK    2  A    between atoms: C2_5  and  C3_6 
ROOT
HETATM    1  C3  UNL     1      11.225  56.688  62.567  1.00  0.00    -0.012 A 
HETATM    2  C4  UNL     1      10.719  57.330  61.330  1.00  0.00     0.012 C 
HETATM    3  C5  UNL     1       9.246  57.437  61.211  1.00  0.00     0.006 C 
HETATM    4  C6  UNL     1       8.510  57.650  62.485  1.00  0.00    -0.010 C 
HETATM    5  C7  UNL     1       7.471  58.775  62.378  1.00  0.00     0.005 C 
HETATM    6  C8  UNL     1       6.587  58.650  63.580  1.00  0.00     0.000 C 
HETATM    7  C9  UNL     1       7.287  58.637  64.879  1.00  0.00     0.000 C 
HETATM    8  C10 UNL     1       8.619  58.007  64.917  1.00  0.00     0.005 C 
HETATM    9  C11 UNL     1       9.392  58.027  63.644  1.00  0.00    -0.006 C 
HETATM   10  C12 UNL     1      10.573  57.097  63.804  1.00  0.00     0.001 A 
HETATM   11  C13 UNL     1      10.346  55.708  63.327  1.00  0.00     0.017 A 
ENDROOT
BRANCH   1  12
HETATM   12  C2  UNL     1      12.681  56.306  62.575  1.00  0.00     0.241 C 
BRANCH  12  13
HETATM   13  N1  UNL     1      13.028  55.415  63.642  1.00  0.00    -0.078 N 
HETATM   14  C1  UNL     1      13.402  56.232  64.788  1.00  0.00     0.267 C 
ATOM     15  H12 UNL     1      13.748  54.742  63.380  1.00  0.00     0.276 HD
ATOM     16  H11 UNL     1      12.291  54.744  63.856  1.00  0.00     0.276 HD
ENDBRANCH  12  13
ENDBRANCH   1  12
TORSDOF 2
ENDMDL
MODEL 5
REMARK VINA RESULT: -5.310537857      1.200      2.515
REMARK  2 active torsions:
REMARK  status: ('A' for Active; 'I' for Inactive)
REMARK    1  A    between atoms: N1_2  and  C2_5 
REMARK    2  A    between atoms: C2_5  and  C3_6 
ROOT
HETATM    1  C3  UNL     1       8.546  57.960  63.445  1.00  0.00    -0.012 A 
HETATM    2  C4  UNL     1       9.240  57.816  64.746  1.00  0.00     0.012 C 
HETATM    3  C5  UNL     1      10.276  56.759  64.815  1.00  0.00     0.006 C 
HETATM    4  C6  UNL     1      11.040  56.523  63.562  1.00  0.00    -0.010 C 
HETATM    5  C7  UNL     1      12.553  56.447  63.806  1.00  0.00     0.005 C 
HETATM    6  C8  UNL     1      13.155  55.872  62.562  1.00  0.00     0.000 C 
HETATM    7  C9  UNL     1      12.809  56.575  61.311  1.00  0.00     0.000 C 
HETATM    8  C10 UNL     1      11.467  57.179  61.230  1.00  0.00     0.005 C 
HETATM    9  C11 UNL     1      10.854  57.593  62.521  1.00  0.00    -0.006 C 
HETATM   10  C12 UNL     1       9.398  57.908  62.263  1.00  0.00     0.001 A 
HETATM   11  C13 UNL     1       8.461  56.777  62.494  1.00  0.00     0.017 A 
ENDROOT
BRANCH   1  12
HETATM   12  C2  UNL     1       7.304  58.813  63.439  1.00  0.00     0.241 C 
BRANCH  12  13
HETATM   13  N1  UNL     1       6.647  58.865  64.712  1.00  0.00    -0.078 N 
HETATM   14  C1  UNL     1       5.566  57.889  64.685  1.00  0.00     0.267 C 
ATOM     15  H12 UNL     1       6.331  59.803  64.958  1.00  0.00     0.276 HD
ATOM     16  H11 UNL     1       7.286  58.731  65.495  1.00  0.00     0.276 HD
ENDBRANCH  12  13
ENDBRANCH   1  12
TORSDOF 2
ENDMDL
