MODEL 1
REMARK VINA RESULT: -4.334251884      0.000      0.000
REMARK  1 active torsions:
REMARK  status: ('A' for Active; 'I' for Inactive)
REMARK    1  A    between atoms: N1_2  and  C2_4 
ROOT
HETATM    1  C2  UNL     1       3.836  61.806  58.169  1.00  0.00     0.084 C 
HETATM    2  C3  UNL     1       2.569  60.995  58.325  1.00  0.00     0.009 C 
HETATM    3  C4  UNL     1       2.599  60.055  59.483  1.00  0.00     0.007 C 
HETATM    4  C5  UNL     1       3.761  59.168  59.615  1.00  0.00     0.005 C 
HETATM    5  C6  UNL     1       4.605  58.942  58.404  1.00  0.00    -0.014 C 
HETATM    6  C7  UNL     1       3.822  58.447  57.211  1.00  0.00     0.009 C 
HETATM    7  C8  UNL     1       3.239  59.547  56.380  1.00  0.00    -0.013 C 
HETATM    8  C9  UNL     1       2.139  60.290  57.077  1.00  0.00     0.011 C 
HETATM    9  C10 UNL     1       4.319  60.532  56.043  1.00  0.00     0.011 C 
HETATM   10  C11 UNL     1       4.848  61.180  57.278  1.00  0.00     0.009 C 
HETATM   11  C12 UNL     1       5.535  60.071  58.076  1.00  0.00     0.011 C 
ENDROOT
BRANCH   1  12
HETATM   12  N1  UNL     1       3.519  63.164  57.945  1.00  0.00    -0.420 N 
HETATM   13  C1  UNL     1       2.506  63.796  58.659  1.00  0.00     0.140 C 
ATOM     14  H1  UNL     1       4.042  63.692  57.247  1.00  0.00     0.153 HD
ENDBRANCH   1  12
TORSDOF 1
ENDMDL
MODEL 2
REMARK VINA RESULT: -4.305579069      1.878      3.666
REMARK  1 active torsions:
REMARK  status: ('A' for Active; 'I' for Inactive)
REMARK    1  A    between atoms: N1_2  and  C2_4 
ROOT
HETATM    1  C2  UNL     1       3.256  58.625  57.296  1.00  0.00     0.084 C 
HETATM    2  C3  UNL     1       3.935  58.838  58.631  1.00  0.00     0.009 C 
HETATM    3  C4  UNL     1       3.054  59.472  59.655  1.00  0.00     0.007 C 
HETATM    4  C5  UNL     1       2.334  60.694  59.277  1.00  0.00     0.005 C 
HETATM    5  C6  UNL     1       2.835  61.459  58.095  1.00  0.00    -0.014 C 
HETATM    6  C7  UNL     1       4.293  61.836  58.199  1.00  0.00     0.009 C 
HETATM    7  C8  UNL     1       5.222  60.781  57.684  1.00  0.00    -0.013 C 
HETATM    8  C9  UNL     1       5.247  59.551  58.541  1.00  0.00     0.011 C 
HETATM    9  C10 UNL     1       4.786  60.374  56.308  1.00  0.00     0.011 C 
HETATM   10  C11 UNL     1       3.430  59.753  56.343  1.00  0.00     0.009 C 
HETATM   11  C12 UNL     1       2.468  60.862  56.770  1.00  0.00     0.011 C 
ENDROOT
BRANCH   1  12
HETATM   12  N1  UNL     1       3.519  57.321  56.821  1.00  0.00    -0.420 N 
HETATM   13  C1  UNL     1       2.780  56.768  55.780  1.00  0.00     0.140 C 
ATOM     14  H1  UNL     1       4.266  56.773  57.249  1.00  0.00     0.153 HD
ENDBRANCH   1  12
TORSDOF 1
ENDMDL
MODEL 3
REMARK VINA RESULT: -4.165201818      1.612      3.177
REMARK  1 active torsions:
REMARK  status: ('A' for Active; 'I' for Inactive)
REMARK    1  A    between atoms: N1_2  and  C2_4 
ROOT
HETATM    1  C2  UNL     1       3.527  59.666  59.119  1.00  0.00     0.084 C 
HETATM    2  C3  UNL     1       4.219  58.844  58.054  1.00  0.00     0.009 C 
HETATM    3  C4  UNL     1       5.554  59.379  57.658  1.00  0.00     0.007 C 
HETATM    4  C5  UNL     1       5.645  60.801  57.307  1.00  0.00     0.005 C 
HETATM    5  C6  UNL     1       4.380  61.511  56.947  1.00  0.00    -0.014 C 
HETATM    6  C7  UNL     1       3.614  60.842  55.832  1.00  0.00     0.009 C 
HETATM    7  C8  UNL     1       2.672  59.780  56.306  1.00  0.00    -0.013 C 
HETATM    8  C9  UNL     1       3.374  58.572  56.850  1.00  0.00     0.011 C 
HETATM    9  C10 UNL     1       1.809  60.341  57.397  1.00  0.00     0.011 C 
HETATM   10  C11 UNL     1       2.633  60.724  58.579  1.00  0.00     0.009 C 
HETATM   11  C12 UNL     1       3.521  61.880  58.120  1.00  0.00     0.011 C 
ENDROOT
BRANCH   1  12
HETATM   12  N1  UNL     1       3.008  58.820  60.124  1.00  0.00    -0.420 N 
HETATM   13  C1  UNL     1       1.854  59.156  60.826  1.00  0.00     0.140 C 
ATOM     14  H1  UNL     1       3.487  57.946  60.340  1.00  0.00     0.153 HD
ENDBRANCH   1  12
TORSDOF 1
ENDMDL
MODEL 4
REMARK VINA RESULT: -4.149422653      0.888      2.736
REMARK  1 active torsions:
REMARK  status: ('A' for Active; 'I' for Inactive)
REMARK    1  A    between atoms: N1_2  and  C2_4 
ROOT
HETATM    1  C2  UNL     1       2.659  61.337  58.253  1.00  0.00     0.084 C 
HETATM    2  C3  UNL     1       3.969  61.532  57.522  1.00  0.00     0.009 C 
HETATM    3  C4  UNL     1       3.902  61.184  56.073  1.00  0.00     0.007 C 
HETATM    4  C5  UNL     1       3.333  59.881  55.707  1.00  0.00     0.005 C 
HETATM    5  C6  UNL     1       3.260  58.831  56.767  1.00  0.00    -0.014 C 
HETATM    6  C7  UNL     1       4.590  58.548  57.423  1.00  0.00     0.009 C 
HETATM    7  C8  UNL     1       4.889  59.445  58.583  1.00  0.00    -0.013 C 
HETATM    8  C9  UNL     1       5.138  60.867  58.177  1.00  0.00     0.011 C 
HETATM    9  C10 UNL     1       3.722  59.433  59.525  1.00  0.00     0.011 C 
HETATM   10  C11 UNL     1       2.505  59.993  58.869  1.00  0.00     0.009 C 
HETATM   11  C12 UNL     1       2.142  59.018  57.749  1.00  0.00     0.011 C 
ENDROOT
BRANCH   1  12
HETATM   12  N1  UNL     1       2.383  62.463  59.061  1.00  0.00    -0.420 N 
HETATM   13  C1  UNL     1       2.824  63.733  58.705  1.00  0.00     0.140 C 
ATOM     14  H1  UNL     1       1.850  62.342  59.923  1.00  0.00     0.153 HD
ENDBRANCH   1  12
TORSDOF 1
ENDMDL
MODEL 5
REMARK VINA RESULT: -4.083383745      2.508      4.195
REMARK  1 active torsions:
REMARK  status: ('A' for Active; 'I' for Inactive)
REMARK    1  A    between atoms: N1_2  and  C2_4 
ROOT
HETATM    1  C2  UNL     1       2.555  57.577  59.394  1.00  0.00     0.084 C 
HETATM    2  C3  UNL     1       2.250  58.014  57.978  1.00  0.00     0.009 C 
HETATM    3  C4  UNL     1       3.446  58.036  57.088  1.00  0.00     0.007 C 
HETATM    4  C5  UNL     1       4.642  58.741  57.564  1.00  0.00     0.005 C 
HETATM    5  C6  UNL     1       4.471  59.734  58.667  1.00  0.00    -0.014 C 
HETATM    6  C7  UNL     1       3.440  60.795  58.364  1.00  0.00     0.009 C 
HETATM    7  C8  UNL     1       2.047  60.402  58.743  1.00  0.00    -0.013 C 
HETATM    8  C9  UNL     1       1.494  59.302  57.888  1.00  0.00     0.011 C 
HETATM    9  C10 UNL     1       2.042  59.926  60.165  1.00  0.00     0.011 C 
HETATM   10  C11 UNL     1       2.875  58.698  60.316  1.00  0.00     0.009 C 
HETATM   11  C12 UNL     1       4.315  59.127  60.030  1.00  0.00     0.011 C 
ENDROOT
BRANCH   1  12
HETATM   12  N1  UNL     1       1.602  56.627  59.825  1.00  0.00    -0.420 N 
HETATM   13  C1  UNL     1       1.738  55.969  61.043  1.00  0.00     0.140 C 
ATOM     14  H1  UNL     1       0.799  56.420  59.231  1.00  0.00     0.153 HD
ENDBRANCH   1  12
TORSDOF 1
ENDMDL
