MODEL 1
REMARK VINA RESULT: -5.469554327      0.000      0.000
REMARK  4 active torsions:
REMARK  status: ('A' for Active; 'I' for Inactive)
REMARK    1  A    between atoms: C3_6  and  C4_7 
REMARK    2  A    between atoms: C4_7  and  N3_8 
REMARK    3  A    between atoms: C4_7  and  N4_12 
REMARK    4  A    between atoms: N4_12  and  N5_13 
ROOT
HETATM    1  C4  UNL     1      21.316  -2.372   8.504  1.00  0.00     0.332 C 
ENDROOT
BRANCH   1   2
HETATM    2  C3  UNL     1      21.967  -1.938   7.241  1.00  0.00     0.049 A 
HETATM    3  C2  UNL     1      23.264  -2.022   6.828  1.00  0.00     0.121 A 
HETATM    4  N2  UNL     1      23.348  -1.479   5.584  1.00  0.00    -0.308 N 
HETATM    5  N1  UNL     1      22.166  -1.053   5.189  1.00  0.00    -0.283 N 
ATOM      6  H2  UNL     1      24.205  -1.411   5.034  1.00  0.00     0.186 HD
HETATM    7  C1  UNL     1      21.898  -0.420   3.910  1.00  0.00     0.179 C 
HETATM    8  C5  UNL     1      21.290  -1.319   6.185  1.00  0.00     0.143 A 
HETATM    9  N6  UNL     1      19.917  -1.002   6.117  1.00  0.00    -0.080 NA
ENDBRANCH   1   2
BRANCH   1  10
HETATM   10  N3  UNL     1      20.449  -1.301   8.959  1.00  0.00    -0.055 N 
ATOM     11  H33 UNL     1      19.771  -1.017   8.252  1.00  0.00     0.276 HD
ATOM     12  H32 UNL     1      19.786  -1.608   9.671  1.00  0.00     0.276 HD
ATOM     13  H31 UNL     1      21.035  -0.529   9.275  1.00  0.00     0.276 HD
ENDBRANCH   1  10
BRANCH   1  14
HETATM   14  N4  UNL     1      20.541  -3.573   8.279  1.00  0.00    -0.110 NA
BRANCH  14  15
HETATM   15  N5  UNL     1      19.914  -4.042   9.409  1.00  0.00    -0.346 N 
ATOM     16  H52 UNL     1      19.364  -3.438  10.019  1.00  0.00     0.172 HD
ATOM     17  H51 UNL     1      20.056  -5.040   9.569  1.00  0.00     0.172 HD
ENDBRANCH  14  15
ENDBRANCH   1  14
TORSDOF 4
ENDMDL
MODEL 2
REMARK VINA RESULT: -5.228843802      0.847      1.580
REMARK  4 active torsions:
REMARK  status: ('A' for Active; 'I' for Inactive)
REMARK    1  A    between atoms: C3_6  and  C4_7 
REMARK    2  A    between atoms: C4_7  and  N3_8 
REMARK    3  A    between atoms: C4_7  and  N4_12 
REMARK    4  A    between atoms: N4_12  and  N5_13 
ROOT
HETATM    1  C4  UNL     1      20.498  -2.252   8.669  1.00  0.00     0.332 C 
ENDROOT
BRANCH   1   2
HETATM    2  C3  UNL     1      21.371  -1.958   7.503  1.00  0.00     0.049 A 
HETATM    3  C2  UNL     1      22.689  -2.227   7.282  1.00  0.00     0.121 A 
HETATM    4  N2  UNL     1      23.017  -1.749   6.051  1.00  0.00    -0.308 N 
HETATM    5  N1  UNL     1      21.969  -1.189   5.483  1.00  0.00    -0.283 N 
ATOM      6  H2  UNL     1      23.943  -1.815   5.629  1.00  0.00     0.186 HD
HETATM    7  C1  UNL     1      21.970  -0.578   4.166  1.00  0.00     0.179 C 
HETATM    8  C5  UNL     1      20.936  -1.299   6.348  1.00  0.00     0.143 A 
HETATM    9  N6  UNL     1      19.641  -0.808   6.078  1.00  0.00    -0.080 NA
ENDBRANCH   1   2
BRANCH   1  10
HETATM   10  N3  UNL     1      21.068  -3.374   9.391  1.00  0.00    -0.055 N 
ATOM     11  H33 UNL     1      20.358  -3.959   9.832  1.00  0.00     0.276 HD
ATOM     12  H32 UNL     1      21.462  -4.081   8.770  1.00  0.00     0.276 HD
ATOM     13  H31 UNL     1      21.749  -3.012  10.058  1.00  0.00     0.276 HD
ENDBRANCH   1  10
BRANCH   1  14
HETATM   14  N4  UNL     1      20.418  -1.097   9.538  1.00  0.00    -0.110 NA
BRANCH  14  15
HETATM   15  N5  UNL     1      21.396  -1.066  10.503  1.00  0.00    -0.346 N 
ATOM     16  H52 UNL     1      21.615  -1.875  11.084  1.00  0.00     0.172 HD
ATOM     17  H51 UNL     1      21.870  -0.165  10.574  1.00  0.00     0.172 HD
ENDBRANCH  14  15
ENDBRANCH   1  14
TORSDOF 4
ENDMDL
MODEL 3
REMARK VINA RESULT: -5.111427534      1.072      1.947
REMARK  4 active torsions:
REMARK  status: ('A' for Active; 'I' for Inactive)
REMARK    1  A    between atoms: C3_6  and  C4_7 
REMARK    2  A    between atoms: C4_7  and  N3_8 
REMARK    3  A    between atoms: C4_7  and  N4_12 
REMARK    4  A    between atoms: N4_12  and  N5_13 
ROOT
HETATM    1  C4  UNL     1      21.370  -2.585   8.865  1.00  0.00     0.332 C 
ENDROOT
BRANCH   1   2
HETATM    2  C3  UNL     1      21.350  -1.979   7.509  1.00  0.00     0.049 A 
HETATM    3  C2  UNL     1      20.360  -1.329   6.834  1.00  0.00     0.121 A 
HETATM    4  N2  UNL     1      20.846  -0.964   5.617  1.00  0.00    -0.308 N 
HETATM    5  N1  UNL     1      22.098  -1.355   5.488  1.00  0.00    -0.283 N 
ATOM      6  H2  UNL     1      20.317  -0.461   4.905  1.00  0.00     0.186 HD
HETATM    7  C1  UNL     1      22.918  -1.128   4.312  1.00  0.00     0.179 C 
HETATM    8  C5  UNL     1      22.443  -1.984   6.634  1.00  0.00     0.143 A 
HETATM    9  N6  UNL     1      23.719  -2.539   6.862  1.00  0.00    -0.080 NA
ENDBRANCH   1   2
BRANCH   1  10
HETATM   10  N3  UNL     1      21.391  -1.512   9.841  1.00  0.00    -0.055 N 
ATOM     11  H33 UNL     1      20.593  -1.544  10.476  1.00  0.00     0.276 HD
ATOM     12  H32 UNL     1      22.127  -1.629  10.538  1.00  0.00     0.276 HD
ATOM     13  H31 UNL     1      21.460  -0.627   9.341  1.00  0.00     0.276 HD
ENDBRANCH   1  10
BRANCH   1  14
HETATM   14  N4  UNL     1      20.196  -3.408   9.061  1.00  0.00    -0.110 NA
BRANCH  14  15
HETATM   15  N5  UNL     1      19.360  -2.947  10.051  1.00  0.00    -0.346 N 
ATOM     16  H52 UNL     1      18.686  -3.550  10.522  1.00  0.00     0.172 HD
ATOM     17  H51 UNL     1      19.485  -1.956  10.260  1.00  0.00     0.172 HD
ENDBRANCH  14  15
ENDBRANCH   1  14
TORSDOF 4
ENDMDL
MODEL 4
REMARK VINA RESULT: -4.990303691      1.598      4.216
REMARK  4 active torsions:
REMARK  status: ('A' for Active; 'I' for Inactive)
REMARK    1  A    between atoms: C3_6  and  C4_7 
REMARK    2  A    between atoms: C4_7  and  N3_8 
REMARK    3  A    between atoms: C4_7  and  N4_12 
REMARK    4  A    between atoms: N4_12  and  N5_13 
ROOT
HETATM    1  C4  UNL     1      21.767  -0.613   4.212  1.00  0.00     0.332 C 
ENDROOT
BRANCH   1   2
HETATM    2  C3  UNL     1      21.835  -1.230   5.562  1.00  0.00     0.049 A 
HETATM    3  C2  UNL     1      22.881  -1.782   6.241  1.00  0.00     0.121 A 
HETATM    4  N2  UNL     1      22.422  -2.210   7.448  1.00  0.00    -0.308 N 
HETATM    5  N1  UNL     1      21.135  -1.957   7.565  1.00  0.00    -0.283 N 
ATOM      6  H2  UNL     1      22.993  -2.663   8.162  1.00  0.00     0.186 HD
HETATM    7  C1  UNL     1      20.329  -2.283   8.728  1.00  0.00     0.179 C 
HETATM    8  C5  UNL     1      20.738  -1.353   6.421  1.00  0.00     0.143 A 
HETATM    9  N6  UNL     1      19.413  -0.932   6.184  1.00  0.00    -0.080 NA
ENDBRANCH   1   2
BRANCH   1  10
HETATM   10  N3  UNL     1      21.164   0.700   4.343  1.00  0.00    -0.055 N 
ATOM     11  H33 UNL     1      21.602   1.395   3.739  1.00  0.00     0.276 HD
ATOM     12  H32 UNL     1      20.226   0.743   3.945  1.00  0.00     0.276 HD
ATOM     13  H31 UNL     1      21.186   0.964   5.327  1.00  0.00     0.276 HD
ENDBRANCH   1  10
BRANCH   1  14
HETATM   14  N4  UNL     1      23.096  -0.492   3.651  1.00  0.00    -0.110 NA
BRANCH  14  15
HETATM   15  N5  UNL     1      23.355  -1.399   2.651  1.00  0.00    -0.346 N 
ATOM     16  H52 UNL     1      22.820  -2.260   2.544  1.00  0.00     0.172 HD
ATOM     17  H51 UNL     1      24.125  -1.124   2.040  1.00  0.00     0.172 HD
ENDBRANCH  14  15
ENDBRANCH   1  14
TORSDOF 4
ENDMDL
MODEL 5
REMARK VINA RESULT: -4.945411859      1.569      4.712
REMARK  4 active torsions:
REMARK  status: ('A' for Active; 'I' for Inactive)
REMARK    1  A    between atoms: C3_6  and  C4_7 
REMARK    2  A    between atoms: C4_7  and  N3_8 
REMARK    3  A    between atoms: C4_7  and  N4_12 
REMARK    4  A    between atoms: N4_12  and  N5_13 
ROOT
HETATM    1  C4  UNL     1      22.492  -0.618   4.508  1.00  0.00     0.332 C 
ENDROOT
BRANCH   1   2
HETATM    2  C3  UNL     1      21.607  -1.044   5.622  1.00  0.00     0.049 A 
HETATM    3  C2  UNL     1      20.311  -0.727   5.907  1.00  0.00     0.121 A 
HETATM    4  N2  UNL     1      19.956  -1.383   7.045  1.00  0.00    -0.308 N 
HETATM    5  N1  UNL     1      20.965  -2.098   7.496  1.00  0.00    -0.283 N 
ATOM      6  H2  UNL     1      19.038  -1.327   7.487  1.00  0.00     0.186 HD
HETATM    7  C1  UNL     1      20.928  -2.921   8.692  1.00  0.00     0.179 C 
HETATM    8  C5  UNL     1      22.000  -1.915   6.644  1.00  0.00     0.143 A 
HETATM    9  N6  UNL     1      23.259  -2.530   6.808  1.00  0.00    -0.080 NA
ENDBRANCH   1   2
BRANCH   1  10
HETATM   10  N3  UNL     1      22.633  -1.730   3.588  1.00  0.00    -0.055 N 
ATOM     11  H33 UNL     1      22.998  -1.445   2.680  1.00  0.00     0.276 HD
ATOM     12  H32 UNL     1      23.390  -2.362   3.849  1.00  0.00     0.276 HD
ATOM     13  H31 UNL     1      21.732  -2.203   3.519  1.00  0.00     0.276 HD
ENDBRANCH   1  10
BRANCH   1  14
HETATM   14  N4  UNL     1      21.918   0.521   3.822  1.00  0.00    -0.110 NA
BRANCH  14  15
HETATM   15  N5  UNL     1      21.708   0.305   2.481  1.00  0.00    -0.346 N 
ATOM     16  H52 UNL     1      20.921   0.716   1.979  1.00  0.00     0.172 HD
ATOM     17  H51 UNL     1      22.409  -0.299   2.050  1.00  0.00     0.172 HD
ENDBRANCH  14  15
ENDBRANCH   1  14
TORSDOF 4
ENDMDL
