MODEL 1
REMARK VINA RESULT: -5.080117848      0.000      0.000
REMARK  4 active torsions:
REMARK  status: ('A' for Active; 'I' for Inactive)
REMARK    1  A    between atoms: C4_8  and  C5_9 
REMARK    2  A    between atoms: C5_9  and  C6_10 
REMARK    3  A    between atoms: C5_9  and  N4_14 
REMARK    4  A    between atoms: N4_14  and  N5_15 
ROOT
HETATM    1  C5  UNL     1      21.321  -1.424   7.142  1.00  0.00     0.161 C 
ENDROOT
BRANCH   1   2
HETATM    2  C4  UNL     1      21.362  -2.213   8.426  1.00  0.00     0.130 C 
HETATM    3  C2  UNL     1      20.550  -1.601   9.520  1.00  0.00     0.103 C 
HETATM    4  C1  UNL     1      21.383  -0.742  10.462  1.00  0.00     0.034 C 
HETATM    5  N1  UNL     1      20.083  -2.764  10.244  1.00  0.00    -0.380 N 
HETATM    6  C3  UNL     1      20.099  -3.831   9.305  1.00  0.00     0.172 C 
ATOM      7  H1  UNL     1      19.802  -2.808  11.223  1.00  0.00     0.160 HD
HETATM    8  N2  UNL     1      20.811  -3.531   8.289  1.00  0.00    -0.378 N 
ATOM      9  H2  UNL     1      20.967  -4.145   7.489  1.00  0.00     0.160 HD
ENDBRANCH   1   2
BRANCH   1  10
HETATM   10  C6  UNL     1      22.292  -1.935   6.141  1.00  0.00     0.078 C 
HETATM   11  N3  UNL     1      23.540  -1.648   6.162  1.00  0.00    -0.410 N 
ATOM     12  H32 UNL     1      23.867  -1.037   6.910  1.00  0.00     0.155 HD
ATOM     13  H31 UNL     1      24.207  -1.999   5.475  1.00  0.00     0.155 HD
ENDBRANCH   1  10
BRANCH   1  14
HETATM   14  N4  UNL     1      19.956  -1.507   6.626  1.00  0.00    -0.136 NA
BRANCH  14  15
HETATM   15  N5  UNL     1      19.570  -0.330   6.021  1.00  0.00    -0.348 N 
ATOM     16  H52 UNL     1      20.147   0.511   6.010  1.00  0.00     0.172 HD
ATOM     17  H51 UNL     1      18.647  -0.412   5.594  1.00  0.00     0.172 HD
ENDBRANCH  14  15
ENDBRANCH   1  14
TORSDOF 4
ENDMDL
MODEL 2
REMARK VINA RESULT: -4.475568981      4.121      6.653
REMARK  4 active torsions:
REMARK  status: ('A' for Active; 'I' for Inactive)
REMARK    1  A    between atoms: C4_8  and  C5_9 
REMARK    2  A    between atoms: C5_9  and  C6_10 
REMARK    3  A    between atoms: C5_9  and  N4_14 
REMARK    4  A    between atoms: N4_14  and  N5_15 
ROOT
HETATM    1  C5  UNL     1      22.015  -0.597   3.857  1.00  0.00     0.161 C 
ENDROOT
BRANCH   1   2
HETATM    2  C4  UNL     1      22.506  -0.201   2.488  1.00  0.00     0.130 C 
HETATM    3  C2  UNL     1      22.939  -1.366   1.658  1.00  0.00     0.103 C 
HETATM    4  C1  UNL     1      24.443  -1.602   1.715  1.00  0.00     0.034 C 
HETATM    5  N1  UNL     1      22.588  -0.938   0.321  1.00  0.00    -0.380 N 
HETATM    6  C3  UNL     1      21.542   0.011   0.485  1.00  0.00     0.172 C 
ATOM      7  H1  UNL     1      23.004  -1.251  -0.556  1.00  0.00     0.160 HD
HETATM    8  N2  UNL     1      21.491   0.427   1.691  1.00  0.00    -0.378 N 
ATOM      9  H2  UNL     1      20.820   1.112   2.040  1.00  0.00     0.160 HD
ENDBRANCH   1   2
BRANCH   1  10
HETATM   10  C6  UNL     1      23.069  -1.277   4.653  1.00  0.00     0.078 C 
HETATM   11  N3  UNL     1      22.907  -1.632   5.873  1.00  0.00    -0.410 N 
ATOM     12  H32 UNL     1      22.005  -1.431   6.304  1.00  0.00     0.155 HD
ATOM     13  H31 UNL     1      23.631  -2.100   6.419  1.00  0.00     0.155 HD
ENDBRANCH   1  10
BRANCH   1  14
HETATM   14  N4  UNL     1      21.571   0.624   4.528  1.00  0.00    -0.136 NA
BRANCH  14  15
HETATM   15  N5  UNL     1      20.253   0.535   4.923  1.00  0.00    -0.348 N 
ATOM     16  H52 UNL     1      19.764  -0.352   5.050  1.00  0.00     0.172 HD
ATOM     17  H51 UNL     1      19.842   1.457   5.070  1.00  0.00     0.172 HD
ENDBRANCH  14  15
ENDBRANCH   1  14
TORSDOF 4
ENDMDL
MODEL 3
REMARK VINA RESULT: -4.331439600      0.815      2.019
REMARK  4 active torsions:
REMARK  status: ('A' for Active; 'I' for Inactive)
REMARK    1  A    between atoms: C4_8  and  C5_9 
REMARK    2  A    between atoms: C5_9  and  C6_10 
REMARK    3  A    between atoms: C5_9  and  N4_14 
REMARK    4  A    between atoms: N4_14  and  N5_15 
ROOT
HETATM    1  C5  UNL     1      21.755  -2.114   7.158  1.00  0.00     0.161 C 
ENDROOT
BRANCH   1   2
HETATM    2  C4  UNL     1      21.441  -2.629   8.540  1.00  0.00     0.130 C 
HETATM    3  C2  UNL     1      20.603  -1.688   9.343  1.00  0.00     0.103 C 
HETATM    4  C1  UNL     1      21.432  -0.807  10.269  1.00  0.00     0.034 C 
HETATM    5  N1  UNL     1      19.812  -2.592  10.149  1.00  0.00    -0.380 N 
HETATM    6  C3  UNL     1      19.765  -3.813   9.422  1.00  0.00     0.172 C 
ATOM      7  H1  UNL     1      19.378  -2.395  11.051  1.00  0.00     0.160 HD
HETATM    8  N2  UNL     1      20.671  -3.841   8.523  1.00  0.00    -0.378 N 
ATOM      9  H2  UNL     1      20.827  -4.618   7.881  1.00  0.00     0.160 HD
ENDBRANCH   1   2
BRANCH   1  10
HETATM   10  C6  UNL     1      20.650  -1.289   6.606  1.00  0.00     0.078 C 
HETATM   11  N3  UNL     1      20.757  -0.604   5.528  1.00  0.00    -0.410 N 
ATOM     12  H32 UNL     1      21.650  -0.639   5.037  1.00  0.00     0.155 HD
ATOM     13  H31 UNL     1      19.998  -0.038   5.149  1.00  0.00     0.155 HD
ENDBRANCH   1  10
BRANCH   1  14
HETATM   14  N4  UNL     1      22.985  -1.331   7.256  1.00  0.00    -0.136 NA
BRANCH  14  15
HETATM   15  N5  UNL     1      23.942  -1.776   6.371  1.00  0.00    -0.348 N 
ATOM     16  H52 UNL     1      24.868  -1.356   6.286  1.00  0.00     0.172 HD
ATOM     17  H51 UNL     1      23.607  -2.569   5.823  1.00  0.00     0.172 HD
ENDBRANCH  14  15
ENDBRANCH   1  14
TORSDOF 4
ENDMDL
MODEL 4
REMARK VINA RESULT: -4.255494950      5.617      7.667
REMARK  4 active torsions:
REMARK  status: ('A' for Active; 'I' for Inactive)
REMARK    1  A    between atoms: C4_8  and  C5_9 
REMARK    2  A    between atoms: C5_9  and  C6_10 
REMARK    3  A    between atoms: C5_9  and  N4_14 
REMARK    4  A    between atoms: N4_14  and  N5_15 
ROOT
HETATM    1  C5  UNL     1      22.059  -0.362   2.720  1.00  0.00     0.161 C 
ENDROOT
BRANCH   1   2
HETATM    2  C4  UNL     1      21.909   0.370   1.411  1.00  0.00     0.130 C 
HETATM    3  C2  UNL     1      23.203   0.549   0.685  1.00  0.00     0.103 C 
HETATM    4  C1  UNL     1      23.837   1.910   0.940  1.00  0.00     0.034 C 
HETATM    5  N1  UNL     1      22.789   0.483  -0.701  1.00  0.00    -0.380 N 
HETATM    6  C3  UNL     1      21.581  -0.266  -0.705  1.00  0.00     0.172 C 
ATOM      7  H1  UNL     1      23.265   0.890  -1.506  1.00  0.00     0.160 HD
HETATM    8  N2  UNL     1      21.085  -0.334   0.469  1.00  0.00    -0.378 N 
ATOM      9  H2  UNL     1      20.220  -0.820   0.706  1.00  0.00     0.160 HD
ENDBRANCH   1   2
BRANCH   1  10
HETATM   10  C6  UNL     1      23.283  -1.202   2.754  1.00  0.00     0.078 C 
HETATM   11  N3  UNL     1      23.350  -2.367   2.225  1.00  0.00    -0.410 N 
ATOM     12  H32 UNL     1      22.513  -2.720   1.763  1.00  0.00     0.155 HD
ATOM     13  H31 UNL     1      24.192  -2.943   2.248  1.00  0.00     0.155 HD
ENDBRANCH   1  10
BRANCH   1  14
HETATM   14  N4  UNL     1      22.096   0.646   3.778  1.00  0.00    -0.136 NA
BRANCH  14  15
HETATM   15  N5  UNL     1      20.912   0.686   4.483  1.00  0.00    -0.348 N 
ATOM     16  H52 UNL     1      20.400   1.547   4.671  1.00  0.00     0.172 HD
ATOM     17  H51 UNL     1      20.623  -0.245   4.785  1.00  0.00     0.172 HD
ENDBRANCH  14  15
ENDBRANCH   1  14
TORSDOF 4
ENDMDL
MODEL 5
REMARK VINA RESULT: -4.192589334      5.021      7.605
REMARK  4 active torsions:
REMARK  status: ('A' for Active; 'I' for Inactive)
REMARK    1  A    between atoms: C4_8  and  C5_9 
REMARK    2  A    between atoms: C5_9  and  C6_10 
REMARK    3  A    between atoms: C5_9  and  N4_14 
REMARK    4  A    between atoms: N4_14  and  N5_15 
ROOT
HETATM    1  C5  UNL     1      22.205  -0.522   2.855  1.00  0.00     0.161 C 
ENDROOT
BRANCH   1   2
HETATM    2  C4  UNL     1      22.681  -0.130   1.479  1.00  0.00     0.130 C 
HETATM    3  C2  UNL     1      21.597  -0.162   0.450  1.00  0.00     0.103 C 
HETATM    4  C1  UNL     1      21.575  -1.464  -0.340  1.00  0.00     0.034 C 
HETATM    5  N1  UNL     1      21.986   0.912  -0.438  1.00  0.00    -0.380 N 
HETATM    6  C3  UNL     1      22.777   1.793   0.349  1.00  0.00     0.172 C 
ATOM      7  H1  UNL     1      21.744   1.015  -1.423  1.00  0.00     0.160 HD
HETATM    8  N2  UNL     1      23.168   1.219   1.419  1.00  0.00    -0.378 N 
ATOM      9  H2  UNL     1      23.748   1.658   2.135  1.00  0.00     0.160 HD
ENDBRANCH   1   2
BRANCH   1  10
HETATM   10  C6  UNL     1      23.155  -1.440   3.534  1.00  0.00     0.078 C 
HETATM   11  N3  UNL     1      23.303  -1.483   4.805  1.00  0.00    -0.410 N 
ATOM     12  H32 UNL     1      22.733  -0.849   5.365  1.00  0.00     0.155 HD
ATOM     13  H31 UNL     1      23.955  -2.114   5.272  1.00  0.00     0.155 HD
ENDBRANCH   1  10
BRANCH   1  14
HETATM   14  N4  UNL     1      22.042   0.711   3.624  1.00  0.00    -0.136 NA
BRANCH  14  15
HETATM   15  N5  UNL     1      20.850   0.723   4.317  1.00  0.00    -0.348 N 
ATOM     16  H52 UNL     1      19.998   1.155   3.960  1.00  0.00     0.172 HD
ATOM     17  H51 UNL     1      20.934   0.249   5.216  1.00  0.00     0.172 HD
ENDBRANCH  14  15
ENDBRANCH   1  14
TORSDOF 4
ENDMDL
