MODEL 1
REMARK VINA RESULT: -5.386822923      0.000      0.000
REMARK  5 active torsions:
REMARK  status: ('A' for Active; 'I' for Inactive)
REMARK    1  A    between atoms: N1_1  and  C1_4 
REMARK    2  A    between atoms: C2_10  and  C3_11 
REMARK    3  A    between atoms: C3_11  and  N4_12 
REMARK    4  A    between atoms: C3_11  and  N5_16 
REMARK    5  A    between atoms: N5_16  and  C4_18 
ROOT
HETATM    1  C1  UNL     1      21.902  -1.583   6.390  1.00  0.00     0.149 A 
HETATM    2  N2  UNL     1      21.422  -0.931   5.317  1.00  0.00    -0.224 N 
ATOM      3  H2  UNL     1      21.934  -0.698   4.466  1.00  0.00     0.198 HD
HETATM    4  O1  UNL     1      20.160  -0.650   5.577  1.00  0.00    -0.155 OA
HETATM    5  N3  UNL     1      19.828  -1.089   6.744  1.00  0.00    -0.238 N 
ATOM      6  H3  UNL     1      18.906  -0.994   7.169  1.00  0.00     0.196 HD
HETATM    7  C2  UNL     1      20.905  -1.700   7.323  1.00  0.00     0.129 A 
ENDROOT
BRANCH   7   8
HETATM    8  C3  UNL     1      20.990  -2.341   8.635  1.00  0.00     0.340 C 
BRANCH   8   9
HETATM    9  N4  UNL     1      20.371  -3.643   8.714  1.00  0.00    -0.052 N 
ATOM     10  H43 UNL     1      19.403  -3.593   8.398  1.00  0.00     0.277 HD
ATOM     11  H42 UNL     1      20.758  -4.262   8.002  1.00  0.00     0.277 HD
ATOM     12  H41 UNL     1      20.422  -4.085   9.632  1.00  0.00     0.277 HD
ENDBRANCH   8   9
BRANCH   8  13
HETATM   13  N5  UNL     1      20.293  -1.499   9.593  1.00  0.00    -0.336 N 
ATOM     14  H5  UNL     1      19.276  -1.516   9.661  1.00  0.00     0.164 HD
BRANCH  13  15
HETATM   15  C4  UNL     1      21.063  -0.659  10.427  1.00  0.00     0.350 C 
HETATM   16  O2  UNL     1      21.681  -1.147  11.407  1.00  0.00    -0.284 OA
ENDBRANCH  13  15
ENDBRANCH   8  13
ENDBRANCH   7   8
BRANCH   1  17
HETATM   17  N1  UNL     1      23.105  -2.014   6.498  1.00  0.00    -0.382 N 
ATOM     18  H12 UNL     1      23.548  -2.732   5.924  1.00  0.00     0.157 HD
ATOM     19  H11 UNL     1      23.777  -1.681   7.189  1.00  0.00     0.157 HD
ENDBRANCH   1  17
TORSDOF 5
ENDMDL
MODEL 2
REMARK VINA RESULT: -5.085772606      2.685      4.009
REMARK  5 active torsions:
REMARK  status: ('A' for Active; 'I' for Inactive)
REMARK    1  A    between atoms: N1_1  and  C1_4 
REMARK    2  A    between atoms: C2_10  and  C3_11 
REMARK    3  A    between atoms: C3_11  and  N4_12 
REMARK    4  A    between atoms: C3_11  and  N5_16 
REMARK    5  A    between atoms: N5_16  and  C4_18 
ROOT
HETATM    1  C1  UNL     1      21.705  -0.031   3.887  1.00  0.00     0.149 A 
HETATM    2  N2  UNL     1      21.807  -0.027   2.546  1.00  0.00    -0.224 N 
ATOM      3  H2  UNL     1      21.270   0.548   1.897  1.00  0.00     0.198 HD
HETATM    4  O1  UNL     1      22.734  -0.910   2.233  1.00  0.00    -0.155 OA
HETATM    5  N3  UNL     1      23.214  -1.461   3.297  1.00  0.00    -0.238 N 
ATOM      6  H3  UNL     1      23.943  -2.174   3.314  1.00  0.00     0.196 HD
HETATM    7  C2  UNL     1      22.594  -0.940   4.398  1.00  0.00     0.129 A 
ENDROOT
BRANCH   7   8
HETATM    8  C3  UNL     1      22.817  -1.265   5.806  1.00  0.00     0.340 C 
BRANCH   8   9
HETATM    9  N4  UNL     1      24.127  -1.794   6.105  1.00  0.00    -0.052 N 
ATOM     10  H43 UNL     1      24.082  -2.807   6.215  1.00  0.00     0.277 HD
ATOM     11  H42 UNL     1      24.729  -1.732   5.283  1.00  0.00     0.277 HD
ATOM     12  H41 UNL     1      24.586  -1.371   6.912  1.00  0.00     0.277 HD
ENDBRANCH   8   9
BRANCH   8  13
HETATM   13  N5  UNL     1      21.866  -2.294   6.188  1.00  0.00    -0.336 N 
ATOM     14  H5  UNL     1      21.941  -3.241   5.816  1.00  0.00     0.164 HD
BRANCH  13  15
HETATM   15  C4  UNL     1      20.834  -1.948   7.088  1.00  0.00     0.350 C 
HETATM   16  O2  UNL     1      19.854  -1.272   6.685  1.00  0.00    -0.284 OA
ENDBRANCH  13  15
ENDBRANCH   8  13
ENDBRANCH   7   8
BRANCH   1  17
HETATM   17  N1  UNL     1      20.895   0.706   4.555  1.00  0.00    -0.382 N 
ATOM     18  H12 UNL     1      20.993   1.705   4.738  1.00  0.00     0.157 HD
ATOM     19  H11 UNL     1      20.037   0.370   4.992  1.00  0.00     0.157 HD
ENDBRANCH   1  17
TORSDOF 5
ENDMDL
MODEL 3
REMARK VINA RESULT: -4.976142772      1.270      1.299
REMARK  5 active torsions:
REMARK  status: ('A' for Active; 'I' for Inactive)
REMARK    1  A    between atoms: N1_1  and  C1_4 
REMARK    2  A    between atoms: C2_10  and  C3_11 
REMARK    3  A    between atoms: C3_11  and  N4_12 
REMARK    4  A    between atoms: C3_11  and  N5_16 
REMARK    5  A    between atoms: N5_16  and  C4_18 
ROOT
HETATM    1  C1  UNL     1      21.560  -0.862   5.421  1.00  0.00     0.149 A 
HETATM    2  N2  UNL     1      20.847  -0.038   4.632  1.00  0.00    -0.224 N 
ATOM      3  H2  UNL     1      21.155   0.384   3.756  1.00  0.00     0.198 HD
HETATM    4  O1  UNL     1      19.672   0.118   5.211  1.00  0.00    -0.155 OA
HETATM    5  N3  UNL     1      19.613  -0.558   6.309  1.00  0.00    -0.238 N 
ATOM      6  H3  UNL     1      18.808  -0.598   6.933  1.00  0.00     0.196 HD
HETATM    7  C2  UNL     1      20.797  -1.213   6.504  1.00  0.00     0.129 A 
ENDROOT
BRANCH   7   8
HETATM    8  C3  UNL     1      21.178  -2.092   7.608  1.00  0.00     0.340 C 
BRANCH   8   9
HETATM    9  N4  UNL     1      21.070  -3.504   7.323  1.00  0.00    -0.052 N 
ATOM     10  H43 UNL     1      20.132  -3.838   7.545  1.00  0.00     0.277 HD
ATOM     11  H42 UNL     1      21.079  -3.662   6.315  1.00  0.00     0.277 HD
ATOM     12  H41 UNL     1      21.771  -4.088   7.779  1.00  0.00     0.277 HD
ENDBRANCH   8   9
BRANCH   8  13
HETATM   13  N5  UNL     1      20.281  -1.832   8.721  1.00  0.00    -0.336 N 
ATOM     14  H5  UNL     1      19.329  -1.504   8.561  1.00  0.00     0.164 HD
BRANCH  13  15
HETATM   15  C4  UNL     1      20.765  -2.046  10.031  1.00  0.00     0.350 C 
HETATM   16  O2  UNL     1      21.819  -2.706  10.208  1.00  0.00    -0.284 OA
ENDBRANCH  13  15
ENDBRANCH   8  13
ENDBRANCH   7   8
BRANCH   1  17
HETATM   17  N1  UNL     1      22.761  -1.240   5.175  1.00  0.00    -0.382 N 
ATOM     18  H12 UNL     1      23.124  -1.570   4.281  1.00  0.00     0.157 HD
ATOM     19  H11 UNL     1      23.512  -1.256   5.865  1.00  0.00     0.157 HD
ENDBRANCH   1  17
TORSDOF 5
ENDMDL
MODEL 4
REMARK VINA RESULT: -4.839987840      4.450      6.073
REMARK  5 active torsions:
REMARK  status: ('A' for Active; 'I' for Inactive)
REMARK    1  A    between atoms: N1_1  and  C1_4 
REMARK    2  A    between atoms: C2_10  and  C3_11 
REMARK    3  A    between atoms: C3_11  and  N4_12 
REMARK    4  A    between atoms: C3_11  and  N5_16 
REMARK    5  A    between atoms: N5_16  and  C4_18 
ROOT
HETATM    1  C1  UNL     1      22.533  -1.553   0.653  1.00  0.00     0.149 A 
HETATM    2  N2  UNL     1      21.829  -1.559  -0.492  1.00  0.00    -0.224 N 
ATOM      3  H2  UNL     1      21.961  -2.187  -1.285  1.00  0.00     0.198 HD
HETATM    4  O1  UNL     1      20.934  -0.595  -0.391  1.00  0.00    -0.155 OA
HETATM    5  N3  UNL     1      21.040   0.006   0.745  1.00  0.00    -0.238 N 
ATOM      6  H3  UNL     1      20.459   0.784   1.057  1.00  0.00     0.196 HD
HETATM    7  C2  UNL     1      22.053  -0.561   1.468  1.00  0.00     0.129 A 
ENDROOT
BRANCH   7   8
HETATM    8  C3  UNL     1      22.525  -0.206   2.805  1.00  0.00     0.340 C 
BRANCH   8   9
HETATM    9  N4  UNL     1      22.954  -1.324   3.613  1.00  0.00    -0.052 N 
ATOM     10  H43 UNL     1      23.375  -2.043   3.025  1.00  0.00     0.277 HD
ATOM     11  H42 UNL     1      23.762  -1.062   4.178  1.00  0.00     0.277 HD
ATOM     12  H41 UNL     1      22.226  -1.729   4.202  1.00  0.00     0.277 HD
ENDBRANCH   8   9
BRANCH   8  13
HETATM   13  N5  UNL     1      21.425   0.415   3.521  1.00  0.00    -0.336 N 
ATOM     14  H5  UNL     1      20.873   1.158   3.091  1.00  0.00     0.164 HD
BRANCH  13  15
HETATM   15  C4  UNL     1      21.139  -0.037   4.828  1.00  0.00     0.350 C 
HETATM   16  O2  UNL     1      19.947  -0.099   5.222  1.00  0.00    -0.284 OA
ENDBRANCH  13  15
ENDBRANCH   8  13
ENDBRANCH   7   8
BRANCH   1  17
HETATM   17  N1  UNL     1      23.498  -2.358   0.915  1.00  0.00    -0.382 N 
ATOM     18  H12 UNL     1      23.628  -2.894   1.773  1.00  0.00     0.157 HD
ATOM     19  H11 UNL     1      24.268  -2.560   0.277  1.00  0.00     0.157 HD
ENDBRANCH   1  17
TORSDOF 5
ENDMDL
MODEL 5
REMARK VINA RESULT: -4.704984215      4.029      6.731
REMARK  5 active torsions:
REMARK  status: ('A' for Active; 'I' for Inactive)
REMARK    1  A    between atoms: N1_1  and  C1_4 
REMARK    2  A    between atoms: C2_10  and  C3_11 
REMARK    3  A    between atoms: C3_11  and  N4_12 
REMARK    4  A    between atoms: C3_11  and  N5_16 
REMARK    5  A    between atoms: N5_16  and  C4_18 
ROOT
HETATM    1  C1  UNL     1      21.598  -0.129   4.415  1.00  0.00     0.149 A 
HETATM    2  N2  UNL     1      21.832  -0.998   5.414  1.00  0.00    -0.224 N 
ATOM      3  H2  UNL     1      21.363  -1.026   6.319  1.00  0.00     0.198 HD
HETATM    4  O1  UNL     1      22.784  -1.808   4.996  1.00  0.00    -0.155 OA
HETATM    5  N3  UNL     1      23.155  -1.495   3.800  1.00  0.00    -0.238 N 
ATOM      6  H3  UNL     1      23.876  -1.975   3.262  1.00  0.00     0.196 HD
HETATM    7  C2  UNL     1      22.430  -0.420   3.366  1.00  0.00     0.129 A 
ENDROOT
BRANCH   7   8
HETATM    8  C3  UNL     1      22.509   0.271   2.080  1.00  0.00     0.340 C 
BRANCH   8   9
HETATM    9  N4  UNL     1      21.322   0.170   1.264  1.00  0.00    -0.052 N 
ATOM     10  H43 UNL     1      20.918  -0.763   1.343  1.00  0.00     0.277 HD
ATOM     11  H42 UNL     1      20.567   0.724   1.669  1.00  0.00     0.277 HD
ATOM     12  H41 UNL     1      21.455   0.417   0.283  1.00  0.00     0.277 HD
ENDBRANCH   8   9
BRANCH   8  13
HETATM   13  N5  UNL     1      23.584  -0.332   1.311  1.00  0.00    -0.336 N 
ATOM     14  H5  UNL     1      24.549  -0.024   1.428  1.00  0.00     0.164 HD
BRANCH  13  15
HETATM   15  C4  UNL     1      23.256  -1.358   0.396  1.00  0.00     0.350 C 
HETATM   16  O2  UNL     1      23.120  -2.539   0.803  1.00  0.00    -0.284 OA
ENDBRANCH  13  15
ENDBRANCH   8  13
ENDBRANCH   7   8
BRANCH   1  17
HETATM   17  N1  UNL     1      20.729   0.815   4.464  1.00  0.00    -0.382 N 
ATOM     18  H12 UNL     1      19.800   0.765   4.882  1.00  0.00     0.157 HD
ATOM     19  H11 UNL     1      20.871   1.749   4.080  1.00  0.00     0.157 HD
ENDBRANCH   1  17
TORSDOF 5
ENDMDL
