MODEL 1
REMARK VINA RESULT: -10.318721708      0.000      0.000
REMARK  8 active torsions:
REMARK  status: ('A' for Active; 'I' for Inactive)
REMARK    1  A    between atoms: C1_4  and  N2_5 
REMARK    2  A    between atoms: C1_4  and  C3_17 
REMARK    3  A    between atoms: N2_5  and  N3_7 
REMARK       I    between atoms: N3_7  and  C2_8 
REMARK       I    between atoms: C2_8  and  N4_9 
REMARK       I    between atoms: C2_8  and  N5_13 
REMARK    4  A    between atoms: C4_22  and  S1_23 
REMARK    5  A    between atoms: S1_23  and  C5_24 
REMARK    6  A    between atoms: C5_24  and  C6_25 
REMARK    7  A    between atoms: C8_28  and  C9_29 
REMARK    8  A    between atoms: C12_32  and  O2_33 
ROOT
HETATM    1  C3  UNL     1      15.898  52.355  15.155  1.00  0.00     0.161 A 
HETATM    2  N6  UNL     1      15.334  52.147  16.381  1.00  0.00    -0.290 N 
ATOM      3  H6  UNL     1      14.427  52.574  16.574  1.00  0.00     0.187 HD
HETATM    4  N7  UNL     1      15.897  51.425  17.327  1.00  0.00    -0.279 N 
ATOM      5  H7  UNL     1      15.416  51.314  18.220  1.00  0.00     0.189 HD
HETATM    6  C4  UNL     1      17.099  50.826  17.146  1.00  0.00     0.162 A 
HETATM    7  N9  UNL     1      17.679  51.008  15.958  1.00  0.00    -0.301 N 
ATOM      8  H9  UNL     1      18.584  50.572  15.787  1.00  0.00     0.171 HD
HETATM    9  C15 UNL     1      17.115  51.754  14.960  1.00  0.00     0.279 A 
HETATM   10  O3  UNL     1      17.696  51.897  13.860  1.00  0.00    -0.265 OA
ENDROOT
BRANCH   1  11
HETATM   11  C1  UNL     1      15.226  53.161  14.156  1.00  0.00     0.145 C 
HETATM   12  N1  UNL     1      15.921  54.104  13.561  1.00  0.00    -0.383 N 
ATOM     13  H12 UNL     1      15.447  54.672  12.858  1.00  0.00     0.157 HD
ATOM     14  H11 UNL     1      16.893  54.200  13.854  1.00  0.00     0.157 HD
BRANCH  11  15
HETATM   15  N2  UNL     1      13.886  53.029  13.752  1.00  0.00    -0.284 N 
ATOM     16  H2  UNL     1      13.191  52.567  14.338  1.00  0.00     0.184 HD
BRANCH  15  17
HETATM   17  N3  UNL     1      13.553  53.575  12.484  1.00  0.00    -0.079 NA
HETATM   18  C2  UNL     1      12.129  53.822  12.410  1.00  0.00     0.490 C 
HETATM   19  N4  UNL     1      11.790  54.328  11.089  1.00  0.00    -0.035 N 
HETATM   20  N5  UNL     1      11.774  54.796  13.435  1.00  0.00    -0.035 N 
ATOM     21  H43 UNL     1      12.337  55.153  10.841  1.00  0.00     0.278 HD
ATOM     22  H42 UNL     1      12.113  53.709  10.346  1.00  0.00     0.278 HD
ATOM     23  H41 UNL     1      10.787  54.503  11.037  1.00  0.00     0.278 HD
ATOM     24  H53 UNL     1      12.074  54.510  14.367  1.00  0.00     0.278 HD
ATOM     25  H52 UNL     1      12.324  55.653  13.368  1.00  0.00     0.278 HD
ATOM     26  H51 UNL     1      10.770  54.970  13.383  1.00  0.00     0.278 HD
ENDBRANCH  15  17
ENDBRANCH  11  15
ENDBRANCH   1  11
BRANCH   6  27
HETATM   27  S1  UNL     1      17.779  49.886  18.480  1.00  0.00    -0.086 SA
BRANCH  27  28
HETATM   28  C5  UNL     1      16.646  49.517  19.806  1.00  0.00     0.141 C 
BRANCH  28  29
HETATM   29  C6  UNL     1      16.313  50.720  20.600  1.00  0.00     0.043 A 
HETATM   30  C7  UNL     1      15.100  51.351  20.713  1.00  0.00     0.170 A 
HETATM   31  O1  UNL     1      15.249  52.392  21.516  1.00  0.00    -0.303 OA
HETATM   32  C8  UNL     1      16.479  52.490  21.942  1.00  0.00     0.157 A 
HETATM   33  N8  UNL     1      17.146  51.462  21.383  1.00  0.00    -0.337 N 
ATOM     34  H8  UNL     1      18.137  51.267  21.525  1.00  0.00     0.168 HD
BRANCH  32  35
HETATM   35  C9  UNL     1      17.033  53.513  22.847  1.00  0.00     0.015 A 
HETATM   36  C10 UNL     1      17.987  53.199  23.788  1.00  0.00     0.018 A 
HETATM   37  C11 UNL     1      18.510  54.157  24.645  1.00  0.00     0.037 A 
HETATM   38  C12 UNL     1      18.056  55.450  24.542  1.00  0.00     0.065 A 
HETATM   39  C13 UNL     1      17.103  55.773  23.606  1.00  0.00     0.037 A 
HETATM   40  C14 UNL     1      16.581  54.799  22.746  1.00  0.00     0.018 A 
BRANCH  38  41
HETATM   41  O2  UNL     1      18.596  56.409  25.419  1.00  0.00    -0.361 OA
ATOM     42  H2  UNL     1      18.481  57.326  25.199  1.00  0.00     0.217 HD
ENDBRANCH  38  41
ENDBRANCH  32  35
ENDBRANCH  28  29
ENDBRANCH  27  28
ENDBRANCH   6  27
TORSDOF 8
ENDMDL
MODEL 2
REMARK VINA RESULT: -10.162231488      3.560      5.785
REMARK  8 active torsions:
REMARK  status: ('A' for Active; 'I' for Inactive)
REMARK    1  A    between atoms: C1_4  and  N2_5 
REMARK    2  A    between atoms: C1_4  and  C3_17 
REMARK    3  A    between atoms: N2_5  and  N3_7 
REMARK       I    between atoms: N3_7  and  C2_8 
REMARK       I    between atoms: C2_8  and  N4_9 
REMARK       I    between atoms: C2_8  and  N5_13 
REMARK    4  A    between atoms: C4_22  and  S1_23 
REMARK    5  A    between atoms: S1_23  and  C5_24 
REMARK    6  A    between atoms: C5_24  and  C6_25 
REMARK    7  A    between atoms: C8_28  and  C9_29 
REMARK    8  A    between atoms: C12_32  and  O2_33 
ROOT
HETATM    1  C3  UNL     1      17.840  50.070  16.919  1.00  0.00     0.161 A 
HETATM    2  N6  UNL     1      17.784  49.561  18.185  1.00  0.00    -0.290 N 
ATOM      3  H6  UNL     1      18.490  48.880  18.463  1.00  0.00     0.187 HD
HETATM    4  N7  UNL     1      16.866  49.902  19.066  1.00  0.00    -0.279 N 
ATOM      5  H7  UNL     1      16.887  49.479  19.994  1.00  0.00     0.189 HD
HETATM    6  C4  UNL     1      15.895  50.800  18.771  1.00  0.00     0.162 A 
HETATM    7  N9  UNL     1      15.920  51.318  17.542  1.00  0.00    -0.301 N 
ATOM      8  H9  UNL     1      15.205  51.998  17.286  1.00  0.00     0.171 HD
HETATM    9  C15 UNL     1      16.862  50.980  16.609  1.00  0.00     0.279 A 
HETATM   10  O3  UNL     1      16.846  51.494  15.467  1.00  0.00    -0.265 OA
ENDROOT
BRANCH   1  11
HETATM   11  C1  UNL     1      18.876  49.653  15.997  1.00  0.00     0.145 C 
HETATM   12  N1  UNL     1      19.532  50.589  15.349  1.00  0.00    -0.383 N 
ATOM     13  H12 UNL     1      20.262  50.296  14.700  1.00  0.00     0.157 HD
ATOM     14  H11 UNL     1      19.256  51.552  15.546  1.00  0.00     0.157 HD
BRANCH  11  15
HETATM   15  N2  UNL     1      19.257  48.328  15.726  1.00  0.00    -0.284 N 
ATOM     16  H2  UNL     1      18.569  47.583  15.615  1.00  0.00     0.184 HD
BRANCH  15  17
HETATM   17  N3  UNL     1      20.652  48.083  15.613  1.00  0.00    -0.079 NA
HETATM   18  C2  UNL     1      21.120  47.346  16.766  1.00  0.00     0.490 C 
HETATM   19  N4  UNL     1      22.557  47.149  16.669  1.00  0.00    -0.035 N 
HETATM   20  N5  UNL     1      20.432  46.061  16.806  1.00  0.00    -0.035 N 
ATOM     21  H43 UNL     1      22.826  46.702  15.792  1.00  0.00     0.278 HD
ATOM     22  H42 UNL     1      23.058  48.029  16.545  1.00  0.00     0.278 HD
ATOM     23  H41 UNL     1      22.887  46.629  17.482  1.00  0.00     0.278 HD
ATOM     24  H53 UNL     1      19.417  46.160  16.790  1.00  0.00     0.278 HD
ATOM     25  H52 UNL     1      20.534  45.536  15.938  1.00  0.00     0.278 HD
ATOM     26  H51 UNL     1      20.762  45.542  17.619  1.00  0.00     0.278 HD
ENDBRANCH  15  17
ENDBRANCH  11  15
ENDBRANCH   1  11
BRANCH   6  27
HETATM   27  S1  UNL     1      14.701  51.186  20.018  1.00  0.00    -0.086 SA
BRANCH  27  28
HETATM   28  C5  UNL     1      15.308  51.139  21.693  1.00  0.00     0.141 C 
BRANCH  28  29
HETATM   29  C6  UNL     1      15.725  52.476  22.168  1.00  0.00     0.043 A 
HETATM   30  C7  UNL     1      16.961  53.063  22.069  1.00  0.00     0.170 A 
HETATM   31  O1  UNL     1      16.898  54.258  22.633  1.00  0.00    -0.303 OA
HETATM   32  C8  UNL     1      15.704  54.499  23.098  1.00  0.00     0.157 A 
HETATM   33  N8  UNL     1      14.969  53.406  22.818  1.00  0.00    -0.337 N 
ATOM     34  H8  UNL     1      13.985  53.290  23.058  1.00  0.00     0.168 HD
BRANCH  32  35
HETATM   35  C9  UNL     1      15.243  55.717  23.792  1.00  0.00     0.015 A 
HETATM   36  C10 UNL     1      14.580  55.651  24.995  1.00  0.00     0.018 A 
HETATM   37  C11 UNL     1      14.142  56.792  25.652  1.00  0.00     0.037 A 
HETATM   38  C12 UNL     1      14.384  58.017  25.074  1.00  0.00     0.065 A 
HETATM   39  C13 UNL     1      15.046  58.093  23.872  1.00  0.00     0.037 A 
HETATM   40  C14 UNL     1      15.483  56.934  23.218  1.00  0.00     0.018 A 
BRANCH  38  41
HETATM   41  O2  UNL     1      13.933  59.164  25.752  1.00  0.00    -0.361 OA
ATOM     42  H2  UNL     1      14.160  59.256  26.670  1.00  0.00     0.217 HD
ENDBRANCH  38  41
ENDBRANCH  32  35
ENDBRANCH  28  29
ENDBRANCH  27  28
ENDBRANCH   6  27
TORSDOF 8
ENDMDL
MODEL 3
REMARK VINA RESULT: -10.134199541      3.653      5.756
REMARK  8 active torsions:
REMARK  status: ('A' for Active; 'I' for Inactive)
REMARK    1  A    between atoms: C1_4  and  N2_5 
REMARK    2  A    between atoms: C1_4  and  C3_17 
REMARK    3  A    between atoms: N2_5  and  N3_7 
REMARK       I    between atoms: N3_7  and  C2_8 
REMARK       I    between atoms: C2_8  and  N4_9 
REMARK       I    between atoms: C2_8  and  N5_13 
REMARK    4  A    between atoms: C4_22  and  S1_23 
REMARK    5  A    between atoms: S1_23  and  C5_24 
REMARK    6  A    between atoms: C5_24  and  C6_25 
REMARK    7  A    between atoms: C8_28  and  C9_29 
REMARK    8  A    between atoms: C12_32  and  O2_33 
ROOT
HETATM    1  C3  UNL     1      17.878  50.038  16.911  1.00  0.00     0.161 A 
HETATM    2  N6  UNL     1      17.876  49.558  18.188  1.00  0.00    -0.290 N 
ATOM      3  H6  UNL     1      18.601  48.890  18.454  1.00  0.00     0.187 HD
HETATM    4  N7  UNL     1      16.991  49.909  19.097  1.00  0.00    -0.279 N 
ATOM      5  H7  UNL     1      17.052  49.508  20.033  1.00  0.00     0.189 HD
HETATM    6  C4  UNL     1      15.999  50.791  18.821  1.00  0.00     0.162 A 
HETATM    7  N9  UNL     1      15.971  51.281  17.580  1.00  0.00    -0.301 N 
ATOM      8  H9  UNL     1      15.238  51.948  17.337  1.00  0.00     0.171 HD
HETATM    9  C15 UNL     1      16.879  50.932  16.619  1.00  0.00     0.279 A 
HETATM   10  O3  UNL     1      16.813  51.419  15.467  1.00  0.00    -0.265 OA
ENDROOT
BRANCH   1  11
HETATM   11  C1  UNL     1      18.882  49.611  15.958  1.00  0.00     0.145 C 
HETATM   12  N1  UNL     1      19.473  50.536  15.235  1.00  0.00    -0.383 N 
ATOM     13  H12 UNL     1      20.180  50.235  14.564  1.00  0.00     0.157 HD
ATOM     14  H11 UNL     1      19.174  51.497  15.401  1.00  0.00     0.157 HD
BRANCH  11  15
HETATM   15  N2  UNL     1      19.294  48.287  15.730  1.00  0.00    -0.284 N 
ATOM     16  H2  UNL     1      18.625  47.521  15.653  1.00  0.00     0.184 HD
BRANCH  15  17
HETATM   17  N3  UNL     1      20.694  48.074  15.610  1.00  0.00    -0.079 NA
HETATM   18  C2  UNL     1      21.192  47.388  16.782  1.00  0.00     0.490 C 
HETATM   19  N4  UNL     1      22.633  47.225  16.676  1.00  0.00    -0.035 N 
HETATM   20  N5  UNL     1      20.538  46.089  16.872  1.00  0.00    -0.035 N 
ATOM     21  H43 UNL     1      22.905  46.756  15.811  1.00  0.00     0.278 HD
ATOM     22  H42 UNL     1      23.110  48.113  16.517  1.00  0.00     0.278 HD
ATOM     23  H41 UNL     1      22.984  46.741  17.502  1.00  0.00     0.278 HD
ATOM     24  H53 UNL     1      19.520  46.161  16.864  1.00  0.00     0.278 HD
ATOM     25  H52 UNL     1      20.645  45.537  16.020  1.00  0.00     0.278 HD
ATOM     26  H51 UNL     1      20.889  45.605  17.698  1.00  0.00     0.278 HD
ENDBRANCH  15  17
ENDBRANCH  11  15
ENDBRANCH   1  11
BRANCH   6  27
HETATM   27  S1  UNL     1      14.850  51.193  20.104  1.00  0.00    -0.086 SA
BRANCH  27  28
HETATM   28  C5  UNL     1      15.461  50.981  21.765  1.00  0.00     0.141 C 
BRANCH  28  29
HETATM   29  C6  UNL     1      15.166  52.152  22.618  1.00  0.00     0.043 A 
HETATM   30  C7  UNL     1      14.423  52.195  23.770  1.00  0.00     0.170 A 
HETATM   31  O1  UNL     1      14.405  53.445  24.205  1.00  0.00    -0.303 OA
HETATM   32  C8  UNL     1      15.087  54.230  23.417  1.00  0.00     0.157 A 
HETATM   33  N8  UNL     1      15.562  53.444  22.432  1.00  0.00    -0.337 N 
ATOM     34  H8  UNL     1      16.138  53.769  21.656  1.00  0.00     0.168 HD
BRANCH  32  35
HETATM   35  C9  UNL     1      15.298  55.681  23.566  1.00  0.00     0.015 A 
HETATM   36  C10 UNL     1      14.363  56.485  24.176  1.00  0.00     0.018 A 
HETATM   37  C11 UNL     1      14.555  57.852  24.317  1.00  0.00     0.037 A 
HETATM   38  C12 UNL     1      15.715  58.407  23.830  1.00  0.00     0.065 A 
HETATM   39  C13 UNL     1      16.655  57.612  23.219  1.00  0.00     0.037 A 
HETATM   40  C14 UNL     1      16.451  56.234  23.081  1.00  0.00     0.018 A 
BRANCH  38  41
HETATM   41  O2  UNL     1      15.894  59.794  23.980  1.00  0.00    -0.361 OA
ATOM     42  H2  UNL     1      15.495  60.367  23.335  1.00  0.00     0.217 HD
ENDBRANCH  38  41
ENDBRANCH  32  35
ENDBRANCH  28  29
ENDBRANCH  27  28
ENDBRANCH   6  27
TORSDOF 8
ENDMDL
MODEL 4
REMARK VINA RESULT: -10.035758884      4.473      6.040
REMARK  8 active torsions:
REMARK  status: ('A' for Active; 'I' for Inactive)
REMARK    1  A    between atoms: C1_4  and  N2_5 
REMARK    2  A    between atoms: C1_4  and  C3_17 
REMARK    3  A    between atoms: N2_5  and  N3_7 
REMARK       I    between atoms: N3_7  and  C2_8 
REMARK       I    between atoms: C2_8  and  N4_9 
REMARK       I    between atoms: C2_8  and  N5_13 
REMARK    4  A    between atoms: C4_22  and  S1_23 
REMARK    5  A    between atoms: S1_23  and  C5_24 
REMARK    6  A    between atoms: C5_24  and  C6_25 
REMARK    7  A    between atoms: C8_28  and  C9_29 
REMARK    8  A    between atoms: C12_32  and  O2_33 
ROOT
HETATM    1  C3  UNL     1      18.567  49.763  17.425  1.00  0.00     0.161 A 
HETATM    2  N6  UNL     1      17.232  49.501  17.540  1.00  0.00    -0.290 N 
ATOM      3  H6  UNL     1      16.725  49.203  16.706  1.00  0.00     0.187 HD
HETATM    4  N7  UNL     1      16.564  49.612  18.669  1.00  0.00    -0.279 N 
ATOM      5  H7  UNL     1      15.566  49.399  18.679  1.00  0.00     0.189 HD
HETATM    6  C4  UNL     1      17.168  50.001  19.818  1.00  0.00     0.162 A 
HETATM    7  N9  UNL     1      18.473  50.264  19.742  1.00  0.00    -0.301 N 
ATOM      8  H9  UNL     1      18.960  50.560  20.588  1.00  0.00     0.171 HD
HETATM    9  C15 UNL     1      19.189  50.157  18.581  1.00  0.00     0.279 A 
HETATM   10  O3  UNL     1      20.414  50.415  18.557  1.00  0.00    -0.265 OA
ENDROOT
BRANCH   1  11
HETATM   11  C1  UNL     1      19.244  49.621  16.152  1.00  0.00     0.145 C 
HETATM   12  N1  UNL     1      19.517  50.716  15.478  1.00  0.00    -0.383 N 
ATOM     13  H12 UNL     1      19.994  50.616  14.582  1.00  0.00     0.157 HD
ATOM     14  H11 UNL     1      19.226  51.594  15.908  1.00  0.00     0.157 HD
BRANCH  11  15
HETATM   15  N2  UNL     1      19.645  48.411  15.559  1.00  0.00    -0.284 N 
ATOM     16  H2  UNL     1      18.971  47.757  15.163  1.00  0.00     0.184 HD
BRANCH  15  17
HETATM   17  N3  UNL     1      21.042  48.151  15.540  1.00  0.00    -0.079 NA
HETATM   18  C2  UNL     1      21.441  47.503  16.770  1.00  0.00     0.490 C 
HETATM   19  N4  UNL     1      22.880  47.292  16.766  1.00  0.00    -0.035 N 
HETATM   20  N5  UNL     1      20.740  46.229  16.872  1.00  0.00    -0.035 N 
ATOM     21  H43 UNL     1      23.191  46.778  15.941  1.00  0.00     0.278 HD
ATOM     22  H42 UNL     1      23.395  48.157  16.601  1.00  0.00     0.278 HD
ATOM     23  H41 UNL     1      23.161  46.835  17.633  1.00  0.00     0.278 HD
ATOM     24  H53 UNL     1      19.728  46.332  16.794  1.00  0.00     0.278 HD
ATOM     25  H52 UNL     1      20.883  45.638  16.053  1.00  0.00     0.278 HD
ATOM     26  H51 UNL     1      21.021  45.772  17.739  1.00  0.00     0.278 HD
ENDBRANCH  15  17
ENDBRANCH  11  15
ENDBRANCH   1  11
BRANCH   6  27
HETATM   27  S1  UNL     1      16.184  50.130  21.282  1.00  0.00    -0.086 SA
BRANCH  27  28
HETATM   28  C5  UNL     1      14.964  51.430  21.266  1.00  0.00     0.141 C 
BRANCH  28  29
HETATM   29  C6  UNL     1      15.430  52.636  21.984  1.00  0.00     0.043 A 
HETATM   30  C7  UNL     1      16.694  53.169  22.014  1.00  0.00     0.170 A 
HETATM   31  O1  UNL     1      16.671  54.244  22.785  1.00  0.00    -0.303 OA
HETATM   32  C8  UNL     1      15.477  54.457  23.265  1.00  0.00     0.157 A 
HETATM   33  N8  UNL     1      14.700  53.471  22.777  1.00  0.00    -0.337 N 
ATOM     34  H8  UNL     1      13.706  53.363  22.975  1.00  0.00     0.168 HD
BRANCH  32  35
HETATM   35  C9  UNL     1      15.055  55.551  24.160  1.00  0.00     0.015 A 
HETATM   36  C10 UNL     1      14.662  55.308  25.456  1.00  0.00     0.018 A 
HETATM   37  C11 UNL     1      14.262  56.333  26.302  1.00  0.00     0.037 A 
HETATM   38  C12 UNL     1      14.262  57.621  25.821  1.00  0.00     0.065 A 
HETATM   39  C13 UNL     1      14.652  57.873  24.527  1.00  0.00     0.037 A 
HETATM   40  C14 UNL     1      15.054  56.832  23.681  1.00  0.00     0.018 A 
BRANCH  38  41
HETATM   41  O2  UNL     1      13.853  58.648  26.691  1.00  0.00    -0.361 OA
ATOM     42  H2  UNL     1      14.517  59.070  27.224  1.00  0.00     0.217 HD
ENDBRANCH  38  41
ENDBRANCH  32  35
ENDBRANCH  28  29
ENDBRANCH  27  28
ENDBRANCH   6  27
TORSDOF 8
ENDMDL
MODEL 5
REMARK VINA RESULT: -9.901977608      3.996      5.827
REMARK  8 active torsions:
REMARK  status: ('A' for Active; 'I' for Inactive)
REMARK    1  A    between atoms: C1_4  and  N2_5 
REMARK    2  A    between atoms: C1_4  and  C3_17 
REMARK    3  A    between atoms: N2_5  and  N3_7 
REMARK       I    between atoms: N3_7  and  C2_8 
REMARK       I    between atoms: C2_8  and  N4_9 
REMARK       I    between atoms: C2_8  and  N5_13 
REMARK    4  A    between atoms: C4_22  and  S1_23 
REMARK    5  A    between atoms: S1_23  and  C5_24 
REMARK    6  A    between atoms: C5_24  and  C6_25 
REMARK    7  A    between atoms: C8_28  and  C9_29 
REMARK    8  A    between atoms: C12_32  and  O2_33 
ROOT
HETATM    1  C3  UNL     1      18.047  50.129  17.014  1.00  0.00     0.161 A 
HETATM    2  N6  UNL     1      16.874  50.758  16.713  1.00  0.00    -0.290 N 
ATOM      3  H6  UNL     1      16.667  50.953  15.733  1.00  0.00     0.187 HD
HETATM    4  N7  UNL     1      15.993  51.127  17.621  1.00  0.00    -0.279 N 
ATOM      5  H7  UNL     1      15.137  51.594  17.322  1.00  0.00     0.189 HD
HETATM    6  C4  UNL     1      16.196  50.902  18.942  1.00  0.00     0.162 A 
HETATM    7  N9  UNL     1      17.334  50.288  19.271  1.00  0.00    -0.301 N 
ATOM      8  H9  UNL     1      17.519  50.103  20.256  1.00  0.00     0.171 HD
HETATM    9  C15 UNL     1      18.264  49.896  18.347  1.00  0.00     0.279 A 
HETATM   10  O3  UNL     1      19.318  49.322  18.703  1.00  0.00    -0.265 OA
ENDROOT
BRANCH   1  11
HETATM   11  C1  UNL     1      18.974  49.749  15.967  1.00  0.00     0.145 C 
HETATM   12  N1  UNL     1      19.486  50.706  15.224  1.00  0.00    -0.383 N 
ATOM     13  H12 UNL     1      20.138  50.439  14.488  1.00  0.00     0.157 HD
ATOM     14  H11 UNL     1      19.185  51.656  15.444  1.00  0.00     0.157 HD
BRANCH  11  15
HETATM   15  N2  UNL     1      19.389  48.441  15.665  1.00  0.00    -0.284 N 
ATOM     16  H2  UNL     1      18.720  47.686  15.517  1.00  0.00     0.184 HD
BRANCH  15  17
HETATM   17  N3  UNL     1      20.791  48.228  15.576  1.00  0.00    -0.079 NA
HETATM   18  C2  UNL     1      21.257  47.508  16.740  1.00  0.00     0.490 C 
HETATM   19  N4  UNL     1      22.700  47.344  16.667  1.00  0.00    -0.035 N 
HETATM   20  N5  UNL     1      20.599  46.208  16.775  1.00  0.00    -0.035 N 
ATOM     21  H43 UNL     1      22.994  46.900  15.797  1.00  0.00     0.278 HD
ATOM     22  H42 UNL     1      23.182  48.236  16.546  1.00  0.00     0.278 HD
ATOM     23  H41 UNL     1      23.029  46.836  17.488  1.00  0.00     0.278 HD
ATOM     24  H53 UNL     1      19.582  46.283  16.742  1.00  0.00     0.278 HD
ATOM     25  H52 UNL     1      20.728  45.681  15.911  1.00  0.00     0.278 HD
ATOM     26  H51 UNL     1      20.928  45.700  17.596  1.00  0.00     0.278 HD
ENDBRANCH  15  17
ENDBRANCH  11  15
ENDBRANCH   1  11
BRANCH   6  27
HETATM   27  S1  UNL     1      14.960  51.444  20.086  1.00  0.00    -0.086 SA
BRANCH  27  28
HETATM   28  C5  UNL     1      15.279  51.047  21.794  1.00  0.00     0.141 C 
BRANCH  28  29
HETATM   29  C6  UNL     1      15.076  52.212  22.681  1.00  0.00     0.043 A 
HETATM   30  C7  UNL     1      14.467  52.245  23.910  1.00  0.00     0.170 A 
HETATM   31  O1  UNL     1      14.492  53.493  24.350  1.00  0.00    -0.303 OA
HETATM   32  C8  UNL     1      15.077  54.285  23.495  1.00  0.00     0.157 A 
HETATM   33  N8  UNL     1      15.443  53.506  22.459  1.00  0.00    -0.337 N 
ATOM     34  H8  UNL     1      15.926  53.838  21.625  1.00  0.00     0.168 HD
BRANCH  32  35
HETATM   35  C9  UNL     1      15.297  55.737  23.627  1.00  0.00     0.015 A 
HETATM   36  C10 UNL     1      16.424  56.342  23.121  1.00  0.00     0.018 A 
HETATM   37  C11 UNL     1      16.638  57.708  23.244  1.00  0.00     0.037 A 
HETATM   38  C12 UNL     1      15.692  58.466  23.892  1.00  0.00     0.065 A 
HETATM   39  C13 UNL     1      14.563  57.870  24.402  1.00  0.00     0.037 A 
HETATM   40  C14 UNL     1      14.356  56.491  24.272  1.00  0.00     0.018 A 
BRANCH  38  41
HETATM   41  O2  UNL     1      15.923  59.849  24.010  1.00  0.00    -0.361 OA
ATOM     42  H2  UNL     1      15.170  60.419  24.108  1.00  0.00     0.217 HD
ENDBRANCH  38  41
ENDBRANCH  32  35
ENDBRANCH  28  29
ENDBRANCH  27  28
ENDBRANCH   6  27
TORSDOF 8
ENDMDL
