MODEL 1
REMARK VINA RESULT: -8.471370555      0.000      0.000
REMARK  9 active torsions:
REMARK  status: ('A' for Active; 'I' for Inactive)
REMARK    1  A    between atoms: C3_10  and  S1_11 
REMARK    2  A    between atoms: S1_11  and  C4_12 
REMARK    3  A    between atoms: C4_12  and  C5_13 
REMARK    4  A    between atoms: C7_18  and  N6_19 
REMARK    5  A    between atoms: C10_28  and  S2_29 
REMARK    6  A    between atoms: S2_29  and  C11_30 
REMARK    7  A    between atoms: C11_30  and  C12_31 
REMARK    8  A    between atoms: C12_31  and  C13_32 
REMARK    9  A    between atoms: C13_32  and  O3_33 
ROOT
HETATM    1  N1  UNL     1      18.176  52.992  13.912  1.00  0.00    -0.234 N 
ATOM      2  H11 UNL     1      18.969  52.953  13.272  1.00  0.00     0.174 HD
ATOM      3  H12 UNL     1      17.332  53.498  13.643  1.00  0.00     0.174 HD
HETATM    4  C1  UNL     1      18.213  52.350  15.030  1.00  0.00     0.678 A 
HETATM    5  N2  UNL     1      17.148  52.404  15.889  1.00  0.00    -0.174 N 
ATOM      6  H2  UNL     1      16.304  52.908  15.618  1.00  0.00     0.186 HD
HETATM    7  C2  UNL     1      17.205  51.804  17.073  1.00  0.00     0.160 A 
HETATM    8  N3  UNL     1      16.379  51.669  18.165  1.00  0.00    -0.314 N 
ATOM      9  H3  UNL     1      15.437  52.053  18.247  1.00  0.00     0.170 HD
HETATM   10  C3  UNL     1      17.023  50.937  19.121  1.00  0.00     0.189 A 
HETATM   11  O2  UNL     1      18.183  50.637  18.641  1.00  0.00    -0.281 OA
HETATM   12  C9  UNL     1      18.333  51.129  17.443  1.00  0.00     0.157 A 
HETATM   13  C10 UNL     1      19.427  51.066  16.557  1.00  0.00     0.124 A 
HETATM   14  N8  UNL     1      19.312  51.692  15.381  1.00  0.00    -0.183 N 
ATOM     15  H8  UNL     1      20.096  51.663  14.730  1.00  0.00     0.185 HD
ENDROOT
BRANCH  10  16
HETATM   16  S1  UNL     1      16.292  50.525  20.719  1.00  0.00    -0.081 SA
BRANCH  16  17
HETATM   17  C4  UNL     1      14.886  51.761  20.823  1.00  0.00     0.130 C 
BRANCH  17  18
HETATM   18  C5  UNL     1      15.262  52.811  21.764  1.00  0.00     0.062 A 
HETATM   19  C6  UNL     1      15.950  53.919  21.238  1.00  0.00     0.144 A 
HETATM   20  N4  UNL     1      16.032  54.032  19.836  1.00  0.00    -0.081 NA
HETATM   21  N5  UNL     1      16.422  54.863  22.085  1.00  0.00    -0.178 N 
HETATM   22  C7  UNL     1      16.266  54.797  23.390  1.00  0.00     0.680 A 
ATOM     23  H5  UNL     1      16.921  55.663  21.693  1.00  0.00     0.185 HD
HETATM   24  N7  UNL     1      15.610  53.736  23.895  1.00  0.00    -0.156 N 
HETATM   25  C8  UNL     1      15.115  52.762  23.115  1.00  0.00     0.270 A 
ATOM     26  H7  UNL     1      15.484  53.669  24.905  1.00  0.00     0.187 HD
HETATM   27  O1  UNL     1      14.493  51.774  23.622  1.00  0.00    -0.267 OA
BRANCH  22  28
HETATM   28  N6  UNL     1      16.657  55.725  24.208  1.00  0.00    -0.234 N 
ATOM     29  H62 UNL     1      16.034  55.994  24.969  1.00  0.00     0.174 HD
ATOM     30  H61 UNL     1      17.535  56.236  24.105  1.00  0.00     0.174 HD
ENDBRANCH  22  28
ENDBRANCH  17  18
ENDBRANCH  16  17
ENDBRANCH  10  16
BRANCH  13  31
HETATM   31  S2  UNL     1      20.843  50.134  17.098  1.00  0.00    -0.109 SA
BRANCH  31  32
HETATM   32  C11 UNL     1      20.553  48.372  16.925  1.00  0.00     0.083 C 
BRANCH  32  33
HETATM   33  C12 UNL     1      21.725  47.470  17.027  1.00  0.00     0.036 C 
BRANCH  33  34
HETATM   34  C13 UNL     1      22.963  48.394  17.096  1.00  0.00     0.165 C 
BRANCH  34  35
HETATM   35  O3  UNL     1      24.100  47.774  16.608  1.00  0.00    -0.401 OA
ATOM     36  H3  UNL     1      24.880  48.034  17.086  1.00  0.00     0.209 HD
ENDBRANCH  34  35
ENDBRANCH  33  34
ENDBRANCH  32  33
ENDBRANCH  31  32
ENDBRANCH  13  31
TORSDOF 9
ENDMDL
MODEL 2
REMARK VINA RESULT: -8.471182567      0.941      1.091
REMARK  9 active torsions:
REMARK  status: ('A' for Active; 'I' for Inactive)
REMARK    1  A    between atoms: C3_10  and  S1_11 
REMARK    2  A    between atoms: S1_11  and  C4_12 
REMARK    3  A    between atoms: C4_12  and  C5_13 
REMARK    4  A    between atoms: C7_18  and  N6_19 
REMARK    5  A    between atoms: C10_28  and  S2_29 
REMARK    6  A    between atoms: S2_29  and  C11_30 
REMARK    7  A    between atoms: C11_30  and  C12_31 
REMARK    8  A    between atoms: C12_31  and  C13_32 
REMARK    9  A    between atoms: C13_32  and  O3_33 
ROOT
HETATM    1  N1  UNL     1      18.254  53.053  13.928  1.00  0.00    -0.234 N 
ATOM      2  H11 UNL     1      19.036  52.978  13.278  1.00  0.00     0.174 HD
ATOM      3  H12 UNL     1      17.443  53.620  13.683  1.00  0.00     0.174 HD
HETATM    4  C1  UNL     1      18.260  52.380  15.029  1.00  0.00     0.678 A 
HETATM    5  N2  UNL     1      17.210  52.482  15.903  1.00  0.00    -0.174 N 
ATOM      6  H2  UNL     1      16.399  53.048  15.655  1.00  0.00     0.186 HD
HETATM    7  C2  UNL     1      17.240  51.848  17.069  1.00  0.00     0.160 A 
HETATM    8  N3  UNL     1      16.418  51.739  18.168  1.00  0.00    -0.314 N 
ATOM      9  H3  UNL     1      15.506  52.182  18.272  1.00  0.00     0.170 HD
HETATM   10  C3  UNL     1      17.023  50.941  19.096  1.00  0.00     0.189 A 
HETATM   11  O2  UNL     1      18.155  50.577  18.594  1.00  0.00    -0.281 OA
HETATM   12  C9  UNL     1      18.324  51.090  17.408  1.00  0.00     0.157 A 
HETATM   13  C10 UNL     1      19.402  50.978  16.507  1.00  0.00     0.124 A 
HETATM   14  N8  UNL     1      19.316  51.642  15.349  1.00  0.00    -0.183 N 
ATOM     15  H8  UNL     1      20.090  51.578  14.687  1.00  0.00     0.185 HD
ENDROOT
BRANCH  10  16
HETATM   16  S1  UNL     1      16.283  50.535  20.692  1.00  0.00    -0.081 SA
BRANCH  16  17
HETATM   17  C4  UNL     1      14.881  51.777  20.787  1.00  0.00     0.130 C 
BRANCH  17  18
HETATM   18  C5  UNL     1      15.253  52.823  21.734  1.00  0.00     0.062 A 
HETATM   19  C6  UNL     1      15.921  53.944  21.212  1.00  0.00     0.144 A 
HETATM   20  N4  UNL     1      15.990  54.071  19.810  1.00  0.00    -0.081 NA
HETATM   21  N5  UNL     1      16.389  54.886  22.063  1.00  0.00    -0.178 N 
HETATM   22  C7  UNL     1      16.246  54.806  23.369  1.00  0.00     0.680 A 
ATOM     23  H5  UNL     1      16.875  55.695  21.674  1.00  0.00     0.185 HD
HETATM   24  N7  UNL     1      15.608  53.732  23.870  1.00  0.00    -0.156 N 
HETATM   25  C8  UNL     1      15.118  52.760  23.086  1.00  0.00     0.270 A 
ATOM     26  H7  UNL     1      15.493  53.655  24.880  1.00  0.00     0.187 HD
HETATM   27  O1  UNL     1      14.513  51.759  23.589  1.00  0.00    -0.267 OA
BRANCH  22  28
HETATM   28  N6  UNL     1      16.633  55.732  24.191  1.00  0.00    -0.234 N 
ATOM     29  H62 UNL     1      17.278  56.444  23.850  1.00  0.00     0.174 HD
ATOM     30  H61 UNL     1      16.365  55.761  25.176  1.00  0.00     0.174 HD
ENDBRANCH  22  28
ENDBRANCH  17  18
ENDBRANCH  16  17
ENDBRANCH  10  16
BRANCH  13  31
HETATM   31  S2  UNL     1      20.759  49.940  17.006  1.00  0.00    -0.109 SA
BRANCH  31  32
HETATM   32  C11 UNL     1      20.397  48.213  16.677  1.00  0.00     0.083 C 
BRANCH  32  33
HETATM   33  C12 UNL     1      21.413  47.211  17.077  1.00  0.00     0.036 C 
BRANCH  33  34
HETATM   34  C13 UNL     1      20.670  45.857  17.138  1.00  0.00     0.165 C 
BRANCH  34  35
HETATM   35  O3  UNL     1      21.097  45.077  18.198  1.00  0.00    -0.401 OA
ATOM     36  H3  UNL     1      20.470  45.071  18.912  1.00  0.00     0.209 HD
ENDBRANCH  34  35
ENDBRANCH  33  34
ENDBRANCH  32  33
ENDBRANCH  31  32
ENDBRANCH  13  31
TORSDOF 9
ENDMDL
MODEL 3
REMARK VINA RESULT: -8.449848569      1.326      1.513
REMARK  9 active torsions:
REMARK  status: ('A' for Active; 'I' for Inactive)
REMARK    1  A    between atoms: C3_10  and  S1_11 
REMARK    2  A    between atoms: S1_11  and  C4_12 
REMARK    3  A    between atoms: C4_12  and  C5_13 
REMARK    4  A    between atoms: C7_18  and  N6_19 
REMARK    5  A    between atoms: C10_28  and  S2_29 
REMARK    6  A    between atoms: S2_29  and  C11_30 
REMARK    7  A    between atoms: C11_30  and  C12_31 
REMARK    8  A    between atoms: C12_31  and  C13_32 
REMARK    9  A    between atoms: C13_32  and  O3_33 
ROOT
HETATM    1  N1  UNL     1      18.513  52.514  13.923  1.00  0.00    -0.234 N 
ATOM      2  H11 UNL     1      19.151  52.196  13.193  1.00  0.00     0.174 HD
ATOM      3  H12 UNL     1      17.955  53.355  13.778  1.00  0.00     0.174 HD
HETATM    4  C1  UNL     1      18.362  51.818  14.998  1.00  0.00     0.678 A 
HETATM    5  N2  UNL     1      17.505  52.245  15.978  1.00  0.00    -0.174 N 
ATOM      6  H2  UNL     1      16.947  53.085  15.832  1.00  0.00     0.186 HD
HETATM    7  C2  UNL     1      17.397  51.572  17.118  1.00  0.00     0.160 A 
HETATM    8  N3  UNL     1      16.692  51.705  18.293  1.00  0.00    -0.314 N 
ATOM      9  H3  UNL     1      16.024  52.447  18.503  1.00  0.00     0.170 HD
HETATM   10  C3  UNL     1      17.031  50.683  19.132  1.00  0.00     0.189 A 
HETATM   11  O2  UNL     1      17.897  49.959  18.506  1.00  0.00    -0.281 OA
HETATM   12  C9  UNL     1      18.143  50.447  17.323  1.00  0.00     0.157 A 
HETATM   13  C10 UNL     1      19.019  50.002  16.312  1.00  0.00     0.124 A 
HETATM   14  N8  UNL     1      19.089  50.723  15.187  1.00  0.00    -0.183 N 
ATOM     15  H8  UNL     1      19.722  50.419  14.448  1.00  0.00     0.185 HD
ENDROOT
BRANCH  10  16
HETATM   16  S1  UNL     1      16.333  50.479  20.785  1.00  0.00    -0.081 SA
BRANCH  16  17
HETATM   17  C4  UNL     1      14.952  51.748  20.772  1.00  0.00     0.130 C 
BRANCH  17  18
HETATM   18  C5  UNL     1      15.279  52.796  21.733  1.00  0.00     0.062 A 
HETATM   19  C6  UNL     1      15.939  53.933  21.233  1.00  0.00     0.144 A 
HETATM   20  N4  UNL     1      16.040  54.068  19.834  1.00  0.00    -0.081 NA
HETATM   21  N5  UNL     1      16.366  54.880  22.100  1.00  0.00    -0.178 N 
HETATM   22  C7  UNL     1      16.191  54.791  23.401  1.00  0.00     0.680 A 
ATOM     23  H5  UNL     1      16.845  55.700  21.727  1.00  0.00     0.185 HD
HETATM   24  N7  UNL     1      15.561  53.702  23.881  1.00  0.00    -0.156 N 
HETATM   25  C8  UNL     1      15.111  52.724  23.080  1.00  0.00     0.270 A 
ATOM     26  H7  UNL     1      15.422  53.618  24.888  1.00  0.00     0.187 HD
HETATM   27  O1  UNL     1      14.513  51.709  23.563  1.00  0.00    -0.267 OA
BRANCH  22  28
HETATM   28  N6  UNL     1      16.538  55.720  24.237  1.00  0.00    -0.234 N 
ATOM     29  H62 UNL     1      16.473  56.692  23.936  1.00  0.00     0.174 HD
ATOM     30  H61 UNL     1      16.918  55.532  25.166  1.00  0.00     0.174 HD
ENDBRANCH  22  28
ENDBRANCH  17  18
ENDBRANCH  16  17
ENDBRANCH  10  16
BRANCH  13  31
HETATM   31  S2  UNL     1      19.927  48.506  16.640  1.00  0.00    -0.109 SA
BRANCH  31  32
HETATM   32  C11 UNL     1      21.559  48.878  17.285  1.00  0.00     0.083 C 
BRANCH  32  33
HETATM   33  C12 UNL     1      21.941  50.306  17.404  1.00  0.00     0.036 C 
BRANCH  33  34
HETATM   34  C13 UNL     1      21.760  50.667  18.897  1.00  0.00     0.165 C 
BRANCH  34  35
HETATM   35  O3  UNL     1      20.625  51.429  19.112  1.00  0.00    -0.401 OA
ATOM     36  H3  UNL     1      20.615  51.816  19.980  1.00  0.00     0.209 HD
ENDBRANCH  34  35
ENDBRANCH  33  34
ENDBRANCH  32  33
ENDBRANCH  31  32
ENDBRANCH  13  31
TORSDOF 9
ENDMDL
MODEL 4
REMARK VINA RESULT: -8.356323861      2.930      7.110
REMARK  9 active torsions:
REMARK  status: ('A' for Active; 'I' for Inactive)
REMARK    1  A    between atoms: C3_10  and  S1_11 
REMARK    2  A    between atoms: S1_11  and  C4_12 
REMARK    3  A    between atoms: C4_12  and  C5_13 
REMARK    4  A    between atoms: C7_18  and  N6_19 
REMARK    5  A    between atoms: C10_28  and  S2_29 
REMARK    6  A    between atoms: S2_29  and  C11_30 
REMARK    7  A    between atoms: C11_30  and  C12_31 
REMARK    8  A    between atoms: C12_31  and  C13_32 
REMARK    9  A    between atoms: C13_32  and  O3_33 
ROOT
HETATM    1  N1  UNL     1      14.246  56.060  17.025  1.00  0.00    -0.234 N 
ATOM      2  H11 UNL     1      13.661  56.458  17.760  1.00  0.00     0.174 HD
ATOM      3  H12 UNL     1      14.314  56.528  16.121  1.00  0.00     0.174 HD
HETATM    4  C1  UNL     1      14.950  55.005  17.258  1.00  0.00     0.678 A 
HETATM    5  N2  UNL     1      15.735  54.471  16.271  1.00  0.00    -0.174 N 
ATOM      6  H2  UNL     1      15.804  54.941  15.369  1.00  0.00     0.186 HD
HETATM    7  C2  UNL     1      16.409  53.345  16.481  1.00  0.00     0.160 A 
HETATM    8  N3  UNL     1      17.243  52.530  15.750  1.00  0.00    -0.314 N 
ATOM      9  H3  UNL     1      17.537  52.693  14.787  1.00  0.00     0.170 HD
HETATM   10  C3  UNL     1      17.613  51.468  16.524  1.00  0.00     0.189 A 
HETATM   11  O2  UNL     1      17.039  51.623  17.670  1.00  0.00    -0.281 OA
HETATM   12  C9  UNL     1      16.320  52.709  17.686  1.00  0.00     0.157 A 
HETATM   13  C10 UNL     1      15.519  53.262  18.705  1.00  0.00     0.124 A 
HETATM   14  N8  UNL     1      14.862  54.395  18.435  1.00  0.00    -0.183 N 
ATOM     15  H8  UNL     1      14.272  54.806  19.158  1.00  0.00     0.185 HD
ENDROOT
BRANCH  10  16
HETATM   16  S1  UNL     1      18.709  50.153  15.949  1.00  0.00    -0.081 SA
BRANCH  16  17
HETATM   17  C4  UNL     1      19.295  49.411  17.569  1.00  0.00     0.130 C 
BRANCH  17  18
HETATM   18  C5  UNL     1      20.752  49.348  17.547  1.00  0.00     0.062 A 
HETATM   19  C6  UNL     1      21.331  48.194  16.990  1.00  0.00     0.144 A 
HETATM   20  N4  UNL     1      20.480  47.299  16.312  1.00  0.00    -0.081 NA
HETATM   21  N5  UNL     1      22.673  48.035  17.051  1.00  0.00    -0.178 N 
HETATM   22  C7  UNL     1      23.474  48.917  17.610  1.00  0.00     0.680 A 
ATOM     23  H5  UNL     1      23.083  47.193  16.646  1.00  0.00     0.185 HD
HETATM   24  N7  UNL     1      22.921  50.022  18.145  1.00  0.00    -0.156 N 
HETATM   25  C8  UNL     1      21.598  50.245  18.121  1.00  0.00     0.270 A 
ATOM     26  H7  UNL     1      23.529  50.713  18.585  1.00  0.00     0.187 HD
HETATM   27  O1  UNL     1      21.106  51.303  18.630  1.00  0.00    -0.267 OA
BRANCH  22  28
HETATM   28  N6  UNL     1      24.767  48.809  17.619  1.00  0.00    -0.234 N 
ATOM     29  H62 UNL     1      25.217  48.318  16.847  1.00  0.00     0.174 HD
ATOM     30  H61 UNL     1      25.356  49.147  18.380  1.00  0.00     0.174 HD
ENDBRANCH  22  28
ENDBRANCH  17  18
ENDBRANCH  16  17
ENDBRANCH  10  16
BRANCH  13  31
HETATM   31  S2  UNL     1      15.488  52.395  20.259  1.00  0.00    -0.109 SA
BRANCH  31  32
HETATM   32  C11 UNL     1      17.142  52.243  20.939  1.00  0.00     0.083 C 
BRANCH  32  33
HETATM   33  C12 UNL     1      17.819  50.931  20.808  1.00  0.00     0.036 C 
BRANCH  33  34
HETATM   34  C13 UNL     1      16.690  49.875  20.767  1.00  0.00     0.165 C 
BRANCH  34  35
HETATM   35  O3  UNL     1      16.633  49.223  19.548  1.00  0.00    -0.401 OA
ATOM     36  H3  UNL     1      16.314  48.332  19.635  1.00  0.00     0.209 HD
ENDBRANCH  34  35
ENDBRANCH  33  34
ENDBRANCH  32  33
ENDBRANCH  31  32
ENDBRANCH  13  31
TORSDOF 9
ENDMDL
MODEL 5
REMARK VINA RESULT: -8.167796392      1.739      2.211
REMARK  9 active torsions:
REMARK  status: ('A' for Active; 'I' for Inactive)
REMARK    1  A    between atoms: C3_10  and  S1_11 
REMARK    2  A    between atoms: S1_11  and  C4_12 
REMARK    3  A    between atoms: C4_12  and  C5_13 
REMARK    4  A    between atoms: C7_18  and  N6_19 
REMARK    5  A    between atoms: C10_28  and  S2_29 
REMARK    6  A    between atoms: S2_29  and  C11_30 
REMARK    7  A    between atoms: C11_30  and  C12_31 
REMARK    8  A    between atoms: C12_31  and  C13_32 
REMARK    9  A    between atoms: C13_32  and  O3_33 
ROOT
HETATM    1  N1  UNL     1      18.001  52.922  13.944  1.00  0.00    -0.234 N 
ATOM      2  H11 UNL     1      18.585  52.631  13.160  1.00  0.00     0.174 HD
ATOM      3  H12 UNL     1      17.450  53.778  13.876  1.00  0.00     0.174 HD
HETATM    4  C1  UNL     1      17.907  52.177  14.993  1.00  0.00     0.678 A 
HETATM    5  N2  UNL     1      17.123  52.568  16.046  1.00  0.00    -0.174 N 
ATOM      6  H2  UNL     1      16.572  53.423  15.976  1.00  0.00     0.186 HD
HETATM    7  C2  UNL     1      17.077  51.842  17.157  1.00  0.00     0.160 A 
HETATM    8  N3  UNL     1      16.451  51.928  18.380  1.00  0.00    -0.314 N 
ATOM      9  H3  UNL     1      15.812  52.668  18.668  1.00  0.00     0.170 HD
HETATM   10  C3  UNL     1      16.826  50.861  19.145  1.00  0.00     0.189 A 
HETATM   11  O2  UNL     1      17.637  50.155  18.429  1.00  0.00    -0.281 OA
HETATM   12  C9  UNL     1      17.814  50.697  17.258  1.00  0.00     0.157 A 
HETATM   13  C10 UNL     1      18.615  50.290  16.172  1.00  0.00     0.124 A 
HETATM   14  N8  UNL     1      18.625  51.063  15.081  1.00  0.00    -0.183 N 
ATOM     15  H8  UNL     1      19.204  50.787  14.288  1.00  0.00     0.185 HD
ENDROOT
BRANCH  10  16
HETATM   16  S1  UNL     1      16.233  50.587  20.828  1.00  0.00    -0.081 SA
BRANCH  16  17
HETATM   17  C4  UNL     1      14.890  51.887  20.974  1.00  0.00     0.130 C 
BRANCH  17  18
HETATM   18  C5  UNL     1      15.393  52.982  21.796  1.00  0.00     0.062 A 
HETATM   19  C6  UNL     1      15.062  52.956  23.162  1.00  0.00     0.144 A 
HETATM   20  N4  UNL     1      14.462  51.785  23.667  1.00  0.00    -0.081 NA
HETATM   21  N5  UNL     1      15.407  54.005  23.943  1.00  0.00    -0.178 N 
HETATM   22  C7  UNL     1      16.046  55.060  23.484  1.00  0.00     0.680 A 
ATOM     23  H5  UNL     1      15.160  53.978  24.933  1.00  0.00     0.185 HD
HETATM   24  N7  UNL     1      16.362  55.088  22.176  1.00  0.00    -0.156 N 
HETATM   25  C8  UNL     1      16.052  54.083  21.343  1.00  0.00     0.270 A 
ATOM     26  H7  UNL     1      16.854  55.901  21.805  1.00  0.00     0.187 HD
HETATM   27  O1  UNL     1      16.370  54.134  20.112  1.00  0.00    -0.267 OA
BRANCH  22  28
HETATM   28  N6  UNL     1      16.438  56.045  24.233  1.00  0.00    -0.234 N 
ATOM     29  H62 UNL     1      16.041  56.969  24.065  1.00  0.00     0.174 HD
ATOM     30  H61 UNL     1      17.157  55.956  24.952  1.00  0.00     0.174 HD
ENDBRANCH  22  28
ENDBRANCH  17  18
ENDBRANCH  16  17
ENDBRANCH  10  16
BRANCH  13  31
HETATM   31  S2  UNL     1      19.515  48.766  16.368  1.00  0.00    -0.109 SA
BRANCH  31  32
HETATM   32  C11 UNL     1      20.925  48.992  17.454  1.00  0.00     0.083 C 
BRANCH  32  33
HETATM   33  C12 UNL     1      21.601  50.312  17.434  1.00  0.00     0.036 C 
BRANCH  33  34
HETATM   34  C13 UNL     1      21.591  50.814  18.897  1.00  0.00     0.165 C 
BRANCH  34  35
HETATM   35  O3  UNL     1      20.328  51.209  19.300  1.00  0.00    -0.401 OA
ATOM     36  H3  UNL     1      20.177  52.135  19.146  1.00  0.00     0.209 HD
ENDBRANCH  34  35
ENDBRANCH  33  34
ENDBRANCH  32  33
ENDBRANCH  31  32
ENDBRANCH  13  31
TORSDOF 9
ENDMDL
