MODEL 1
REMARK VINA RESULT: -8.312737821      0.000      0.000
REMARK  8 active torsions:
REMARK  status: ('A' for Active; 'I' for Inactive)
REMARK    1  A    between atoms: N2_3  and  N3_5 
REMARK    2  A    between atoms: N3_5  and  C2_7 
REMARK    3  A    between atoms: C3_10  and  N5_11 
REMARK    4  A    between atoms: C4_15  and  S2_16 
REMARK    5  A    between atoms: S2_16  and  C5_17 
REMARK    6  A    between atoms: C5_17  and  C6_18 
REMARK       I    between atoms: C6_18  and  N6_20 
REMARK       I    between atoms: N6_20  and  C7_22 
REMARK       I    between atoms: C7_22  and  N8_26 
REMARK    7  A    between atoms: N8_26  and  C8_28 
REMARK    8  A    between atoms: C8_28  and  C9_29 
ROOT
HETATM    1  N1  UNL     1      17.417  45.465  14.263  1.00  0.00    -0.170 NA
HETATM    2  C1  UNL     1      18.244  45.986  14.865  1.00  0.00     0.197 C 
HETATM    3  N2  UNL     1      19.258  46.615  15.624  1.00  0.00    -0.235 N 
ATOM      4  H2  UNL     1      20.082  46.082  15.902  1.00  0.00     0.199 HD
ENDROOT
BRANCH   3   5
HETATM    5  N3  UNL     1      19.148  47.946  15.997  1.00  0.00    -0.275 N 
ATOM      6  H3  UNL     1      18.294  48.477  15.828  1.00  0.00     0.189 HD
BRANCH   5   7
HETATM    7  C2  UNL     1      20.300  48.551  16.636  1.00  0.00     0.146 A 
HETATM    8  N4  UNL     1      21.501  48.058  16.543  1.00  0.00    -0.320 N 
HETATM    9  C3  UNL     1      22.504  48.679  17.164  1.00  0.00     0.145 A 
ATOM     10  H4  UNL     1      21.672  47.209  16.004  1.00  0.00     0.169 HD
HETATM   11  S1  UNL     1      21.729  50.004  17.906  1.00  0.00    -0.043 SA
HETATM   12  C4  UNL     1      20.138  49.692  17.375  1.00  0.00     0.090 A 
BRANCH   9  13
HETATM   13  N5  UNL     1      23.772  48.331  17.185  1.00  0.00    -0.380 N 
ATOM     14  H52 UNL     1      24.392  48.089  16.412  1.00  0.00     0.158 HD
ATOM     15  H51 UNL     1      24.379  48.239  18.000  1.00  0.00     0.158 HD
ENDBRANCH   9  13
BRANCH  12  16
HETATM   16  S2  UNL     1      18.626  50.593  17.688  1.00  0.00    -0.109 SA
BRANCH  16  17
HETATM   17  C5  UNL     1      18.012  50.299  19.358  1.00  0.00     0.183 C 
BRANCH  17  18
HETATM   18  C6  UNL     1      17.176  51.359  19.905  1.00  0.00     0.245 C 
HETATM   19  O1  UNL     1      17.042  51.390  21.176  1.00  0.00    -0.272 OA
HETATM   20  N6  UNL     1      16.490  52.366  19.183  1.00  0.00    -0.160 N 
HETATM   21  C7  UNL     1      15.695  53.359  19.792  1.00  0.00     0.674 C 
ATOM     22  H6  UNL     1      16.575  52.374  18.166  1.00  0.00     0.187 HD
HETATM   23  N7  UNL     1      15.092  54.252  19.097  1.00  0.00    -0.235 N 
HETATM   24  N8  UNL     1      15.519  53.421  21.223  1.00  0.00    -0.222 N 
ATOM     25  H72 UNL     1      15.216  54.208  18.086  1.00  0.00     0.174 HD
ATOM     26  H71 UNL     1      14.517  54.970  19.538  1.00  0.00     0.174 HD
ATOM     27  H8  UNL     1      14.877  52.799  21.715  1.00  0.00     0.178 HD
BRANCH  24  28
HETATM   28  C8  UNL     1      16.292  54.398  21.908  1.00  0.00     0.184 C 
BRANCH  28  29
HETATM   29  C9  UNL     1      16.429  54.064  23.355  1.00  0.00     0.001 A 
HETATM   30  C10 UNL     1      17.501  54.105  24.201  1.00  0.00     0.017 A 
HETATM   31  C11 UNL     1      17.306  53.737  25.472  1.00  0.00     0.008 A 
HETATM   32  C12 UNL     1      16.043  53.346  25.831  1.00  0.00     0.050 A 
HETATM   33  S3  UNL     1      15.170  53.508  24.372  1.00  0.00    -0.105 SA
ENDBRANCH  28  29
ENDBRANCH  24  28
ENDBRANCH  17  18
ENDBRANCH  16  17
ENDBRANCH  12  16
ENDBRANCH   5   7
ENDBRANCH   3   5
TORSDOF 8
ENDMDL
MODEL 2
REMARK VINA RESULT: -8.129777788      1.799      2.850
REMARK  8 active torsions:
REMARK  status: ('A' for Active; 'I' for Inactive)
REMARK    1  A    between atoms: N2_3  and  N3_5 
REMARK    2  A    between atoms: N3_5  and  C2_7 
REMARK    3  A    between atoms: C3_10  and  N5_11 
REMARK    4  A    between atoms: C4_15  and  S2_16 
REMARK    5  A    between atoms: S2_16  and  C5_17 
REMARK    6  A    between atoms: C5_17  and  C6_18 
REMARK       I    between atoms: C6_18  and  N6_20 
REMARK       I    between atoms: N6_20  and  C7_22 
REMARK       I    between atoms: C7_22  and  N8_26 
REMARK    7  A    between atoms: N8_26  and  C8_28 
REMARK    8  A    between atoms: C8_28  and  C9_29 
ROOT
HETATM    1  N1  UNL     1      20.118  47.011  17.108  1.00  0.00    -0.170 NA
HETATM    2  C1  UNL     1      20.730  47.938  16.818  1.00  0.00     0.197 C 
HETATM    3  N2  UNL     1      21.501  49.072  16.471  1.00  0.00    -0.235 N 
ATOM      4  H2  UNL     1      22.297  48.966  15.843  1.00  0.00     0.199 HD
ENDROOT
BRANCH   3   5
HETATM    5  N3  UNL     1      21.191  50.326  16.975  1.00  0.00    -0.275 N 
ATOM      6  H3  UNL     1      21.806  50.801  17.636  1.00  0.00     0.189 HD
BRANCH   5   7
HETATM    7  C2  UNL     1      19.955  50.933  16.521  1.00  0.00     0.146 A 
HETATM    8  N4  UNL     1      19.821  51.470  15.344  1.00  0.00    -0.320 N 
HETATM    9  C3  UNL     1      18.648  52.008  15.008  1.00  0.00     0.145 A 
ATOM     10  H4  UNL     1      20.601  51.480  14.687  1.00  0.00     0.169 HD
HETATM   11  S1  UNL     1      17.700  51.749  16.401  1.00  0.00    -0.043 SA
HETATM   12  C4  UNL     1      18.869  50.954  17.356  1.00  0.00     0.090 A 
BRANCH   9  13
HETATM   13  N5  UNL     1      18.329  52.591  13.873  1.00  0.00    -0.380 N 
ATOM     14  H52 UNL     1      18.278  53.583  13.644  1.00  0.00     0.158 HD
ATOM     15  H51 UNL     1      18.069  52.142  12.995  1.00  0.00     0.158 HD
ENDBRANCH   9  13
BRANCH  12  16
HETATM   16  S2  UNL     1      18.749  50.308  19.018  1.00  0.00    -0.109 SA
BRANCH  16  17
HETATM   17  C5  UNL     1      17.032  50.156  19.548  1.00  0.00     0.183 C 
BRANCH  17  18
HETATM   18  C6  UNL     1      16.436  51.376  20.076  1.00  0.00     0.245 C 
HETATM   19  O1  UNL     1      16.316  51.456  21.346  1.00  0.00    -0.272 OA
HETATM   20  N6  UNL     1      15.973  52.491  19.335  1.00  0.00    -0.160 N 
HETATM   21  C7  UNL     1      15.405  53.638  19.926  1.00  0.00     0.674 C 
ATOM     22  H6  UNL     1      16.056  52.463  18.319  1.00  0.00     0.187 HD
HETATM   23  N7  UNL     1      15.000  54.625  19.216  1.00  0.00    -0.235 N 
HETATM   24  N8  UNL     1      15.251  53.761  21.356  1.00  0.00    -0.222 N 
ATOM     25  H72 UNL     1      15.109  54.539  18.205  1.00  0.00     0.174 HD
ATOM     26  H71 UNL     1      14.588  55.455  19.643  1.00  0.00     0.174 HD
ATOM     27  H8  UNL     1      14.495  53.295  21.859  1.00  0.00     0.178 HD
BRANCH  24  28
HETATM   28  C8  UNL     1      16.213  54.567  22.025  1.00  0.00     0.184 C 
BRANCH  28  29
HETATM   29  C9  UNL     1      16.367  54.158  23.450  1.00  0.00     0.001 A 
HETATM   30  C10 UNL     1      17.437  54.197  24.297  1.00  0.00     0.017 A 
HETATM   31  C11 UNL     1      17.260  53.750  25.545  1.00  0.00     0.008 A 
HETATM   32  C12 UNL     1      16.016  53.284  25.881  1.00  0.00     0.050 A 
HETATM   33  S3  UNL     1      15.135  53.489  24.433  1.00  0.00    -0.105 SA
ENDBRANCH  28  29
ENDBRANCH  24  28
ENDBRANCH  17  18
ENDBRANCH  16  17
ENDBRANCH  12  16
ENDBRANCH   5   7
ENDBRANCH   3   5
TORSDOF 8
ENDMDL
MODEL 3
REMARK VINA RESULT: -8.045128420      0.985      1.289
REMARK  8 active torsions:
REMARK  status: ('A' for Active; 'I' for Inactive)
REMARK    1  A    between atoms: N2_3  and  N3_5 
REMARK    2  A    between atoms: N3_5  and  C2_7 
REMARK    3  A    between atoms: C3_10  and  N5_11 
REMARK    4  A    between atoms: C4_15  and  S2_16 
REMARK    5  A    between atoms: S2_16  and  C5_17 
REMARK    6  A    between atoms: C5_17  and  C6_18 
REMARK       I    between atoms: C6_18  and  N6_20 
REMARK       I    between atoms: N6_20  and  C7_22 
REMARK       I    between atoms: C7_22  and  N8_26 
REMARK    7  A    between atoms: N8_26  and  C8_28 
REMARK    8  A    between atoms: C8_28  and  C9_29 
ROOT
HETATM    1  N1  UNL     1      21.123  45.230  17.877  1.00  0.00    -0.170 NA
HETATM    2  C1  UNL     1      20.503  45.827  17.118  1.00  0.00     0.197 C 
HETATM    3  N2  UNL     1      19.753  46.557  16.167  1.00  0.00    -0.235 N 
ATOM      4  H2  UNL     1      19.301  46.065  15.397  1.00  0.00     0.199 HD
ENDROOT
BRANCH   3   5
HETATM    5  N3  UNL     1      19.626  47.935  16.266  1.00  0.00    -0.275 N 
ATOM      6  H3  UNL     1      18.808  48.421  15.897  1.00  0.00     0.189 HD
BRANCH   5   7
HETATM    7  C2  UNL     1      20.704  48.654  16.915  1.00  0.00     0.146 A 
HETATM    8  N4  UNL     1      21.939  48.244  16.899  1.00  0.00    -0.320 N 
HETATM    9  C3  UNL     1      22.868  48.967  17.524  1.00  0.00     0.145 A 
ATOM     10  H4  UNL     1      22.192  47.383  16.415  1.00  0.00     0.169 HD
HETATM   11  S1  UNL     1      21.971  50.271  18.158  1.00  0.00    -0.043 SA
HETATM   12  C4  UNL     1      20.430  49.818  17.583  1.00  0.00     0.090 A 
BRANCH   9  13
HETATM   13  N5  UNL     1      24.155  48.713  17.614  1.00  0.00    -0.380 N 
ATOM     14  H52 UNL     1      24.643  47.817  17.604  1.00  0.00     0.158 HD
ATOM     15  H51 UNL     1      24.917  49.385  17.712  1.00  0.00     0.158 HD
ENDBRANCH   9  13
BRANCH  12  16
HETATM   16  S2  UNL     1      18.847  50.623  17.784  1.00  0.00    -0.109 SA
BRANCH  16  17
HETATM   17  C5  UNL     1      18.107  50.241  19.383  1.00  0.00     0.183 C 
BRANCH  17  18
HETATM   18  C6  UNL     1      17.262  51.289  19.940  1.00  0.00     0.245 C 
HETATM   19  O1  UNL     1      17.156  51.328  21.214  1.00  0.00    -0.272 OA
HETATM   20  N6  UNL     1      16.541  52.277  19.225  1.00  0.00    -0.160 N 
HETATM   21  C7  UNL     1      15.741  53.259  19.844  1.00  0.00     0.674 C 
ATOM     22  H6  UNL     1      16.604  52.278  18.207  1.00  0.00     0.187 HD
HETATM   23  N7  UNL     1      15.106  54.135  19.156  1.00  0.00    -0.235 N 
HETATM   24  N8  UNL     1      15.595  53.329  21.278  1.00  0.00    -0.222 N 
ATOM     25  H72 UNL     1      15.208  54.085  18.142  1.00  0.00     0.174 HD
ATOM     26  H71 UNL     1      14.526  54.845  19.604  1.00  0.00     0.174 HD
ATOM     27  H8  UNL     1      14.976  52.700  21.789  1.00  0.00     0.178 HD
BRANCH  24  28
HETATM   28  C8  UNL     1      16.364  54.327  21.939  1.00  0.00     0.184 C 
BRANCH  28  29
HETATM   29  C9  UNL     1      16.497  54.033  23.395  1.00  0.00     0.001 A 
HETATM   30  C10 UNL     1      17.567  54.096  24.241  1.00  0.00     0.017 A 
HETATM   31  C11 UNL     1      17.369  53.765  25.521  1.00  0.00     0.008 A 
HETATM   32  C12 UNL     1      16.104  53.385  25.888  1.00  0.00     0.050 A 
HETATM   33  S3  UNL     1      15.235  53.507  24.424  1.00  0.00    -0.105 SA
ENDBRANCH  28  29
ENDBRANCH  24  28
ENDBRANCH  17  18
ENDBRANCH  16  17
ENDBRANCH  12  16
ENDBRANCH   5   7
ENDBRANCH   3   5
TORSDOF 8
ENDMDL
MODEL 4
REMARK VINA RESULT: -7.932072370      2.781      3.818
REMARK  8 active torsions:
REMARK  status: ('A' for Active; 'I' for Inactive)
REMARK    1  A    between atoms: N2_3  and  N3_5 
REMARK    2  A    between atoms: N3_5  and  C2_7 
REMARK    3  A    between atoms: C3_10  and  N5_11 
REMARK    4  A    between atoms: C4_15  and  S2_16 
REMARK    5  A    between atoms: S2_16  and  C5_17 
REMARK    6  A    between atoms: C5_17  and  C6_18 
REMARK       I    between atoms: C6_18  and  N6_20 
REMARK       I    between atoms: N6_20  and  C7_22 
REMARK       I    between atoms: C7_22  and  N8_26 
REMARK    7  A    between atoms: N8_26  and  C8_28 
REMARK    8  A    between atoms: C8_28  and  C9_29 
ROOT
HETATM    1  N1  UNL     1      19.979  47.418  16.332  1.00  0.00    -0.170 NA
HETATM    2  C1  UNL     1      20.539  48.375  16.627  1.00  0.00     0.197 C 
HETATM    3  N2  UNL     1      21.240  49.544  17.007  1.00  0.00    -0.235 N 
ATOM      4  H2  UNL     1      22.253  49.582  16.895  1.00  0.00     0.199 HD
ENDROOT
BRANCH   3   5
HETATM    5  N3  UNL     1      20.569  50.639  17.531  1.00  0.00    -0.275 N 
ATOM      6  H3  UNL     1      20.833  51.044  18.429  1.00  0.00     0.189 HD
BRANCH   5   7
HETATM    7  C2  UNL     1      19.478  51.183  16.748  1.00  0.00     0.146 A 
HETATM    8  N4  UNL     1      19.612  51.550  15.507  1.00  0.00    -0.320 N 
HETATM    9  C3  UNL     1      18.554  52.041  14.860  1.00  0.00     0.145 A 
ATOM     10  H4  UNL     1      20.512  51.463  15.035  1.00  0.00     0.169 HD
HETATM   11  S1  UNL     1      17.327  51.984  16.042  1.00  0.00    -0.043 SA
HETATM   12  C4  UNL     1      18.242  51.325  17.322  1.00  0.00     0.090 A 
BRANCH   9  13
HETATM   13  N5  UNL     1      18.500  52.461  13.615  1.00  0.00    -0.380 N 
ATOM     14  H52 UNL     1      18.327  53.398  13.252  1.00  0.00     0.158 HD
ATOM     15  H51 UNL     1      18.626  51.909  12.766  1.00  0.00     0.158 HD
ENDBRANCH   9  13
BRANCH  12  16
HETATM   16  S2  UNL     1      17.754  50.919  18.993  1.00  0.00    -0.109 SA
BRANCH  16  17
HETATM   17  C5  UNL     1      16.142  51.615  19.401  1.00  0.00     0.183 C 
BRANCH  17  18
HETATM   18  C6  UNL     1      16.155  52.644  20.432  1.00  0.00     0.245 C 
HETATM   19  O1  UNL     1      15.416  53.670  20.233  1.00  0.00    -0.272 OA
HETATM   20  N6  UNL     1      16.896  52.637  21.639  1.00  0.00    -0.160 N 
HETATM   21  C7  UNL     1      16.853  53.679  22.587  1.00  0.00     0.674 C 
ATOM     22  H6  UNL     1      17.495  51.834  21.832  1.00  0.00     0.187 HD
HETATM   23  N7  UNL     1      17.542  53.629  23.667  1.00  0.00    -0.235 N 
HETATM   24  N8  UNL     1      16.034  54.852  22.393  1.00  0.00    -0.222 N 
ATOM     25  H72 UNL     1      18.121  52.800  23.804  1.00  0.00     0.174 HD
ATOM     26  H71 UNL     1      17.511  54.383  24.353  1.00  0.00     0.174 HD
ATOM     27  H8  UNL     1      16.318  55.612  21.775  1.00  0.00     0.178 HD
BRANCH  24  28
HETATM   28  C8  UNL     1      14.808  54.887  23.113  1.00  0.00     0.184 C 
BRANCH  28  29
HETATM   29  C9  UNL     1      14.782  56.020  24.083  1.00  0.00     0.001 A 
HETATM   30  C10 UNL     1      14.880  57.370  23.908  1.00  0.00     0.017 A 
HETATM   31  C11 UNL     1      14.819  58.145  24.996  1.00  0.00     0.008 A 
HETATM   32  C12 UNL     1      14.664  57.525  26.208  1.00  0.00     0.050 A 
HETATM   33  S3  UNL     1      14.607  55.873  25.779  1.00  0.00    -0.105 SA
ENDBRANCH  28  29
ENDBRANCH  24  28
ENDBRANCH  17  18
ENDBRANCH  16  17
ENDBRANCH  12  16
ENDBRANCH   5   7
ENDBRANCH   3   5
TORSDOF 8
ENDMDL
MODEL 5
REMARK VINA RESULT: -7.917729869      1.937      2.635
REMARK  8 active torsions:
REMARK  status: ('A' for Active; 'I' for Inactive)
REMARK    1  A    between atoms: N2_3  and  N3_5 
REMARK    2  A    between atoms: N3_5  and  C2_7 
REMARK    3  A    between atoms: C3_10  and  N5_11 
REMARK    4  A    between atoms: C4_15  and  S2_16 
REMARK    5  A    between atoms: S2_16  and  C5_17 
REMARK    6  A    between atoms: C5_17  and  C6_18 
REMARK       I    between atoms: C6_18  and  N6_20 
REMARK       I    between atoms: N6_20  and  C7_22 
REMARK       I    between atoms: C7_22  and  N8_26 
REMARK    7  A    between atoms: N8_26  and  C8_28 
REMARK    8  A    between atoms: C8_28  and  C9_29 
ROOT
HETATM    1  N1  UNL     1      18.228  45.459  14.155  1.00  0.00    -0.170 NA
HETATM    2  C1  UNL     1      17.907  46.500  14.518  1.00  0.00     0.197 C 
HETATM    3  N2  UNL     1      17.514  47.790  14.944  1.00  0.00    -0.235 N 
ATOM      4  H2  UNL     1      16.625  48.176  14.626  1.00  0.00     0.199 HD
ENDROOT
BRANCH   3   5
HETATM    5  N3  UNL     1      18.320  48.538  15.789  1.00  0.00    -0.275 N 
ATOM      6  H3  UNL     1      18.880  48.097  16.519  1.00  0.00     0.189 HD
BRANCH   5   7
HETATM    7  C2  UNL     1      18.333  49.974  15.590  1.00  0.00     0.146 A 
HETATM    8  N4  UNL     1      18.097  50.531  14.438  1.00  0.00    -0.320 N 
HETATM    9  C3  UNL     1      18.130  51.860  14.344  1.00  0.00     0.145 A 
ATOM     10  H4  UNL     1      17.889  49.959  13.619  1.00  0.00     0.169 HD
HETATM   11  S1  UNL     1      18.507  52.344  15.935  1.00  0.00    -0.043 SA
HETATM   12  C4  UNL     1      18.605  50.798  16.650  1.00  0.00     0.090 A 
BRANCH   9  13
HETATM   13  N5  UNL     1      17.919  52.594  13.273  1.00  0.00    -0.380 N 
ATOM     14  H52 UNL     1      18.329  52.517  12.343  1.00  0.00     0.158 HD
ATOM     15  H51 UNL     1      17.291  53.392  13.179  1.00  0.00     0.158 HD
ENDBRANCH   9  13
BRANCH  12  16
HETATM   16  S2  UNL     1      18.972  50.334  18.337  1.00  0.00    -0.109 SA
BRANCH  16  17
HETATM   17  C5  UNL     1      17.468  50.009  19.277  1.00  0.00     0.183 C 
BRANCH  17  18
HETATM   18  C6  UNL     1      16.799  51.191  19.803  1.00  0.00     0.245 C 
HETATM   19  O1  UNL     1      16.669  51.264  21.073  1.00  0.00    -0.272 OA
HETATM   20  N6  UNL     1      16.274  52.278  19.061  1.00  0.00    -0.160 N 
HETATM   21  C7  UNL     1      15.637  53.389  19.650  1.00  0.00     0.674 C 
ATOM     22  H6  UNL     1      16.362  52.256  18.045  1.00  0.00     0.187 HD
HETATM   23  N7  UNL     1      15.177  54.351  18.939  1.00  0.00    -0.235 N 
HETATM   24  N8  UNL     1      15.469  53.501  21.079  1.00  0.00    -0.222 N 
ATOM     25  H72 UNL     1      15.295  54.272  17.928  1.00  0.00     0.174 HD
ATOM     26  H71 UNL     1      14.715  55.155  19.365  1.00  0.00     0.174 HD
ATOM     27  H8  UNL     1      14.740  52.992  21.579  1.00  0.00     0.178 HD
BRANCH  24  28
HETATM   28  C8  UNL     1      16.379  54.362  21.752  1.00  0.00     0.184 C 
BRANCH  28  29
HETATM   29  C9  UNL     1      16.442  54.053  23.210  1.00  0.00     0.001 A 
HETATM   30  C10 UNL     1      17.470  54.106  24.108  1.00  0.00     0.017 A 
HETATM   31  C11 UNL     1      17.209  53.761  25.373  1.00  0.00     0.008 A 
HETATM   32  C12 UNL     1      15.929  53.378  25.675  1.00  0.00     0.050 A 
HETATM   33  S3  UNL     1      15.132  53.516  24.171  1.00  0.00    -0.105 SA
ENDBRANCH  28  29
ENDBRANCH  24  28
ENDBRANCH  17  18
ENDBRANCH  16  17
ENDBRANCH  12  16
ENDBRANCH   5   7
ENDBRANCH   3   5
TORSDOF 8
ENDMDL
