MODEL 1
REMARK VINA RESULT: -8.682105115      0.000      0.000
REMARK  10 active torsions:
REMARK  status: ('A' for Active; 'I' for Inactive)
REMARK    1  A    between atoms: N1_1  and  C1_4 
REMARK    2  A    between atoms: C4_9  and  N3_10 
REMARK    3  A    between atoms: N3_10  and  C5_12 
REMARK    4  A    between atoms: C5_12  and  C6_13 
REMARK    5  A    between atoms: C6_13  and  N4_14 
REMARK    6  A    between atoms: N4_14  and  C7_16 
REMARK    7  A    between atoms: N10_29  and  C11_30 
REMARK    8  A    between atoms: C11_30  and  C12_31 
REMARK    9  A    between atoms: C12_31  and  C13_32 
REMARK   10  A    between atoms: C13_32  and  N11_33 
ROOT
HETATM    1  C7  UNL     1      16.295  52.210  18.004  1.00  0.00     0.136 A 
HETATM    2  N5  UNL     1      16.133  52.861  16.839  1.00  0.00    -0.315 N 
ATOM      3  H5  UNL     1      15.395  53.560  16.756  1.00  0.00     0.170 HD
HETATM    4  C8  UNL     1      16.931  52.609  15.768  1.00  0.00     0.195 A 
HETATM    5  N6  UNL     1      16.764  53.294  14.536  1.00  0.00    -0.063 NA
HETATM    6  N7  UNL     1      17.916  51.694  15.833  1.00  0.00    -0.313 N 
ATOM      7  H7  UNL     1      18.503  51.519  15.018  1.00  0.00     0.170 HD
HETATM    8  C9  UNL     1      18.124  51.018  16.963  1.00  0.00     0.158 A 
HETATM    9  C10 UNL     1      17.305  51.273  18.070  1.00  0.00     0.139 A 
HETATM   10  N8  UNL     1      17.773  50.437  19.028  1.00  0.00    -0.279 N 
ATOM     11  H8  UNL     1      17.407  50.355  19.976  1.00  0.00     0.189 HD
HETATM   12  N9  UNL     1      18.783  49.745  18.530  1.00  0.00    -0.238 N 
ATOM     13  H9  UNL     1      19.313  49.045  19.050  1.00  0.00     0.208 HD
HETATM   14  N10 UNL     1      19.019  50.074  17.282  1.00  0.00    -0.260 N 
ENDROOT
BRANCH   1  15
HETATM   15  N4  UNL     1      15.566  52.412  19.048  1.00  0.00    -0.373 N 
ATOM     16  H4  UNL     1      14.973  51.651  19.380  1.00  0.00     0.161 HD
BRANCH  15  17
HETATM   17  C6  UNL     1      15.550  53.664  19.770  1.00  0.00     0.141 C 
BRANCH  17  18
HETATM   18  C5  UNL     1      15.297  53.332  21.223  1.00  0.00     0.139 C 
BRANCH  18  19
HETATM   19  N3  UNL     1      16.456  53.397  22.058  1.00  0.00    -0.388 N 
ATOM     20  H3  UNL     1      17.162  52.665  21.974  1.00  0.00     0.159 HD
BRANCH  19  21
HETATM   21  C4  UNL     1      16.667  54.450  23.009  1.00  0.00     0.030 A 
HETATM   22  C3  UNL     1      16.314  55.715  22.715  1.00  0.00     0.060 A 
HETATM   23  C2  UNL     1      16.481  56.785  23.617  1.00  0.00     0.053 A 
HETATM   24  N2  UNL     1      16.166  58.050  23.419  1.00  0.00    -0.336 N 
HETATM   25  C16 UNL     1      17.030  56.454  24.820  1.00  0.00     0.035 A 
HETATM   26  C1  UNL     1      16.399  58.922  24.393  1.00  0.00     0.143 A 
ATOM     27  H2  UNL     1      15.753  58.352  22.536  1.00  0.00     0.168 HD
HETATM   28  S1  UNL     1      17.078  57.959  25.624  1.00  0.00    -0.052 SA
HETATM   29  C15 UNL     1      17.402  55.134  25.132  1.00  0.00     0.023 A 
HETATM   30  C14 UNL     1      17.228  54.105  24.233  1.00  0.00     0.030 A 
BRANCH  26  31
HETATM   31  N1  UNL     1      16.154  60.217  24.380  1.00  0.00    -0.380 N 
ATOM     32  H12 UNL     1      15.278  60.711  24.208  1.00  0.00     0.158 HD
ATOM     33  H11 UNL     1      16.819  60.973  24.547  1.00  0.00     0.158 HD
ENDBRANCH  26  31
ENDBRANCH  19  21
ENDBRANCH  18  19
ENDBRANCH  17  18
ENDBRANCH  15  17
ENDBRANCH   1  15
BRANCH  14  34
HETATM   34  C11 UNL     1      20.042  49.536  16.404  1.00  0.00     0.154 C 
BRANCH  34  35
HETATM   35  C12 UNL     1      21.326  49.362  17.192  1.00  0.00     0.049 C 
BRANCH  35  36
HETATM   36  C13 UNL     1      21.915  48.022  16.807  1.00  0.00     0.231 C 
BRANCH  36  37
HETATM   37  N11 UNL     1      23.354  48.004  16.894  1.00  0.00    -0.079 N 
ATOM     38 3H11 UNL     1      23.690  48.715  17.543  1.00  0.00     0.274 HD
ATOM     39 2H11 UNL     1      23.681  47.169  17.381  1.00  0.00     0.274 HD
ATOM     40 1H11 UNL     1      23.803  48.097  15.983  1.00  0.00     0.274 HD
ENDBRANCH  36  37
ENDBRANCH  35  36
ENDBRANCH  34  35
ENDBRANCH  14  34
TORSDOF 10
ENDMDL
MODEL 2
REMARK VINA RESULT: -8.546369031      2.496      4.751
REMARK  10 active torsions:
REMARK  status: ('A' for Active; 'I' for Inactive)
REMARK    1  A    between atoms: N1_1  and  C1_4 
REMARK    2  A    between atoms: C4_9  and  N3_10 
REMARK    3  A    between atoms: N3_10  and  C5_12 
REMARK    4  A    between atoms: C5_12  and  C6_13 
REMARK    5  A    between atoms: C6_13  and  N4_14 
REMARK    6  A    between atoms: N4_14  and  C7_16 
REMARK    7  A    between atoms: N10_29  and  C11_30 
REMARK    8  A    between atoms: C11_30  and  C12_31 
REMARK    9  A    between atoms: C12_31  and  C13_32 
REMARK   10  A    between atoms: C13_32  and  N11_33 
ROOT
HETATM    1  C7  UNL     1      17.944  50.636  18.618  1.00  0.00     0.136 A 
HETATM    2  N5  UNL     1      18.834  49.858  17.977  1.00  0.00    -0.315 N 
ATOM      3  H5  UNL     1      19.383  49.184  18.511  1.00  0.00     0.170 HD
HETATM    4  C8  UNL     1      19.020  49.950  16.634  1.00  0.00     0.195 A 
HETATM    5  N6  UNL     1      19.958  49.131  15.954  1.00  0.00    -0.063 NA
HETATM    6  N7  UNL     1      18.319  50.827  15.892  1.00  0.00    -0.313 N 
ATOM      7  H7  UNL     1      18.474  50.881  14.886  1.00  0.00     0.170 HD
HETATM    8  C9  UNL     1      17.422  51.624  16.472  1.00  0.00     0.158 A 
HETATM    9  C10 UNL     1      17.225  51.534  17.857  1.00  0.00     0.139 A 
HETATM   10  N8  UNL     1      16.270  52.459  18.116  1.00  0.00    -0.279 N 
ATOM     11  H8  UNL     1      15.877  52.667  19.034  1.00  0.00     0.189 HD
HETATM   12  N9  UNL     1      15.930  53.047  16.982  1.00  0.00    -0.238 N 
ATOM     13  H9  UNL     1      15.227  53.782  16.903  1.00  0.00     0.208 HD
HETATM   14  N10 UNL     1      16.610  52.563  15.970  1.00  0.00    -0.260 N 
ENDROOT
BRANCH   1  15
HETATM   15  N4  UNL     1      17.730  50.588  19.888  1.00  0.00    -0.373 N 
ATOM     16  H4  UNL     1      18.404  51.033  20.511  1.00  0.00     0.161 HD
BRANCH  15  17
HETATM   17  C6  UNL     1      16.579  49.936  20.472  1.00  0.00     0.141 C 
BRANCH  17  18
HETATM   18  C5  UNL     1      15.815  50.991  21.238  1.00  0.00     0.139 C 
BRANCH  18  19
HETATM   19  N3  UNL     1      16.541  52.202  21.466  1.00  0.00    -0.388 N 
ATOM     20  H3  UNL     1      17.397  52.366  20.936  1.00  0.00     0.159 HD
BRANCH  19  21
HETATM   21  C4  UNL     1      16.114  53.194  22.411  1.00  0.00     0.030 A 
HETATM   22  C3  UNL     1      15.262  52.870  23.400  1.00  0.00     0.060 A 
HETATM   23  C2  UNL     1      14.822  53.799  24.366  1.00  0.00     0.053 A 
HETATM   24  N2  UNL     1      13.994  53.576  25.367  1.00  0.00    -0.336 N 
HETATM   25  C16 UNL     1      15.322  55.061  24.231  1.00  0.00     0.035 A 
HETATM   26  C1  UNL     1      13.695  54.583  26.180  1.00  0.00     0.143 A 
ATOM     27  H2  UNL     1      13.591  52.650  25.513  1.00  0.00     0.168 HD
HETATM   28  S1  UNL     1      14.590  55.882  25.537  1.00  0.00    -0.052 SA
HETATM   29  C15 UNL     1      16.211  55.404  23.198  1.00  0.00     0.023 A 
HETATM   30  C14 UNL     1      16.626  54.478  22.267  1.00  0.00     0.030 A 
BRANCH  26  31
HETATM   31  N1  UNL     1      12.893  54.553  27.226  1.00  0.00    -0.380 N 
ATOM     32  H12 UNL     1      12.190  53.860  27.486  1.00  0.00     0.158 HD
ATOM     33  H11 UNL     1      12.835  55.238  27.979  1.00  0.00     0.158 HD
ENDBRANCH  26  31
ENDBRANCH  19  21
ENDBRANCH  18  19
ENDBRANCH  17  18
ENDBRANCH  15  17
ENDBRANCH   1  15
BRANCH  14  34
HETATM   34  C11 UNL     1      16.517  52.952  14.575  1.00  0.00     0.154 C 
BRANCH  34  35
HETATM   35  C12 UNL     1      15.764  54.266  14.479  1.00  0.00     0.049 C 
BRANCH  35  36
HETATM   36  C13 UNL     1      14.414  53.969  13.860  1.00  0.00     0.231 C 
BRANCH  36  37
HETATM   37  N11 UNL     1      14.311  54.445  12.504  1.00  0.00    -0.079 N 
ATOM     38 3H11 UNL     1      14.786  55.341  12.393  1.00  0.00     0.274 HD
ATOM     39 2H11 UNL     1      14.877  53.879  11.873  1.00  0.00     0.274 HD
ATOM     40 1H11 UNL     1      13.344  54.500  12.181  1.00  0.00     0.274 HD
ENDBRANCH  36  37
ENDBRANCH  35  36
ENDBRANCH  34  35
ENDBRANCH  14  34
TORSDOF 10
ENDMDL
MODEL 3
REMARK VINA RESULT: -8.447283410      2.482      3.201
REMARK  10 active torsions:
REMARK  status: ('A' for Active; 'I' for Inactive)
REMARK    1  A    between atoms: N1_1  and  C1_4 
REMARK    2  A    between atoms: C4_9  and  N3_10 
REMARK    3  A    between atoms: N3_10  and  C5_12 
REMARK    4  A    between atoms: C5_12  and  C6_13 
REMARK    5  A    between atoms: C6_13  and  N4_14 
REMARK    6  A    between atoms: N4_14  and  C7_16 
REMARK    7  A    between atoms: N10_29  and  C11_30 
REMARK    8  A    between atoms: C11_30  and  C12_31 
REMARK    9  A    between atoms: C12_31  and  C13_32 
REMARK   10  A    between atoms: C13_32  and  N11_33 
ROOT
HETATM    1  C7  UNL     1      18.178  50.660  17.713  1.00  0.00     0.136 A 
HETATM    2  N5  UNL     1      17.735  49.932  16.673  1.00  0.00    -0.315 N 
ATOM      3  H5  UNL     1      16.757  50.007  16.392  1.00  0.00     0.170 HD
HETATM    4  C8  UNL     1      18.560  49.098  15.987  1.00  0.00     0.195 A 
HETATM    5  N6  UNL     1      18.096  48.328  14.889  1.00  0.00    -0.063 NA
HETATM    6  N7  UNL     1      19.856  48.967  16.325  1.00  0.00    -0.313 N 
ATOM      7  H7  UNL     1      20.458  48.335  15.798  1.00  0.00     0.170 HD
HETATM    8  C9  UNL     1      20.352  49.664  17.347  1.00  0.00     0.158 A 
HETATM    9  C10 UNL     1      19.507  50.526  18.058  1.00  0.00     0.139 A 
HETATM   10  N8  UNL     1      20.308  51.065  19.009  1.00  0.00    -0.279 N 
ATOM     11  H8  UNL     1      20.021  51.745  19.712  1.00  0.00     0.189 HD
HETATM   12  N9  UNL     1      21.524  50.565  18.872  1.00  0.00    -0.238 N 
ATOM     13  H9  UNL     1      22.316  50.811  19.465  1.00  0.00     0.208 HD
HETATM   14  N10 UNL     1      21.582  49.714  17.876  1.00  0.00    -0.260 N 
ENDROOT
BRANCH   1  15
HETATM   15  N4  UNL     1      17.438  51.464  18.395  1.00  0.00    -0.373 N 
ATOM     16  H4  UNL     1      17.421  52.450  18.132  1.00  0.00     0.161 HD
BRANCH  15  17
HETATM   17  C6  UNL     1      16.631  51.037  19.517  1.00  0.00     0.141 C 
BRANCH  17  18
HETATM   18  C5  UNL     1      17.007  51.913  20.690  1.00  0.00     0.139 C 
BRANCH  18  19
HETATM   19  N3  UNL     1      16.036  51.950  21.739  1.00  0.00    -0.388 N 
ATOM     20  H3  UNL     1      15.470  51.119  21.912  1.00  0.00     0.159 HD
BRANCH  19  21
HETATM   21  C4  UNL     1      15.826  53.109  22.559  1.00  0.00     0.030 A 
HETATM   22  C3  UNL     1      15.048  53.036  23.655  1.00  0.00     0.060 A 
HETATM   23  C2  UNL     1      14.821  54.137  24.506  1.00  0.00     0.053 A 
HETATM   24  N2  UNL     1      14.080  54.161  25.596  1.00  0.00    -0.336 N 
HETATM   25  C16 UNL     1      15.446  55.294  24.143  1.00  0.00     0.035 A 
HETATM   26  C1  UNL     1      13.984  55.300  26.273  1.00  0.00     0.143 A 
ATOM     27  H2  UNL     1      13.590  53.324  25.911  1.00  0.00     0.168 HD
HETATM   28  S1  UNL     1      14.953  56.373  25.370  1.00  0.00    -0.052 SA
HETATM   29  C15 UNL     1      16.258  55.375  22.999  1.00  0.00     0.023 A 
HETATM   30  C14 UNL     1      16.465  54.285  22.183  1.00  0.00     0.030 A 
BRANCH  26  31
HETATM   31  N1  UNL     1      13.296  55.517  27.376  1.00  0.00    -0.380 N 
ATOM     32  H12 UNL     1      13.197  56.373  27.922  1.00  0.00     0.158 HD
ATOM     33  H11 UNL     1      12.725  54.846  27.890  1.00  0.00     0.158 HD
ENDBRANCH  26  31
ENDBRANCH  19  21
ENDBRANCH  18  19
ENDBRANCH  17  18
ENDBRANCH  15  17
ENDBRANCH   1  15
BRANCH  14  34
HETATM   34  C11 UNL     1      22.738  48.966  17.418  1.00  0.00     0.154 C 
BRANCH  34  35
HETATM   35  C12 UNL     1      23.977  49.502  18.109  1.00  0.00     0.049 C 
BRANCH  35  36
HETATM   36  C13 UNL     1      25.177  48.840  17.465  1.00  0.00     0.231 C 
BRANCH  36  37
HETATM   37  N11 UNL     1      24.812  47.984  16.364  1.00  0.00    -0.079 N 
ATOM     38 3H11 UNL     1      24.995  47.005  16.584  1.00  0.00     0.274 HD
ATOM     39 2H11 UNL     1      23.799  47.941  16.254  1.00  0.00     0.274 HD
ATOM     40 1H11 UNL     1      25.264  48.254  15.490  1.00  0.00     0.274 HD
ENDBRANCH  36  37
ENDBRANCH  35  36
ENDBRANCH  34  35
ENDBRANCH  14  34
TORSDOF 10
ENDMDL
MODEL 4
REMARK VINA RESULT: -8.434684134      1.941      2.209
REMARK  10 active torsions:
REMARK  status: ('A' for Active; 'I' for Inactive)
REMARK    1  A    between atoms: N1_1  and  C1_4 
REMARK    2  A    between atoms: C4_9  and  N3_10 
REMARK    3  A    between atoms: N3_10  and  C5_12 
REMARK    4  A    between atoms: C5_12  and  C6_13 
REMARK    5  A    between atoms: C6_13  and  N4_14 
REMARK    6  A    between atoms: N4_14  and  C7_16 
REMARK    7  A    between atoms: N10_29  and  C11_30 
REMARK    8  A    between atoms: C11_30  and  C12_31 
REMARK    9  A    between atoms: C12_31  and  C13_32 
REMARK   10  A    between atoms: C13_32  and  N11_33 
ROOT
HETATM    1  C7  UNL     1      16.275  52.358  18.309  1.00  0.00     0.136 A 
HETATM    2  N5  UNL     1      15.947  52.965  17.154  1.00  0.00    -0.315 N 
ATOM      3  H5  UNL     1      15.225  53.686  17.158  1.00  0.00     0.170 HD
HETATM    4  C8  UNL     1      16.554  52.639  15.983  1.00  0.00     0.195 A 
HETATM    5  N6  UNL     1      16.210  53.277  14.763  1.00  0.00    -0.063 NA
HETATM    6  N7  UNL     1      17.509  51.693  15.934  1.00  0.00    -0.313 N 
ATOM      7  H7  UNL     1      17.952  51.462  15.045  1.00  0.00     0.170 HD
HETATM    8  C9  UNL     1      17.877  51.057  17.047  1.00  0.00     0.158 A 
HETATM    9  C10 UNL     1      17.255  51.389  18.258  1.00  0.00     0.139 A 
HETATM   10  N8  UNL     1      17.847  50.578  19.167  1.00  0.00    -0.279 N 
ATOM     11  H8  UNL     1      17.636  50.549  20.164  1.00  0.00     0.189 HD
HETATM   12  N9  UNL     1      18.743  49.829  18.547  1.00  0.00    -0.238 N 
ATOM     13  H9  UNL     1      19.329  49.133  19.009  1.00  0.00     0.208 HD
HETATM   14  N10 UNL     1      18.784  50.096  17.263  1.00  0.00    -0.260 N 
ENDROOT
BRANCH   1  15
HETATM   15  N4  UNL     1      15.731  52.630  19.445  1.00  0.00    -0.373 N 
ATOM     16  H4  UNL     1      16.011  53.486  19.925  1.00  0.00     0.161 HD
BRANCH  15  17
HETATM   17  C6  UNL     1      14.742  51.781  20.071  1.00  0.00     0.141 C 
BRANCH  17  18
HETATM   18  C5  UNL     1      15.169  51.593  21.508  1.00  0.00     0.139 C 
BRANCH  18  19
HETATM   19  N3  UNL     1      16.182  52.500  21.951  1.00  0.00    -0.388 N 
ATOM     20  H3  UNL     1      17.143  52.349  21.643  1.00  0.00     0.159 HD
BRANCH  19  21
HETATM   21  C4  UNL     1      15.902  53.614  22.811  1.00  0.00     0.030 A 
HETATM   22  C3  UNL     1      15.135  53.454  23.905  1.00  0.00     0.060 A 
HETATM   23  C2  UNL     1      14.842  54.508  24.795  1.00  0.00     0.053 A 
HETATM   24  N2  UNL     1      14.105  54.447  25.886  1.00  0.00    -0.336 N 
HETATM   25  C16 UNL     1      15.390  55.714  24.471  1.00  0.00     0.035 A 
HETATM   26  C1  UNL     1      13.940  55.554  26.603  1.00  0.00     0.143 A 
ATOM     27  H2  UNL     1      13.672  53.570  26.174  1.00  0.00     0.168 HD
HETATM   28  S1  UNL     1      14.834  56.717  25.735  1.00  0.00    -0.052 SA
HETATM   29  C15 UNL     1      16.190  55.887  23.328  1.00  0.00     0.023 A 
HETATM   30  C14 UNL     1      16.463  54.841  22.475  1.00  0.00     0.030 A 
BRANCH  26  31
HETATM   31  N1  UNL     1      13.244  55.688  27.714  1.00  0.00    -0.380 N 
ATOM     32  H12 UNL     1      12.784  54.976  28.282  1.00  0.00     0.158 HD
ATOM     33  H11 UNL     1      13.041  56.553  28.214  1.00  0.00     0.158 HD
ENDBRANCH  26  31
ENDBRANCH  19  21
ENDBRANCH  18  19
ENDBRANCH  17  18
ENDBRANCH  15  17
ENDBRANCH   1  15
BRANCH  14  34
HETATM   34  C11 UNL     1      19.635  49.485  16.260  1.00  0.00     0.154 C 
BRANCH  34  35
HETATM   35  C12 UNL     1      20.443  48.376  16.908  1.00  0.00     0.049 C 
BRANCH  35  36
HETATM   36  C13 UNL     1      21.861  48.883  17.068  1.00  0.00     0.231 C 
BRANCH  36  37
HETATM   37  N11 UNL     1      22.827  47.815  17.122  1.00  0.00    -0.079 N 
ATOM     38 3H11 UNL     1      22.389  46.914  16.934  1.00  0.00     0.274 HD
ATOM     39 2H11 UNL     1      23.465  47.858  16.328  1.00  0.00     0.274 HD
ATOM     40 1H11 UNL     1      23.341  47.796  18.004  1.00  0.00     0.274 HD
ENDBRANCH  36  37
ENDBRANCH  35  36
ENDBRANCH  34  35
ENDBRANCH  14  34
TORSDOF 10
ENDMDL
MODEL 5
REMARK VINA RESULT: -8.391411633      1.762      2.413
REMARK  10 active torsions:
REMARK  status: ('A' for Active; 'I' for Inactive)
REMARK    1  A    between atoms: N1_1  and  C1_4 
REMARK    2  A    between atoms: C4_9  and  N3_10 
REMARK    3  A    between atoms: N3_10  and  C5_12 
REMARK    4  A    between atoms: C5_12  and  C6_13 
REMARK    5  A    between atoms: C6_13  and  N4_14 
REMARK    6  A    between atoms: N4_14  and  C7_16 
REMARK    7  A    between atoms: N10_29  and  C11_30 
REMARK    8  A    between atoms: C11_30  and  C12_31 
REMARK    9  A    between atoms: C12_31  and  C13_32 
REMARK   10  A    between atoms: C13_32  and  N11_33 
ROOT
HETATM    1  C7  UNL     1      18.161  50.694  17.837  1.00  0.00     0.136 A 
HETATM    2  N5  UNL     1      17.702  50.003  16.779  1.00  0.00    -0.315 N 
ATOM      3  H5  UNL     1      16.718  50.080  16.522  1.00  0.00     0.170 HD
HETATM    4  C8  UNL     1      18.519  49.203  16.045  1.00  0.00     0.195 A 
HETATM    5  N6  UNL     1      18.038  48.471  14.928  1.00  0.00    -0.063 NA
HETATM    6  N7  UNL     1      19.823  49.071  16.351  1.00  0.00    -0.313 N 
ATOM      7  H7  UNL     1      20.419  48.465  15.788  1.00  0.00     0.170 HD
HETATM    8  C9  UNL     1      20.335  49.733  17.389  1.00  0.00     0.158 A 
HETATM    9  C10 UNL     1      19.498  50.559  18.149  1.00  0.00     0.139 A 
HETATM   10  N8  UNL     1      20.314  51.069  19.103  1.00  0.00    -0.279 N 
ATOM     11  H8  UNL     1      20.036  51.719  19.838  1.00  0.00     0.189 HD
HETATM   12  N9  UNL     1      21.531  50.586  18.922  1.00  0.00    -0.238 N 
ATOM     13  H9  UNL     1      22.334  50.815  19.508  1.00  0.00     0.208 HD
HETATM   14  N10 UNL     1      21.575  49.774  17.893  1.00  0.00    -0.260 N 
ENDROOT
BRANCH   1  15
HETATM   15  N4  UNL     1      17.429  51.465  18.565  1.00  0.00    -0.373 N 
ATOM     16  H4  UNL     1      17.330  52.443  18.290  1.00  0.00     0.161 HD
BRANCH  15  17
HETATM   17  C6  UNL     1      16.742  51.012  19.754  1.00  0.00     0.141 C 
BRANCH  17  18
HETATM   18  C5  UNL     1      17.247  51.853  20.903  1.00  0.00     0.139 C 
BRANCH  18  19
HETATM   19  N3  UNL     1      16.510  53.058  21.128  1.00  0.00    -0.388 N 
ATOM     20  H3  UNL     1      15.821  53.347  20.433  1.00  0.00     0.159 HD
BRANCH  19  21
HETATM   21  C4  UNL     1      16.699  53.876  22.292  1.00  0.00     0.030 A 
HETATM   22  C3  UNL     1      16.200  55.125  22.334  1.00  0.00     0.060 A 
HETATM   23  C2  UNL     1      16.340  55.967  23.457  1.00  0.00     0.053 A 
HETATM   24  N2  UNL     1      15.888  57.198  23.590  1.00  0.00    -0.336 N 
HETATM   25  C16 UNL     1      17.021  55.428  24.509  1.00  0.00     0.035 A 
HETATM   26  C1  UNL     1      16.119  57.838  24.731  1.00  0.00     0.143 A 
ATOM     27  H2  UNL     1      15.373  57.648  22.835  1.00  0.00     0.168 HD
HETATM   28  S1  UNL     1      16.992  56.698  25.649  1.00  0.00    -0.052 SA
HETATM   29  C15 UNL     1      17.545  54.124  24.468  1.00  0.00     0.023 A 
HETATM   30  C14 UNL     1      17.394  53.321  23.360  1.00  0.00     0.030 A 
BRANCH  26  31
HETATM   31  N1  UNL     1      15.749  59.064  25.047  1.00  0.00    -0.380 N 
ATOM     32  H12 UNL     1      15.044  59.377  25.715  1.00  0.00     0.158 HD
ATOM     33  H11 UNL     1      16.116  59.936  24.668  1.00  0.00     0.158 HD
ENDBRANCH  26  31
ENDBRANCH  19  21
ENDBRANCH  18  19
ENDBRANCH  17  18
ENDBRANCH  15  17
ENDBRANCH   1  15
BRANCH  14  34
HETATM   34  C11 UNL     1      22.727  49.053  17.383  1.00  0.00     0.154 C 
BRANCH  34  35
HETATM   35  C12 UNL     1      23.970  49.536  18.108  1.00  0.00     0.049 C 
BRANCH  35  36
HETATM   36  C13 UNL     1      25.157  48.828  17.490  1.00  0.00     0.231 C 
BRANCH  36  37
HETATM   37  N11 UNL     1      24.790  48.018  16.356  1.00  0.00    -0.079 N 
ATOM     38 3H11 UNL     1      23.896  47.554  16.512  1.00  0.00     0.274 HD
ATOM     39 2H11 UNL     1      24.537  48.599  15.557  1.00  0.00     0.274 HD
ATOM     40 1H11 UNL     1      25.514  47.344  16.105  1.00  0.00     0.274 HD
ENDBRANCH  36  37
ENDBRANCH  35  36
ENDBRANCH  34  35
ENDBRANCH  14  34
TORSDOF 10
ENDMDL
