MODEL 1
REMARK VINA RESULT: -4.118426431      0.000      0.000
REMARK  5 active torsions:
REMARK  status: ('A' for Active; 'I' for Inactive)
REMARK    1  A    between atoms: N1_1  and  C1_4 
REMARK    2  A    between atoms: C5_10  and  N3_11 
REMARK    3  A    between atoms: N3_11  and  N4_13 
REMARK    4  A    between atoms: C6_15  and  C7_16 
REMARK    5  A    between atoms: N5_17  and  N6_19 
ROOT
HETATM    1  N3  UNL     1      30.910  67.340  74.022  1.00  0.00    -0.297 N 
ATOM      2  H3  UNL     1      31.796  67.412  74.520  1.00  0.00     0.187 HD
ENDROOT
BRANCH   1   3
HETATM    3  C5  UNL     1      29.682  67.399  74.730  1.00  0.00     0.091 A 
HETATM    4  C1  UNL     1      28.729  66.402  74.672  1.00  0.00     0.127 A 
HETATM    5  N2  UNL     1      27.559  66.496  75.369  1.00  0.00    -0.351 N 
HETATM    6  C2  UNL     1      27.359  67.583  76.114  1.00  0.00     0.090 A 
ATOM      7  H2  UNL     1      26.859  65.756  75.322  1.00  0.00     0.166 HD
HETATM    8  C3  UNL     1      28.249  68.616  76.228  1.00  0.00     0.019 A 
HETATM    9  C4  UNL     1      29.426  68.520  75.526  1.00  0.00     0.036 A 
BRANCH   4  10
HETATM   10  N1  UNL     1      28.916  65.353  73.957  1.00  0.00    -0.384 N 
ATOM     11  H12 UNL     1      28.736  65.364  72.953  1.00  0.00     0.157 HD
ATOM     12  H11 UNL     1      29.251  64.512  74.427  1.00  0.00     0.157 HD
ENDBRANCH   4  10
ENDBRANCH   1   3
BRANCH   1  13
HETATM   13  N4  UNL     1      30.890  67.182  72.624  1.00  0.00    -0.310 N 
HETATM   14  C6  UNL     1      30.402  68.128  71.887  1.00  0.00     0.125 C 
ATOM     15  H4  UNL     1      31.257  66.332  72.197  1.00  0.00     0.186 HD
BRANCH  14  16
HETATM   16  C7  UNL     1      29.875  69.347  72.472  1.00  0.00     0.125 C 
HETATM   17  N5  UNL     1      28.615  69.527  72.546  1.00  0.00    -0.317 N 
ATOM     18  H5  UNL     1      28.252  70.387  72.958  1.00  0.00     0.185 HD
BRANCH  17  19
HETATM   19  N6  UNL     1      27.726  68.560  72.069  1.00  0.00    -0.345 N 
ATOM     20  H62 UNL     1      27.905  67.580  72.289  1.00  0.00     0.176 HD
ATOM     21  H61 UNL     1      26.916  68.827  71.511  1.00  0.00     0.176 HD
ENDBRANCH  17  19
ENDBRANCH  14  16
ENDBRANCH   1  13
TORSDOF 5
ENDMDL
MODEL 2
REMARK VINA RESULT: -4.090666434      2.193      4.180
REMARK  5 active torsions:
REMARK  status: ('A' for Active; 'I' for Inactive)
REMARK    1  A    between atoms: N1_1  and  C1_4 
REMARK    2  A    between atoms: C5_10  and  N3_11 
REMARK    3  A    between atoms: N3_11  and  N4_13 
REMARK    4  A    between atoms: C6_15  and  C7_16 
REMARK    5  A    between atoms: N5_17  and  N6_19 
ROOT
HETATM    1  N3  UNL     1      27.639  67.972  74.469  1.00  0.00    -0.297 N 
ATOM      2  H3  UNL     1      26.879  68.233  73.841  1.00  0.00     0.187 HD
ENDROOT
BRANCH   1   3
HETATM    3  C5  UNL     1      28.921  67.656  73.950  1.00  0.00     0.091 A 
HETATM    4  C1  UNL     1      29.541  68.401  72.968  1.00  0.00     0.127 A 
HETATM    5  N2  UNL     1      30.777  68.063  72.495  1.00  0.00    -0.351 N 
HETATM    6  C2  UNL     1      31.373  66.988  73.010  1.00  0.00     0.090 A 
ATOM      7  H2  UNL     1      31.231  68.617  71.769  1.00  0.00     0.166 HD
HETATM    8  C3  UNL     1      30.830  66.196  73.984  1.00  0.00     0.019 A 
HETATM    9  C4  UNL     1      29.587  66.536  74.460  1.00  0.00     0.036 A 
BRANCH   4  10
HETATM   10  N1  UNL     1      28.973  69.437  72.469  1.00  0.00    -0.384 N 
ATOM     11  H12 UNL     1      28.507  70.119  73.068  1.00  0.00     0.157 HD
ATOM     12  H11 UNL     1      29.005  69.555  71.456  1.00  0.00     0.157 HD
ENDBRANCH   4  10
ENDBRANCH   1   3
BRANCH   1  13
HETATM   13  N4  UNL     1      27.428  67.922  75.858  1.00  0.00    -0.310 N 
HETATM   14  C6  UNL     1      28.031  68.777  76.622  1.00  0.00     0.125 C 
ATOM     15  H4  UNL     1      26.806  67.220  76.260  1.00  0.00     0.186 HD
BRANCH  14  16
HETATM   16  C7  UNL     1      28.920  69.784  76.073  1.00  0.00     0.125 C 
HETATM   17  N5  UNL     1      28.789  71.005  76.413  1.00  0.00    -0.317 N 
ATOM     18  H5  UNL     1      29.417  71.708  76.022  1.00  0.00     0.185 HD
BRANCH  17  19
HETATM   19  N6  UNL     1      27.794  71.392  77.316  1.00  0.00    -0.345 N 
ATOM     20  H62 UNL     1      26.821  71.192  77.086  1.00  0.00     0.176 HD
ATOM     21  H61 UNL     1      28.037  71.865  78.186  1.00  0.00     0.176 HD
ENDBRANCH  17  19
ENDBRANCH  14  16
ENDBRANCH   1  13
TORSDOF 5
ENDMDL
MODEL 3
REMARK VINA RESULT: -4.030342952      1.543      3.983
REMARK  5 active torsions:
REMARK  status: ('A' for Active; 'I' for Inactive)
REMARK    1  A    between atoms: N1_1  and  C1_4 
REMARK    2  A    between atoms: C5_10  and  N3_11 
REMARK    3  A    between atoms: N3_11  and  N4_13 
REMARK    4  A    between atoms: C6_15  and  C7_16 
REMARK    5  A    between atoms: N5_17  and  N6_19 
ROOT
HETATM    1  N3  UNL     1      29.068  69.083  75.371  1.00  0.00    -0.297 N 
ATOM      2  H3  UNL     1      29.038  70.102  75.372  1.00  0.00     0.187 HD
ENDROOT
BRANCH   1   3
HETATM    3  C5  UNL     1      29.871  68.390  74.428  1.00  0.00     0.091 A 
HETATM    4  C1  UNL     1      29.883  68.693  73.082  1.00  0.00     0.127 A 
HETATM    5  N2  UNL     1      30.671  68.002  72.206  1.00  0.00    -0.351 N 
HETATM    6  C2  UNL     1      31.433  67.022  72.688  1.00  0.00     0.090 A 
ATOM      7  H2  UNL     1      30.676  68.231  71.211  1.00  0.00     0.166 HD
HETATM    8  C3  UNL     1      31.481  66.656  74.005  1.00  0.00     0.019 A 
HETATM    9  C4  UNL     1      30.689  67.352  74.886  1.00  0.00     0.036 A 
BRANCH   4  10
HETATM   10  N1  UNL     1      29.152  69.637  72.612  1.00  0.00    -0.384 N 
ATOM     11  H12 UNL     1      28.155  69.680  72.820  1.00  0.00     0.157 HD
ATOM     12  H11 UNL     1      29.603  70.340  72.026  1.00  0.00     0.157 HD
ENDBRANCH   4  10
ENDBRANCH   1   3
BRANCH   1  13
HETATM   13  N4  UNL     1      28.315  68.348  76.304  1.00  0.00    -0.310 N 
HETATM   14  C6  UNL     1      27.417  67.518  75.879  1.00  0.00     0.125 C 
ATOM     15  H4  UNL     1      28.475  68.469  77.304  1.00  0.00     0.186 HD
BRANCH  14  16
HETATM   16  C7  UNL     1      27.172  67.330  74.462  1.00  0.00     0.125 C 
HETATM   17  N5  UNL     1      27.464  66.222  73.904  1.00  0.00    -0.317 N 
ATOM     18  H5  UNL     1      27.291  66.098  72.906  1.00  0.00     0.185 HD
BRANCH  17  19
HETATM   19  N6  UNL     1      28.020  65.175  74.644  1.00  0.00    -0.345 N 
ATOM     20  H62 UNL     1      28.121  64.262  74.201  1.00  0.00     0.176 HD
ATOM     21  H61 UNL     1      28.320  65.320  75.608  1.00  0.00     0.176 HD
ENDBRANCH  17  19
ENDBRANCH  14  16
ENDBRANCH   1  13
TORSDOF 5
ENDMDL
MODEL 4
REMARK VINA RESULT: -3.996061877      1.278      2.121
REMARK  5 active torsions:
REMARK  status: ('A' for Active; 'I' for Inactive)
REMARK    1  A    between atoms: N1_1  and  C1_4 
REMARK    2  A    between atoms: C5_10  and  N3_11 
REMARK    3  A    between atoms: N3_11  and  N4_13 
REMARK    4  A    between atoms: C6_15  and  C7_16 
REMARK    5  A    between atoms: N5_17  and  N6_19 
ROOT
HETATM    1  N3  UNL     1      30.466  68.557  74.427  1.00  0.00    -0.297 N 
ATOM      2  H3  UNL     1      30.871  69.071  75.209  1.00  0.00     0.187 HD
ENDROOT
BRANCH   1   3
HETATM    3  C5  UNL     1      29.508  67.537  74.659  1.00  0.00     0.091 A 
HETATM    4  C1  UNL     1      28.451  67.680  75.534  1.00  0.00     0.127 A 
HETATM    5  N2  UNL     1      27.549  66.673  75.729  1.00  0.00    -0.351 N 
HETATM    6  C2  UNL     1      27.717  65.541  75.048  1.00  0.00     0.090 A 
ATOM      7  H2  UNL     1      26.770  66.785  76.377  1.00  0.00     0.166 HD
HETATM    8  C3  UNL     1      28.735  65.315  74.162  1.00  0.00     0.019 A 
HETATM    9  C4  UNL     1      29.642  66.329  73.966  1.00  0.00     0.036 A 
BRANCH   4  10
HETATM   10  N1  UNL     1      28.283  68.769  76.192  1.00  0.00    -0.384 N 
ATOM     11  H12 UNL     1      27.365  69.209  76.251  1.00  0.00     0.157 HD
ATOM     12  H11 UNL     1      29.097  69.175  76.653  1.00  0.00     0.157 HD
ENDBRANCH   4  10
ENDBRANCH   1   3
BRANCH   1  13
HETATM   13  N4  UNL     1      30.852  68.852  73.107  1.00  0.00    -0.310 N 
HETATM   14  C6  UNL     1      29.989  69.381  72.299  1.00  0.00     0.125 C 
ATOM     15  H4  UNL     1      31.800  68.651  72.791  1.00  0.00     0.186 HD
BRANCH  14  16
HETATM   16  C7  UNL     1      28.635  69.676  72.727  1.00  0.00     0.125 C 
HETATM   17  N5  UNL     1      27.673  68.917  72.373  1.00  0.00    -0.317 N 
ATOM     18  H5  UNL     1      26.723  69.131  72.676  1.00  0.00     0.185 HD
BRANCH  17  19
HETATM   19  N6  UNL     1      27.907  67.795  71.573  1.00  0.00    -0.345 N 
ATOM     20  H62 UNL     1      27.438  67.733  70.669  1.00  0.00     0.176 HD
ATOM     21  H61 UNL     1      28.533  67.054  71.886  1.00  0.00     0.176 HD
ENDBRANCH  17  19
ENDBRANCH  14  16
ENDBRANCH   1  13
TORSDOF 5
ENDMDL
MODEL 5
REMARK VINA RESULT: -3.584551006      1.201      1.934
REMARK  5 active torsions:
REMARK  status: ('A' for Active; 'I' for Inactive)
REMARK    1  A    between atoms: N1_1  and  C1_4 
REMARK    2  A    between atoms: C5_10  and  N3_11 
REMARK    3  A    between atoms: N3_11  and  N4_13 
REMARK    4  A    between atoms: C6_15  and  C7_16 
REMARK    5  A    between atoms: N5_17  and  N6_19 
ROOT
HETATM    1  N3  UNL     1      30.950  67.740  73.954  1.00  0.00    -0.297 N 
ATOM      2  H3  UNL     1      31.854  67.972  74.365  1.00  0.00     0.187 HD
ENDROOT
BRANCH   1   3
HETATM    3  C5  UNL     1      29.772  67.778  74.744  1.00  0.00     0.091 A 
HETATM    4  C1  UNL     1      29.424  68.858  75.528  1.00  0.00     0.127 A 
HETATM    5  N2  UNL     1      28.280  68.855  76.275  1.00  0.00    -0.351 N 
HETATM    6  C2  UNL     1      27.504  67.774  76.226  1.00  0.00     0.090 A 
ATOM      7  H2  UNL     1      28.029  69.657  76.853  1.00  0.00     0.166 HD
HETATM    8  C3  UNL     1      27.772  66.662  75.477  1.00  0.00     0.019 A 
HETATM    9  C4  UNL     1      28.923  66.665  74.725  1.00  0.00     0.036 A 
BRANCH   4  10
HETATM   10  N1  UNL     1      30.168  69.902  75.579  1.00  0.00    -0.384 N 
ATOM     11  H12 UNL     1      30.920  69.977  76.264  1.00  0.00     0.157 HD
ATOM     12  H11 UNL     1      29.981  70.651  74.912  1.00  0.00     0.157 HD
ENDBRANCH   4  10
ENDBRANCH   1   3
BRANCH   1  13
HETATM   13  N4  UNL     1      30.857  67.381  72.598  1.00  0.00    -0.310 N 
HETATM   14  C6  UNL     1      30.304  68.201  71.762  1.00  0.00     0.125 C 
ATOM     15  H4  UNL     1      31.222  66.485  72.276  1.00  0.00     0.186 HD
BRANCH  14  16
HETATM   16  C7  UNL     1      29.779  69.482  72.196  1.00  0.00     0.125 C 
HETATM   17  N5  UNL     1      28.524  69.635  72.359  1.00  0.00    -0.317 N 
ATOM     18  H5  UNL     1      28.161  70.539  72.663  1.00  0.00     0.185 HD
BRANCH  17  19
HETATM   19  N6  UNL     1      27.639  68.579  72.125  1.00  0.00    -0.345 N 
ATOM     20  H62 UNL     1      27.693  68.084  71.235  1.00  0.00     0.176 HD
ATOM     21  H61 UNL     1      26.953  68.309  72.829  1.00  0.00     0.176 HD
ENDBRANCH  17  19
ENDBRANCH  14  16
ENDBRANCH   1  13
TORSDOF 5
ENDMDL
