MODEL 1
REMARK VINA RESULT: -1.615397936      0.000      0.000
REMARK  4 active torsions:
REMARK  status: ('A' for Active; 'I' for Inactive)
REMARK    1  A    between atoms: C2_5  and  N3_6 
REMARK    2  A    between atoms: N3_6  and  N4_8 
REMARK    3  A    between atoms: N5_10  and  C3_12 
REMARK    4  A    between atoms: C5_14  and  N6_15 
ROOT
HETATM    1  N1  UNL     1      29.095  68.950  72.264  1.00  0.00    -0.172 NA
HETATM    2  C1  UNL     1      29.985  68.210  72.296  1.00  0.00     0.182 C 
HETATM    3  N2  UNL     1      31.064  67.325  72.321  1.00  0.00    -0.288 N 
ATOM      4  H2  UNL     1      31.697  67.278  71.524  1.00  0.00     0.178 HD
HETATM    5  C2  UNL     1      31.266  66.570  73.342  1.00  0.00     0.208 C 
ENDROOT
BRANCH   5   6
HETATM    6  N3  UNL     1      30.378  66.649  74.437  1.00  0.00    -0.281 N 
ATOM      7  H3  UNL     1      29.920  65.812  74.798  1.00  0.00     0.189 HD
BRANCH   6   8
HETATM    8  N4  UNL     1      30.138  67.893  75.013  1.00  0.00    -0.240 N 
HETATM    9  N5  UNL     1      28.962  68.250  75.332  1.00  0.00    -0.270 N 
ATOM     10  H5  UNL     1      28.155  67.644  75.181  1.00  0.00     0.190 HD
ATOM     11  H4  UNL     1      30.919  68.528  75.181  1.00  0.00     0.208 HD
BRANCH   9  12
HETATM   12  C3  UNL     1      28.831  69.557  75.920  1.00  0.00     0.139 A 
HETATM   13  C4  UNL     1      27.722  70.066  76.548  1.00  0.00     0.100 A 
HETATM   14  C5  UNL     1      28.052  71.339  76.949  1.00  0.00     0.117 A 
HETATM   15  N7  UNL     1      29.340  71.555  76.552  1.00  0.00    -0.284 N 
HETATM   16  N8  UNL     1      29.800  70.491  75.940  1.00  0.00    -0.283 N 
ATOM     17  H7  UNL     1      29.866  72.415  76.708  1.00  0.00     0.188 HD
ATOM     18  H8  UNL     1      30.736  70.388  75.545  1.00  0.00     0.188 HD
BRANCH  14  19
HETATM   19  N6  UNL     1      27.308  72.175  77.574  1.00  0.00    -0.384 N 
ATOM     20  H62 UNL     1      26.695  72.869  77.145  1.00  0.00     0.157 HD
ATOM     21  H61 UNL     1      27.208  72.281  78.584  1.00  0.00     0.157 HD
ENDBRANCH  14  19
ENDBRANCH   9  12
ENDBRANCH   6   8
ENDBRANCH   5   6
TORSDOF 4
ENDMDL
MODEL 2
REMARK VINA RESULT: -0.957758047      1.556      1.749
REMARK  4 active torsions:
REMARK  status: ('A' for Active; 'I' for Inactive)
REMARK    1  A    between atoms: C2_5  and  N3_6 
REMARK    2  A    between atoms: N3_6  and  N4_8 
REMARK    3  A    between atoms: N5_10  and  C3_12 
REMARK    4  A    between atoms: C5_14  and  N6_15 
ROOT
HETATM    1  N1  UNL     1      26.916  67.751  73.382  1.00  0.00    -0.172 NA
HETATM    2  C1  UNL     1      27.489  66.795  73.696  1.00  0.00     0.182 C 
HETATM    3  N2  UNL     1      28.165  65.635  74.073  1.00  0.00    -0.288 N 
ATOM      4  H2  UNL     1      27.637  64.826  74.399  1.00  0.00     0.178 HD
HETATM    5  C2  UNL     1      29.449  65.577  74.015  1.00  0.00     0.208 C 
ENDROOT
BRANCH   5   6
HETATM    6  N3  UNL     1      30.163  66.708  73.562  1.00  0.00    -0.281 N 
ATOM      7  H3  UNL     1      30.873  66.618  72.834  1.00  0.00     0.189 HD
BRANCH   6   8
HETATM    8  N4  UNL     1      29.879  67.947  74.128  1.00  0.00    -0.240 N 
HETATM    9  N5  UNL     1      29.509  68.043  75.339  1.00  0.00    -0.270 N 
ATOM     10  H5  UNL     1      29.408  67.223  75.938  1.00  0.00     0.190 HD
ATOM     11  H4  UNL     1      29.968  68.791  73.562  1.00  0.00     0.208 HD
BRANCH   9  12
HETATM   12  C3  UNL     1      29.241  69.373  75.819  1.00  0.00     0.139 A 
HETATM   13  C4  UNL     1      28.133  69.785  76.517  1.00  0.00     0.100 A 
HETATM   14  C5  UNL     1      28.306  71.126  76.765  1.00  0.00     0.117 A 
HETATM   15  N7  UNL     1      29.504  71.477  76.211  1.00  0.00    -0.284 N 
HETATM   16  N8  UNL     1      30.057  70.430  75.649  1.00  0.00    -0.283 N 
ATOM     17  H7  UNL     1      29.907  72.413  76.231  1.00  0.00     0.188 HD
ATOM     18  H8  UNL     1      30.955  70.418  75.164  1.00  0.00     0.188 HD
BRANCH  14  19
HETATM   19  N6  UNL     1      27.508  71.911  77.391  1.00  0.00    -0.384 N 
ATOM     20  H62 UNL     1      26.726  72.421  76.981  1.00  0.00     0.157 HD
ATOM     21  H61 UNL     1      27.526  72.148  78.383  1.00  0.00     0.157 HD
ENDBRANCH  14  19
ENDBRANCH   9  12
ENDBRANCH   6   8
ENDBRANCH   5   6
TORSDOF 4
ENDMDL
MODEL 3
REMARK VINA RESULT: -0.742822706      2.104      5.429
REMARK  4 active torsions:
REMARK  status: ('A' for Active; 'I' for Inactive)
REMARK    1  A    between atoms: C2_5  and  N3_6 
REMARK    2  A    between atoms: N3_6  and  N4_8 
REMARK    3  A    between atoms: N5_10  and  C3_12 
REMARK    4  A    between atoms: C5_14  and  N6_15 
ROOT
HETATM    1  N1  UNL     1      27.779  73.321  74.576  1.00  0.00    -0.172 NA
HETATM    2  C1  UNL     1      27.569  72.910  75.639  1.00  0.00     0.182 C 
HETATM    3  N2  UNL     1      27.302  72.424  76.918  1.00  0.00    -0.288 N 
ATOM      4  H2  UNL     1      26.578  72.864  77.485  1.00  0.00     0.178 HD
HETATM    5  C2  UNL     1      27.962  71.426  77.390  1.00  0.00     0.208 C 
ENDROOT
BRANCH   5   6
HETATM    6  N3  UNL     1      28.961  70.830  76.590  1.00  0.00    -0.281 N 
ATOM      7  H3  UNL     1      29.800  71.350  76.332  1.00  0.00     0.189 HD
BRANCH   6   8
HETATM    8  N4  UNL     1      28.778  69.518  76.160  1.00  0.00    -0.240 N 
HETATM    9  N5  UNL     1      29.419  69.063  75.162  1.00  0.00    -0.270 N 
ATOM     10  H5  UNL     1      30.085  69.635  74.643  1.00  0.00     0.190 HD
ATOM     11  H4  UNL     1      28.121  68.915  76.653  1.00  0.00     0.208 HD
BRANCH   9  12
HETATM   12  C3  UNL     1      29.150  67.695  74.805  1.00  0.00     0.139 A 
HETATM   13  C4  UNL     1      28.030  66.969  75.126  1.00  0.00     0.100 A 
HETATM   14  C5  UNL     1      28.206  65.720  74.580  1.00  0.00     0.117 A 
HETATM   15  N7  UNL     1      29.419  65.733  73.952  1.00  0.00    -0.284 N 
HETATM   16  N8  UNL     1      29.977  66.911  74.088  1.00  0.00    -0.283 N 
ATOM     17  H7  UNL     1      29.829  64.945  73.452  1.00  0.00     0.188 HD
ATOM     18  H8  UNL     1      30.886  67.187  73.714  1.00  0.00     0.188 HD
BRANCH  14  19
HETATM   19  N6  UNL     1      27.401  64.724  74.638  1.00  0.00    -0.384 N 
ATOM     20  H62 UNL     1      26.868  64.339  73.859  1.00  0.00     0.157 HD
ATOM     21  H61 UNL     1      27.166  64.166  75.459  1.00  0.00     0.157 HD
ENDBRANCH  14  19
ENDBRANCH   9  12
ENDBRANCH   6   8
ENDBRANCH   5   6
TORSDOF 4
ENDMDL
MODEL 4
REMARK VINA RESULT: -0.530230653      3.367      4.928
REMARK  4 active torsions:
REMARK  status: ('A' for Active; 'I' for Inactive)
REMARK    1  A    between atoms: C2_5  and  N3_6 
REMARK    2  A    between atoms: N3_6  and  N4_8 
REMARK    3  A    between atoms: N5_10  and  C3_12 
REMARK    4  A    between atoms: C5_14  and  N6_15 
ROOT
HETATM    1  N1  UNL     1      35.233  63.887  75.331  1.00  0.00    -0.172 NA
HETATM    2  C1  UNL     1      35.383  64.689  74.509  1.00  0.00     0.182 C 
HETATM    3  N2  UNL     1      35.578  65.649  73.516  1.00  0.00    -0.288 N 
ATOM      4  H2  UNL     1      36.512  65.796  73.133  1.00  0.00     0.178 HD
HETATM    5  C2  UNL     1      34.592  66.349  73.079  1.00  0.00     0.208 C 
ENDROOT
BRANCH   5   6
HETATM    6  N3  UNL     1      33.307  66.131  73.623  1.00  0.00    -0.281 N 
ATOM      7  H3  UNL     1      33.159  65.417  74.337  1.00  0.00     0.189 HD
BRANCH   6   8
HETATM    8  N4  UNL     1      32.247  66.908  73.164  1.00  0.00    -0.240 N 
HETATM    9  N5  UNL     1      31.176  67.015  73.838  1.00  0.00    -0.270 N 
ATOM     10  H5  UNL     1      31.053  66.541  74.733  1.00  0.00     0.190 HD
ATOM     11  H4  UNL     1      32.332  67.398  72.274  1.00  0.00     0.208 HD
BRANCH   9  12
HETATM   12  C3  UNL     1      30.147  67.843  73.268  1.00  0.00     0.139 A 
HETATM   13  C4  UNL     1      28.834  67.497  73.066  1.00  0.00     0.100 A 
HETATM   14  C5  UNL     1      28.224  68.593  72.502  1.00  0.00     0.117 A 
HETATM   15  N7  UNL     1      29.184  69.558  72.383  1.00  0.00    -0.284 N 
HETATM   16  N8  UNL     1      30.326  69.107  72.840  1.00  0.00    -0.283 N 
ATOM     17  H7  UNL     1      29.033  70.489  71.996  1.00  0.00     0.188 HD
ATOM     18  H8  UNL     1      31.204  69.627  72.867  1.00  0.00     0.188 HD
BRANCH  14  19
HETATM   19  N6  UNL     1      26.997  68.705  72.151  1.00  0.00    -0.384 N 
ATOM     20  H62 UNL     1      26.517  68.128  71.460  1.00  0.00     0.157 HD
ATOM     21  H61 UNL     1      26.312  69.377  72.498  1.00  0.00     0.157 HD
ENDBRANCH  14  19
ENDBRANCH   9  12
ENDBRANCH   6   8
ENDBRANCH   5   6
TORSDOF 4
ENDMDL
MODEL 5
REMARK VINA RESULT: -0.454231713      1.357      1.965
REMARK  4 active torsions:
REMARK  status: ('A' for Active; 'I' for Inactive)
REMARK    1  A    between atoms: C2_5  and  N3_6 
REMARK    2  A    between atoms: N3_6  and  N4_8 
REMARK    3  A    between atoms: N5_10  and  C3_12 
REMARK    4  A    between atoms: C5_14  and  N6_15 
ROOT
HETATM    1  N1  UNL     1      28.482  66.186  74.391  1.00  0.00    -0.172 NA
HETATM    2  C1  UNL     1      29.584  66.119  74.040  1.00  0.00     0.182 C 
HETATM    3  N2  UNL     1      30.911  66.022  73.622  1.00  0.00    -0.288 N 
ATOM      4  H2  UNL     1      31.464  65.206  73.881  1.00  0.00     0.178 HD
HETATM    5  C2  UNL     1      31.443  66.953  72.912  1.00  0.00     0.208 C 
ENDROOT
BRANCH   5   6
HETATM    6  N3  UNL     1      30.661  68.076  72.563  1.00  0.00    -0.281 N 
ATOM      7  H3  UNL     1      30.714  68.476  71.626  1.00  0.00     0.189 HD
BRANCH   6   8
HETATM    8  N4  UNL     1      29.817  68.626  73.524  1.00  0.00    -0.240 N 
HETATM    9  N5  UNL     1      30.279  69.075  74.618  1.00  0.00    -0.270 N 
ATOM     10  H5  UNL     1      31.275  69.051  74.833  1.00  0.00     0.190 HD
ATOM     11  H4  UNL     1      28.813  68.669  73.346  1.00  0.00     0.208 HD
BRANCH   9  12
HETATM   12  C3  UNL     1      29.315  69.621  75.538  1.00  0.00     0.139 A 
HETATM   13  C4  UNL     1      29.165  70.942  75.881  1.00  0.00     0.100 A 
HETATM   14  C5  UNL     1      28.129  70.995  76.783  1.00  0.00     0.117 A 
HETATM   15  N7  UNL     1      27.691  69.712  76.953  1.00  0.00    -0.284 N 
HETATM   16  N8  UNL     1      28.399  68.898  76.211  1.00  0.00    -0.283 N 
ATOM     17  H7  UNL     1      26.927  69.431  77.567  1.00  0.00     0.188 HD
ATOM     18  H8  UNL     1      28.278  67.886  76.152  1.00  0.00     0.188 HD
BRANCH  14  19
HETATM   19  N6  UNL     1      27.653  72.035  77.361  1.00  0.00    -0.384 N 
ATOM     20  H62 UNL     1      28.129  72.598  78.066  1.00  0.00     0.157 HD
ATOM     21  H61 UNL     1      26.739  72.462  77.214  1.00  0.00     0.157 HD
ENDBRANCH  14  19
ENDBRANCH   9  12
ENDBRANCH   6   8
ENDBRANCH   5   6
TORSDOF 4
ENDMDL
