MODEL 1
REMARK VINA RESULT: -6.377248561      0.000      0.000
REMARK  1 active torsions:
REMARK  status: ('A' for Active; 'I' for Inactive)
REMARK    1  A    between atoms: C3_3  and  C4_4 
ROOT
HETATM    1  C4  UNL     1      24.094   4.175  20.972  1.00  0.00     0.072 C 
HETATM    2  C5  UNL     1      23.366   3.178  21.446  1.00  0.00     0.055 C 
HETATM    3  C6  UNL     1      23.496   1.744  21.159  1.00  0.00     0.141 C 
HETATM    4  C7  UNL     1      22.135   1.177  20.825  1.00  0.00     0.070 C 
HETATM    5  C8  UNL     1      21.479   0.926  22.192  1.00  0.00     0.127 C 
HETATM    6  N1  UNL     1      22.601   0.337  22.896  1.00  0.00    -0.372 N 
HETATM    7  C9  UNL     1      22.497  -0.784  23.802  1.00  0.00     0.150 C 
HETATM    8  C10 UNL     1      23.732   1.088  22.496  1.00  0.00     0.112 C 
HETATM    9  N2  UNL     1      24.818   1.192  23.186  1.00  0.00    -0.386 N 
ATOM     10  H21 UNL     1      24.978   0.748  24.090  1.00  0.00     0.157 HD
ATOM     11  H22 UNL     1      25.634   1.734  22.897  1.00  0.00     0.157 HD
HETATM   12  O1  UNL     1      24.503   1.348  20.367  1.00  0.00    -0.358 OA
HETATM   13  C11 UNL     1      24.684   1.870  19.141  1.00  0.00     0.184 C 
HETATM   14  C12 UNL     1      23.434   2.027  18.307  1.00  0.00     0.045 C 
HETATM   15  C13 UNL     1      25.438   3.167  19.073  1.00  0.00     0.237 A 
HETATM   16  N3  UNL     1      26.911   3.080  18.792  1.00  0.00    -0.122 NA
HETATM   17  S1  UNL     1      26.073   3.771  17.528  1.00  0.00    -0.001 SA
HETATM   18  O2  UNL     1      25.148   4.062  20.091  1.00  0.00    -0.309 OA
ENDROOT
BRANCH   1  19
HETATM   19  C3  UNL     1      23.699   5.503  21.464  1.00  0.00     0.032 C 
HETATM   20  C2  UNL     1      23.139   6.421  20.741  1.00  0.00    -0.028 C 
HETATM   21  C1  UNL     1      22.831   6.230  19.317  1.00  0.00     0.036 C 
ENDBRANCH   1  19
TORSDOF 1
ENDMDL
MODEL 2
REMARK VINA RESULT: -6.350888557      2.886      5.364
REMARK  1 active torsions:
REMARK  status: ('A' for Active; 'I' for Inactive)
REMARK    1  A    between atoms: C3_3  and  C4_4 
ROOT
HETATM    1  C4  UNL     1      21.324   0.812  21.776  1.00  0.00     0.072 C 
HETATM    2  C5  UNL     1      21.951   1.740  21.073  1.00  0.00     0.055 C 
HETATM    3  C6  UNL     1      23.369   1.784  20.690  1.00  0.00     0.141 C 
HETATM    4  C7  UNL     1      23.927   3.153  21.006  1.00  0.00     0.070 C 
HETATM    5  C8  UNL     1      23.497   4.026  19.817  1.00  0.00     0.127 C 
HETATM    6  N1  UNL     1      23.787   3.115  18.728  1.00  0.00    -0.372 N 
HETATM    7  C9  UNL     1      24.377   3.510  17.469  1.00  0.00     0.150 C 
HETATM    8  C10 UNL     1      23.375   1.840  19.184  1.00  0.00     0.112 C 
HETATM    9  N2  UNL     1      23.052   0.859  18.410  1.00  0.00    -0.386 N 
ATOM     10  H21 UNL     1      23.056   0.896  17.390  1.00  0.00     0.157 HD
ATOM     11  H22 UNL     1      22.754  -0.061  18.738  1.00  0.00     0.157 HD
HETATM   12  O1  UNL     1      24.146   0.745  21.028  1.00  0.00    -0.358 OA
HETATM   13  C11 UNL     1      24.239   0.316  22.300  1.00  0.00     0.184 C 
HETATM   14  C12 UNL     1      24.382   1.399  23.345  1.00  0.00     0.045 C 
HETATM   15  C13 UNL     1      23.164  -0.623  22.767  1.00  0.00     0.237 A 
HETATM   16  N3  UNL     1      23.471  -2.092  22.695  1.00  0.00    -0.122 NA
HETATM   17  S1  UNL     1      23.358  -1.552  24.268  1.00  0.00    -0.001 SA
HETATM   18  O2  UNL     1      21.892  -0.328  22.304  1.00  0.00    -0.309 OA
ENDROOT
BRANCH   1  19
HETATM   19  C3  UNL     1      19.892   1.072  21.983  1.00  0.00     0.032 C 
HETATM   20  C2  UNL     1      19.382   1.576  23.063  1.00  0.00    -0.028 C 
HETATM   21  C1  UNL     1      20.199   1.952  24.225  1.00  0.00     0.036 C 
ENDBRANCH   1  19
TORSDOF 1
ENDMDL
MODEL 3
REMARK VINA RESULT: -6.218859104      3.712      5.180
REMARK  1 active torsions:
REMARK  status: ('A' for Active; 'I' for Inactive)
REMARK    1  A    between atoms: C3_3  and  C4_4 
ROOT
HETATM    1  C4  UNL     1      24.315   6.495  17.805  1.00  0.00     0.072 C 
HETATM    2  C5  UNL     1      24.853   5.293  17.920  1.00  0.00     0.055 C 
HETATM    3  C6  UNL     1      24.372   4.157  18.719  1.00  0.00     0.141 C 
HETATM    4  C7  UNL     1      25.523   3.586  19.515  1.00  0.00     0.070 C 
HETATM    5  C8  UNL     1      26.262   2.677  18.522  1.00  0.00     0.127 C 
HETATM    6  N1  UNL     1      25.128   2.024  17.898  1.00  0.00    -0.372 N 
HETATM    7  C9  UNL     1      25.084   0.622  17.549  1.00  0.00     0.150 C 
HETATM    8  C10 UNL     1      24.155   3.038  17.733  1.00  0.00     0.112 C 
HETATM    9  N2  UNL     1      23.208   3.003  16.855  1.00  0.00    -0.386 N 
ATOM     10  H21 UNL     1      23.061   2.245  16.188  1.00  0.00     0.157 HD
ATOM     11  H22 UNL     1      22.506   3.734  16.736  1.00  0.00     0.157 HD
HETATM   12  O1  UNL     1      23.216   4.298  19.383  1.00  0.00    -0.358 OA
HETATM   13  C11 UNL     1      23.013   5.315  20.240  1.00  0.00     0.184 C 
HETATM   14  C12 UNL     1      24.160   5.620  21.176  1.00  0.00     0.045 C 
HETATM   15  C13 UNL     1      22.565   6.616  19.636  1.00  0.00     0.237 A 
HETATM   16  N3  UNL     1      21.088   6.885  19.627  1.00  0.00    -0.122 NA
HETATM   17  S1  UNL     1      21.904   7.912  20.655  1.00  0.00    -0.001 SA
HETATM   18  O2  UNL     1      23.166   6.933  18.428  1.00  0.00    -0.309 OA
ENDROOT
BRANCH   1  19
HETATM   19  C3  UNL     1      25.052   7.407  16.919  1.00  0.00     0.032 C 
HETATM   20  C2  UNL     1      24.563   7.955  15.851  1.00  0.00    -0.028 C 
HETATM   21  C1  UNL     1      23.185   7.717  15.399  1.00  0.00     0.036 C 
ENDBRANCH   1  19
TORSDOF 1
ENDMDL
MODEL 4
REMARK VINA RESULT: -6.124646825      3.095      5.428
REMARK  1 active torsions:
REMARK  status: ('A' for Active; 'I' for Inactive)
REMARK    1  A    between atoms: C3_3  and  C4_4 
ROOT
HETATM    1  C4  UNL     1      21.182   0.743  22.414  1.00  0.00     0.072 C 
HETATM    2  C5  UNL     1      21.844   1.090  21.323  1.00  0.00     0.055 C 
HETATM    3  C6  UNL     1      23.020   1.963  21.216  1.00  0.00     0.141 C 
HETATM    4  C7  UNL     1      22.790   2.976  20.117  1.00  0.00     0.070 C 
HETATM    5  C8  UNL     1      23.133   2.221  18.823  1.00  0.00     0.127 C 
HETATM    6  N1  UNL     1      24.343   1.546  19.249  1.00  0.00    -0.372 N 
HETATM    7  C9  UNL     1      25.520   1.387  18.426  1.00  0.00     0.150 C 
HETATM    8  C10 UNL     1      24.090   1.117  20.573  1.00  0.00     0.112 C 
HETATM    9  N2  UNL     1      24.696   0.135  21.150  1.00  0.00    -0.386 N 
ATOM     10  H21 UNL     1      25.420  -0.438  20.715  1.00  0.00     0.157 HD
ATOM     11  H22 UNL     1      24.513  -0.174  22.105  1.00  0.00     0.157 HD
HETATM   12  O1  UNL     1      23.555   2.443  22.348  1.00  0.00    -0.358 OA
HETATM   13  C11 UNL     1      22.817   3.120  23.247  1.00  0.00     0.184 C 
HETATM   14  C12 UNL     1      21.873   4.151  22.673  1.00  0.00     0.045 C 
HETATM   15  C13 UNL     1      22.039   2.292  24.229  1.00  0.00     0.237 A 
HETATM   16  N3  UNL     1      22.679   2.050  25.567  1.00  0.00    -0.122 NA
HETATM   17  S1  UNL     1      21.335   3.029  25.684  1.00  0.00    -0.001 SA
HETATM   18  O2  UNL     1      21.473   1.143  23.701  1.00  0.00    -0.309 OA
ENDROOT
BRANCH   1  19
HETATM   19  C3  UNL     1      20.041  -0.152  22.173  1.00  0.00     0.032 C 
HETATM   20  C2  UNL     1      18.797   0.194  22.276  1.00  0.00    -0.028 C 
HETATM   21  C1  UNL     1      18.380   1.552  22.654  1.00  0.00     0.036 C 
ENDBRANCH   1  19
TORSDOF 1
ENDMDL
MODEL 5
REMARK VINA RESULT: -5.987369826      2.525      3.365
REMARK  1 active torsions:
REMARK  status: ('A' for Active; 'I' for Inactive)
REMARK    1  A    between atoms: C3_3  and  C4_4 
ROOT
HETATM    1  C4  UNL     1      24.679   4.269  17.236  1.00  0.00     0.072 C 
HETATM    2  C5  UNL     1      23.815   4.052  18.213  1.00  0.00     0.055 C 
HETATM    3  C6  UNL     1      24.013   3.273  19.442  1.00  0.00     0.141 C 
HETATM    4  C7  UNL     1      22.845   2.333  19.630  1.00  0.00     0.070 C 
HETATM    5  C8  UNL     1      21.750   3.205  20.264  1.00  0.00     0.127 C 
HETATM    6  N1  UNL     1      22.546   3.928  21.235  1.00  0.00    -0.372 N 
HETATM    7  C9  UNL     1      22.115   4.230  22.581  1.00  0.00     0.150 C 
HETATM    8  C10 UNL     1      23.758   4.237  20.573  1.00  0.00     0.112 C 
HETATM    9  N2  UNL     1      24.538   5.214  20.897  1.00  0.00    -0.386 N 
ATOM     10  H21 UNL     1      24.365   5.866  21.663  1.00  0.00     0.157 HD
ATOM     11  H22 UNL     1      25.412   5.436  20.420  1.00  0.00     0.157 HD
HETATM   12  O1  UNL     1      25.226   2.748  19.668  1.00  0.00    -0.358 OA
HETATM   13  C11 UNL     1      25.832   1.956  18.764  1.00  0.00     0.184 C 
HETATM   14  C12 UNL     1      24.953   0.908  18.121  1.00  0.00     0.045 C 
HETATM   15  C13 UNL     1      26.583   2.651  17.665  1.00  0.00     0.237 A 
HETATM   16  N3  UNL     1      28.060   2.835  17.867  1.00  0.00    -0.122 NA
HETATM   17  S1  UNL     1      27.726   1.759  16.639  1.00  0.00    -0.001 SA
HETATM   18  O2  UNL     1      25.972   3.794  17.176  1.00  0.00    -0.309 OA
ENDROOT
BRANCH   1  19
HETATM   19  C3  UNL     1      24.159   5.099  16.139  1.00  0.00     0.032 C 
HETATM   20  C2  UNL     1      24.331   6.379  16.037  1.00  0.00    -0.028 C 
HETATM   21  C1  UNL     1      25.082   7.160  17.030  1.00  0.00     0.036 C 
ENDBRANCH   1  19
TORSDOF 1
ENDMDL
