MODEL 1
REMARK VINA RESULT: -6.852587273      0.000      0.000
REMARK  6 active torsions:
REMARK  status: ('A' for Active; 'I' for Inactive)
REMARK    1  A    between atoms: N1_1  and  C1_4 
REMARK    2  A    between atoms: N4_13  and  C5_14 
REMARK    3  A    between atoms: C5_14  and  C6_15 
REMARK    4  A    between atoms: C6_15  and  N5_16 
REMARK    5  A    between atoms: C6_15  and  C7_20 
REMARK    6  A    between atoms: C9_26  and  N8_27 
ROOT
HETATM    1  C1  UNL     1      42.399  39.330  18.077  1.00  0.00     0.146 C 
HETATM    2  N2  UNL     1      43.671  39.612  17.776  1.00  0.00    -0.305 N 
ATOM      3  H2  UNL     1      44.223  38.823  17.443  1.00  0.00     0.171 HD
HETATM    4  C2  UNL     1      44.337  40.793  17.848  1.00  0.00     0.277 C 
HETATM    5  O1  UNL     1      45.526  40.823  17.470  1.00  0.00    -0.265 OA
HETATM    6  C3  UNL     1      43.863  42.018  18.299  1.00  0.00     0.146 A 
HETATM    7  N3  UNL     1      44.574  43.098  18.591  1.00  0.00    -0.345 N 
ATOM      8  H3  UNL     1      45.588  43.183  18.525  1.00  0.00     0.167 HD
HETATM    9  C4  UNL     1      43.720  44.069  18.994  1.00  0.00     0.185 A 
HETATM   10  N4  UNL     1      42.466  43.614  18.960  1.00  0.00    -0.325 N 
HETATM   11  C8  UNL     1      42.523  42.332  18.528  1.00  0.00     0.143 A 
HETATM   12  N7  UNL     1      41.451  41.531  18.362  1.00  0.00    -0.324 N 
ATOM     13  H7  UNL     1      40.558  42.026  18.356  1.00  0.00     0.169 HD
HETATM   14  C9  UNL     1      41.341  40.212  18.205  1.00  0.00     0.145 C 
ENDROOT
BRANCH  10  15
HETATM   15  C5  UNL     1      41.248  44.276  19.294  1.00  0.00     0.173 C 
BRANCH  15  16
HETATM   16  C6  UNL     1      41.057  44.501  20.770  1.00  0.00     0.290 C 
BRANCH  16  17
HETATM   17  N5  UNL     1      42.287  44.441  21.517  1.00  0.00    -0.065 N 
ATOM     18  H53 UNL     1      42.707  43.514  21.452  1.00  0.00     0.275 HD
ATOM     19  H52 UNL     1      43.017  44.987  21.060  1.00  0.00     0.275 HD
ATOM     20  H51 UNL     1      42.180  44.722  22.492  1.00  0.00     0.275 HD
ENDBRANCH  16  17
BRANCH  16  21
HETATM   21  C7  UNL     1      40.121  43.468  21.250  1.00  0.00     0.263 C 
HETATM   22  N6  UNL     1      40.614  42.198  21.607  1.00  0.00    -0.060 NA
HETATM   23  O2  UNL     1      38.905  43.709  21.344  1.00  0.00    -0.275 OA
ENDBRANCH  16  21
ENDBRANCH  15  16
ENDBRANCH  10  15
BRANCH  14  24
HETATM   24  N8  UNL     1      40.146  39.730  18.171  1.00  0.00    -0.382 N 
ATOM     25  H82 UNL     1      39.474  40.211  17.573  1.00  0.00     0.157 HD
ATOM     26  H81 UNL     1      39.947  38.906  18.738  1.00  0.00     0.157 HD
ENDBRANCH  14  24
BRANCH   1  27
HETATM   27  N1  UNL     1      42.099  38.103  18.278  1.00  0.00    -0.382 N 
ATOM     28  H12 UNL     1      42.489  37.453  17.596  1.00  0.00     0.157 HD
ATOM     29  H11 UNL     1      41.510  37.888  19.083  1.00  0.00     0.157 HD
ENDBRANCH   1  27
TORSDOF 6
ENDMDL
MODEL 2
REMARK VINA RESULT: -6.463097991      1.903      1.922
REMARK  6 active torsions:
REMARK  status: ('A' for Active; 'I' for Inactive)
REMARK    1  A    between atoms: N1_1  and  C1_4 
REMARK    2  A    between atoms: N4_13  and  C5_14 
REMARK    3  A    between atoms: C5_14  and  C6_15 
REMARK    4  A    between atoms: C6_15  and  N5_16 
REMARK    5  A    between atoms: C6_15  and  C7_20 
REMARK    6  A    between atoms: C9_26  and  N8_27 
ROOT
HETATM    1  C1  UNL     1      41.651  39.292  16.515  1.00  0.00     0.146 C 
HETATM    2  N2  UNL     1      42.057  40.083  15.517  1.00  0.00    -0.305 N 
ATOM      3  H2  UNL     1      41.987  39.676  14.585  1.00  0.00     0.171 HD
HETATM    4  C2  UNL     1      42.550  41.348  15.559  1.00  0.00     0.277 C 
HETATM    5  O1  UNL     1      42.829  41.907  14.479  1.00  0.00    -0.265 OA
HETATM    6  C3  UNL     1      42.795  42.135  16.676  1.00  0.00     0.146 A 
HETATM    7  N3  UNL     1      43.492  43.261  16.729  1.00  0.00    -0.345 N 
ATOM      8  H3  UNL     1      43.955  43.717  15.943  1.00  0.00     0.167 HD
HETATM    9  C4  UNL     1      43.483  43.702  18.010  1.00  0.00     0.185 A 
HETATM   10  N4  UNL     1      42.784  42.862  18.775  1.00  0.00    -0.325 N 
HETATM   11  C8  UNL     1      42.340  41.870  17.968  1.00  0.00     0.143 A 
HETATM   12  N7  UNL     1      41.591  40.826  18.378  1.00  0.00    -0.324 N 
ATOM     13  H7  UNL     1      41.174  40.949  19.301  1.00  0.00     0.169 HD
HETATM   14  C9  UNL     1      41.295  39.662  17.800  1.00  0.00     0.145 C 
ENDROOT
BRANCH  10  15
HETATM   15  C5  UNL     1      42.508  42.920  20.173  1.00  0.00     0.173 C 
BRANCH  15  16
HETATM   16  C6  UNL     1      41.486  43.958  20.554  1.00  0.00     0.290 C 
BRANCH  16  17
HETATM   17  N5  UNL     1      42.032  45.023  21.358  1.00  0.00    -0.065 N 
ATOM     18  H53 UNL     1      42.556  44.648  22.148  1.00  0.00     0.275 HD
ATOM     19  H52 UNL     1      42.789  45.499  20.866  1.00  0.00     0.275 HD
ATOM     20  H51 UNL     1      41.328  45.690  21.672  1.00  0.00     0.275 HD
ENDBRANCH  16  17
BRANCH  16  21
HETATM   21  C7  UNL     1      40.414  43.266  21.290  1.00  0.00     0.263 C 
HETATM   22  N6  UNL     1      39.116  43.813  21.303  1.00  0.00    -0.060 NA
HETATM   23  O2  UNL     1      40.644  42.206  21.898  1.00  0.00    -0.275 OA
ENDBRANCH  16  21
ENDBRANCH  15  16
ENDBRANCH  10  15
BRANCH  14  24
HETATM   24  N8  UNL     1      40.624  38.818  18.507  1.00  0.00    -0.382 N 
ATOM     25  H82 UNL     1      40.470  37.897  18.097  1.00  0.00     0.157 HD
ATOM     26  H81 UNL     1      40.289  39.121  19.421  1.00  0.00     0.157 HD
ENDBRANCH  14  24
BRANCH   1  27
HETATM   27  N1  UNL     1      41.574  38.038  16.280  1.00  0.00    -0.382 N 
ATOM     28  H12 UNL     1      41.748  37.776  15.310  1.00  0.00     0.157 HD
ATOM     29  H11 UNL     1      41.349  37.425  17.063  1.00  0.00     0.157 HD
ENDBRANCH   1  27
TORSDOF 6
ENDMDL
MODEL 3
REMARK VINA RESULT: -6.157282910      1.464      5.503
REMARK  6 active torsions:
REMARK  status: ('A' for Active; 'I' for Inactive)
REMARK    1  A    between atoms: N1_1  and  C1_4 
REMARK    2  A    between atoms: N4_13  and  C5_14 
REMARK    3  A    between atoms: C5_14  and  C6_15 
REMARK    4  A    between atoms: C6_15  and  N5_16 
REMARK    5  A    between atoms: C6_15  and  C7_20 
REMARK    6  A    between atoms: C9_26  and  N8_27 
ROOT
HETATM    1  C1  UNL     1      43.537  44.194  20.973  1.00  0.00     0.146 C 
HETATM    2  N2  UNL     1      42.283  44.339  21.413  1.00  0.00    -0.305 N 
ATOM      3  H2  UNL     1      42.163  45.014  22.168  1.00  0.00     0.171 HD
HETATM    4  C2  UNL     1      41.145  43.722  21.004  1.00  0.00     0.277 C 
HETATM    5  O1  UNL     1      40.069  44.054  21.542  1.00  0.00    -0.265 OA
HETATM    6  C3  UNL     1      41.004  42.739  20.034  1.00  0.00     0.146 A 
HETATM    7  N3  UNL     1      39.944  41.976  19.809  1.00  0.00    -0.345 N 
ATOM      8  H3  UNL     1      39.065  42.005  20.325  1.00  0.00     0.167 HD
HETATM    9  C4  UNL     1      40.230  41.151  18.773  1.00  0.00     0.185 A 
HETATM   10  N4  UNL     1      41.469  41.383  18.337  1.00  0.00    -0.325 N 
HETATM   11  C8  UNL     1      41.980  42.372  19.106  1.00  0.00     0.143 A 
HETATM   12  N7  UNL     1      43.220  42.887  18.970  1.00  0.00    -0.324 N 
ATOM     13  H7  UNL     1      43.675  42.647  18.089  1.00  0.00     0.169 HD
HETATM   14  C9  UNL     1      43.959  43.651  19.773  1.00  0.00     0.145 C 
ENDROOT
BRANCH  10  15
HETATM   15  C5  UNL     1      42.191  40.760  17.276  1.00  0.00     0.173 C 
BRANCH  15  16
HETATM   16  C6  UNL     1      42.733  39.399  17.620  1.00  0.00     0.290 C 
BRANCH  16  17
HETATM   17  N5  UNL     1      41.788  38.573  18.328  1.00  0.00    -0.065 N 
ATOM     18  H53 UNL     1      42.066  38.458  19.302  1.00  0.00     0.275 HD
ATOM     19  H52 UNL     1      40.905  39.067  18.463  1.00  0.00     0.275 HD
ATOM     20  H51 UNL     1      41.633  37.668  17.885  1.00  0.00     0.275 HD
ENDBRANCH  16  17
BRANCH  16  21
HETATM   21  C7  UNL     1      43.941  39.603  18.440  1.00  0.00     0.263 C 
HETATM   22  N6  UNL     1      44.986  40.408  17.947  1.00  0.00    -0.060 NA
HETATM   23  O2  UNL     1      44.044  39.074  19.560  1.00  0.00    -0.275 OA
ENDBRANCH  16  21
ENDBRANCH  15  16
ENDBRANCH  10  15
BRANCH  14  24
HETATM   24  N8  UNL     1      45.165  43.896  19.391  1.00  0.00    -0.382 N 
ATOM     25  H82 UNL     1      45.462  44.872  19.407  1.00  0.00     0.157 HD
ATOM     26  H81 UNL     1      45.743  43.109  19.098  1.00  0.00     0.157 HD
ENDBRANCH  14  24
BRANCH   1  27
HETATM   27  N1  UNL     1      44.480  44.597  21.738  1.00  0.00    -0.382 N 
ATOM     28  H12 UNL     1      45.354  44.081  21.644  1.00  0.00     0.157 HD
ATOM     29  H11 UNL     1      44.278  45.380  22.361  1.00  0.00     0.157 HD
ENDBRANCH   1  27
TORSDOF 6
ENDMDL
MODEL 4
REMARK VINA RESULT: -6.111434156      1.404      1.451
REMARK  6 active torsions:
REMARK  status: ('A' for Active; 'I' for Inactive)
REMARK    1  A    between atoms: N1_1  and  C1_4 
REMARK    2  A    between atoms: N4_13  and  C5_14 
REMARK    3  A    between atoms: C5_14  and  C6_15 
REMARK    4  A    between atoms: C6_15  and  N5_16 
REMARK    5  A    between atoms: C6_15  and  C7_20 
REMARK    6  A    between atoms: C9_26  and  N8_27 
ROOT
HETATM    1  C1  UNL     1      42.172  38.875  17.610  1.00  0.00     0.146 C 
HETATM    2  N2  UNL     1      43.492  39.050  17.485  1.00  0.00    -0.305 N 
ATOM      3  H2  UNL     1      43.963  38.384  16.874  1.00  0.00     0.171 HD
HETATM    4  C2  UNL     1      44.299  39.984  18.051  1.00  0.00     0.277 C 
HETATM    5  O1  UNL     1      45.510  39.975  17.752  1.00  0.00    -0.265 OA
HETATM    6  C3  UNL     1      43.953  40.984  18.949  1.00  0.00     0.146 A 
HETATM    7  N3  UNL     1      44.772  41.731  19.677  1.00  0.00    -0.345 N 
ATOM      8  H3  UNL     1      45.790  41.675  19.679  1.00  0.00     0.167 HD
HETATM    9  C4  UNL     1      44.021  42.582  20.417  1.00  0.00     0.185 A 
HETATM   10  N4  UNL     1      42.727  42.381  20.165  1.00  0.00    -0.325 N 
HETATM   11  C8  UNL     1      42.652  41.387  19.250  1.00  0.00     0.143 A 
HETATM   12  N7  UNL     1      41.502  40.898  18.742  1.00  0.00    -0.324 N 
ATOM     13  H7  UNL     1      40.686  41.487  18.914  1.00  0.00     0.169 HD
HETATM   14  C9  UNL     1      41.233  39.787  18.057  1.00  0.00     0.145 C 
ENDROOT
BRANCH  10  15
HETATM   15  C5  UNL     1      41.582  43.038  20.707  1.00  0.00     0.173 C 
BRANCH  15  16
HETATM   16  C6  UNL     1      41.509  44.507  20.386  1.00  0.00     0.290 C 
BRANCH  16  17
HETATM   17  N5  UNL     1      42.197  45.332  21.346  1.00  0.00    -0.065 N 
ATOM     18  H53 UNL     1      41.880  46.300  21.286  1.00  0.00     0.275 HD
ATOM     19  H52 UNL     1      41.892  45.116  22.296  1.00  0.00     0.275 HD
ATOM     20  H51 UNL     1      43.212  45.277  21.270  1.00  0.00     0.275 HD
ENDBRANCH  16  17
BRANCH  16  21
HETATM   21  C7  UNL     1      40.082  44.872  20.334  1.00  0.00     0.263 C 
HETATM   22  N6  UNL     1      39.163  44.200  21.163  1.00  0.00    -0.060 NA
HETATM   23  O2  UNL     1      39.684  45.765  19.566  1.00  0.00    -0.275 OA
ENDBRANCH  16  21
ENDBRANCH  15  16
ENDBRANCH  10  15
BRANCH  14  24
HETATM   24  N8  UNL     1      39.993  39.552  17.796  1.00  0.00    -0.382 N 
ATOM     25  H82 UNL     1      39.692  38.578  17.832  1.00  0.00     0.157 HD
ATOM     26  H81 UNL     1      39.394  40.346  17.570  1.00  0.00     0.157 HD
ENDBRANCH  14  24
BRANCH   1  27
HETATM   27  N1  UNL     1      41.696  37.734  17.284  1.00  0.00    -0.382 N 
ATOM     28  H12 UNL     1      42.372  37.094  16.865  1.00  0.00     0.157 HD
ATOM     29  H11 UNL     1      40.706  37.568  17.465  1.00  0.00     0.157 HD
ENDBRANCH   1  27
TORSDOF 6
ENDMDL
MODEL 5
REMARK VINA RESULT: -6.041572439      1.659      5.704
REMARK  6 active torsions:
REMARK  status: ('A' for Active; 'I' for Inactive)
REMARK    1  A    between atoms: N1_1  and  C1_4 
REMARK    2  A    between atoms: N4_13  and  C5_14 
REMARK    3  A    between atoms: C5_14  and  C6_15 
REMARK    4  A    between atoms: C6_15  and  N5_16 
REMARK    5  A    between atoms: C6_15  and  C7_20 
REMARK    6  A    between atoms: C9_26  and  N8_27 
ROOT
HETATM    1  C1  UNL     1      42.386  45.299  20.861  1.00  0.00     0.146 C 
HETATM    2  N2  UNL     1      41.119  45.025  21.187  1.00  0.00    -0.305 N 
ATOM      3  H2  UNL     1      40.693  45.668  21.854  1.00  0.00     0.171 HD
HETATM    4  C2  UNL     1      40.313  44.017  20.763  1.00  0.00     0.277 C 
HETATM    5  O1  UNL     1      39.138  43.987  21.180  1.00  0.00    -0.265 OA
HETATM    6  C3  UNL     1      40.625  42.978  19.897  1.00  0.00     0.146 A 
HETATM    7  N3  UNL     1      39.922  41.876  19.676  1.00  0.00    -0.345 N 
ATOM      8  H3  UNL     1      39.037  41.632  20.119  1.00  0.00     0.167 HD
HETATM    9  C4  UNL     1      40.584  41.130  18.759  1.00  0.00     0.185 A 
HETATM   10  N4  UNL     1      41.707  41.751  18.394  1.00  0.00    -0.325 N 
HETATM   11  C8  UNL     1      41.761  42.912  19.089  1.00  0.00     0.143 A 
HETATM   12  N7  UNL     1      42.755  43.819  18.991  1.00  0.00    -0.324 N 
ATOM     13  H7  UNL     1      43.357  43.690  18.177  1.00  0.00     0.169 HD
HETATM   14  C9  UNL     1      43.095  44.852  19.761  1.00  0.00     0.145 C 
ENDROOT
BRANCH  10  15
HETATM   15  C5  UNL     1      42.709  41.347  17.463  1.00  0.00     0.173 C 
BRANCH  15  16
HETATM   16  C6  UNL     1      44.057  41.093  18.084  1.00  0.00     0.290 C 
BRANCH  16  17
HETATM   17  N5  UNL     1      45.155  41.411  17.206  1.00  0.00    -0.065 N 
ATOM     18  H53 UNL     1      45.416  42.393  17.292  1.00  0.00     0.275 HD
ATOM     19  H52 UNL     1      46.019  40.978  17.534  1.00  0.00     0.275 HD
ATOM     20  H51 UNL     1      44.974  41.168  16.233  1.00  0.00     0.275 HD
ENDBRANCH  16  17
BRANCH  16  21
HETATM   21  C7  UNL     1      44.104  39.669  18.460  1.00  0.00     0.263 C 
HETATM   22  N6  UNL     1      44.714  39.291  19.671  1.00  0.00    -0.060 NA
HETATM   23  O2  UNL     1      43.612  38.801  17.718  1.00  0.00    -0.275 OA
ENDBRANCH  16  21
ENDBRANCH  15  16
ENDBRANCH  10  15
BRANCH  14  24
HETATM   24  N8  UNL     1      44.177  45.478  19.445  1.00  0.00    -0.382 N 
ATOM     25  H82 UNL     1      44.280  45.750  18.468  1.00  0.00     0.157 HD
ATOM     26  H81 UNL     1      44.856  45.661  20.183  1.00  0.00     0.157 HD
ENDBRANCH  14  24
BRANCH   1  27
HETATM   27  N1  UNL     1      43.044  46.064  21.646  1.00  0.00    -0.382 N 
ATOM     28  H12 UNL     1      42.495  46.812  22.070  1.00  0.00     0.157 HD
ATOM     29  H11 UNL     1      44.036  45.865  21.775  1.00  0.00     0.157 HD
ENDBRANCH   1  27
TORSDOF 6
ENDMDL
