MODEL 1
REMARK VINA RESULT: -5.976122994      0.000      0.000
REMARK  13 active torsions:
REMARK  status: ('A' for Active; 'I' for Inactive)
REMARK    1  A    between atoms: N1_1  and  C1_4 
REMARK    2  A    between atoms: C2_7  and  C3_8 
REMARK    3  A    between atoms: C4_10  and  C5_11 
REMARK    4  A    between atoms: C5_11  and  O2_12 
REMARK    5  A    between atoms: O2_12  and  C6_13 
REMARK    6  A    between atoms: C6_13  and  C7_14 
REMARK    7  A    between atoms: C7_14  and  O3_15 
REMARK    8  A    between atoms: C8_20  and  O4_21 
REMARK    9  A    between atoms: C9_23  and  O5_24 
REMARK   10  A    between atoms: C9_23  and  O6_26 
REMARK   11  A    between atoms: C10_28  and  N4_29 
REMARK   12  A    between atoms: C12_38  and  O7_39 
REMARK   13  A    between atoms: C13_43  and  N10_44 
ROOT
HETATM    1  C3  UNL     1      33.092  10.191   9.709  1.00  0.00     0.211 C 
HETATM    2  O1  UNL     1      32.530  11.448   9.318  1.00  0.00    -0.323 OA
HETATM    3  C4  UNL     1      32.484  12.192  10.543  1.00  0.00     0.279 C 
HETATM    4  N3  UNL     1      31.343  11.618  11.288  1.00  0.00    -0.007 N 
ATOM      5  H31 UNL     1      30.602  12.303  11.438  1.00  0.00     0.284 HD
ATOM      6  H32 UNL     1      31.578  11.433  12.263  1.00  0.00     0.284 HD
HETATM    7  C8  UNL     1      30.859  10.443  10.622  1.00  0.00     0.389 C 
HETATM    8  C9  UNL     1      32.086   9.501  10.574  1.00  0.00     0.255 C 
HETATM    9  C10 UNL     1      33.748  11.929  11.157  1.00  0.00     0.226 C 
HETATM   10  C12 UNL     1      34.282  10.655  10.439  1.00  0.00     0.197 C 
ENDROOT
BRANCH   1  11
HETATM   11  C2  UNL     1      33.325   9.535   8.400  1.00  0.00     0.156 A 
HETATM   12  N2  UNL     1      32.364   9.285   7.506  1.00  0.00    -0.176 N 
HETATM   13  C1  UNL     1      32.565   8.757   6.313  1.00  0.00     0.691 A 
ATOM     14  H2  UNL     1      31.406   9.518   7.765  1.00  0.00     0.185 HD
HETATM   15  N11 UNL     1      33.827   8.437   5.952  1.00  0.00    -0.023 N 
HETATM   16  C13 UNL     1      34.820   8.673   6.831  1.00  0.00     0.691 A 
ATOM     17  H11 UNL     1      34.022   8.027   5.039  1.00  0.00     0.203 HD
HETATM   18  N9  UNL     1      34.574   9.223   8.060  1.00  0.00    -0.176 N 
ATOM     19  H9  UNL     1      35.342   9.392   8.711  1.00  0.00     0.185 HD
BRANCH  13  20
HETATM   20  N1  UNL     1      31.552   8.556   5.524  1.00  0.00    -0.234 N 
ATOM     21  H12 UNL     1      31.001   7.699   5.561  1.00  0.00     0.174 HD
ATOM     22  H11 UNL     1      31.293   9.276   4.848  1.00  0.00     0.174 HD
ENDBRANCH  13  20
BRANCH  16  23
HETATM   23  N10 UNL     1      36.001   8.365   6.479  1.00  0.00    -0.234 N 
ATOM     24 2H10 UNL     1      36.579   9.099   6.071  1.00  0.00     0.174 HD
ATOM     25 1H10 UNL     1      36.352   7.415   6.602  1.00  0.00     0.174 HD
ENDBRANCH  16  23
ENDBRANCH   1  11
BRANCH   8  26
HETATM   26  O5  UNL     1      31.699   8.260  10.167  1.00  0.00    -0.359 OA
ATOM     27  H5  UNL     1      31.906   7.546  10.757  1.00  0.00     0.213 HD
ENDBRANCH   8  26
BRANCH   8  28
HETATM   28  O6  UNL     1      32.503   9.395  11.894  1.00  0.00    -0.359 OA
ATOM     29  H6  UNL     1      32.639   8.494  12.161  1.00  0.00     0.213 HD
ENDBRANCH   8  28
BRANCH  10  30
HETATM   30  O7  UNL     1      34.776   9.751  11.377  1.00  0.00    -0.389 OA
ATOM     31  H7  UNL     1      35.590   9.327  11.128  1.00  0.00     0.210 HD
ENDBRANCH  10  30
BRANCH   3  32
HETATM   32  C5  UNL     1      32.031  13.578  10.140  1.00  0.00     0.239 C 
BRANCH  32  33
HETATM   33  O2  UNL     1      32.830  14.060   9.127  1.00  0.00    -0.384 OA
BRANCH  33  34
HETATM   34  C6  UNL     1      33.136  15.414   9.267  1.00  0.00     0.193 C 
BRANCH  34  35
HETATM   35  C7  UNL     1      32.650  15.933  10.621  1.00  0.00     0.190 C 
BRANCH  35  36
HETATM   36  O3  UNL     1      33.801  16.440  11.277  1.00  0.00    -0.399 OA
ATOM     37  H3  UNL     1      34.338  15.683  11.480  1.00  0.00     0.209 HD
ENDBRANCH  35  36
ENDBRANCH  34  35
ENDBRANCH  33  34
ENDBRANCH  32  33
ENDBRANCH   3  32
BRANCH   7  38
HETATM   38  O4  UNL     1      29.803   9.863  11.270  1.00  0.00    -0.365 OA
ATOM     39  H4  UNL     1      28.978  10.301  11.095  1.00  0.00     0.212 HD
ENDBRANCH   7  38
BRANCH   9  40
HETATM   40  N4  UNL     1      34.808  12.907  11.180  1.00  0.00    -0.205 N 
HETATM   41  N5  UNL     1      35.108  13.746  12.146  1.00  0.00    -0.223 N 
HETATM   42  N6  UNL     1      36.120  14.537  11.789  1.00  0.00    -0.256 N 
ATOM     43  H5  UNL     1      34.632  13.787  13.047  1.00  0.00     0.210 HD
HETATM   44  C11 UNL     1      36.487  14.189  10.540  1.00  0.00     0.224 A 
ATOM     45  H6  UNL     1      36.540  15.273  12.358  1.00  0.00     0.191 HD
HETATM   46  N7  UNL     1      37.533  14.808   9.775  1.00  0.00    -0.061 NA
HETATM   47  N8  UNL     1      35.663  13.186  10.190  1.00  0.00    -0.254 N 
ATOM     48  H8  UNL     1      35.687  12.703   9.292  1.00  0.00     0.191 HD
ENDBRANCH   9  40
TORSDOF 13
ENDMDL
MODEL 2
REMARK VINA RESULT: -5.858295270      3.042      6.665
REMARK  13 active torsions:
REMARK  status: ('A' for Active; 'I' for Inactive)
REMARK    1  A    between atoms: N1_1  and  C1_4 
REMARK    2  A    between atoms: C2_7  and  C3_8 
REMARK    3  A    between atoms: C4_10  and  C5_11 
REMARK    4  A    between atoms: C5_11  and  O2_12 
REMARK    5  A    between atoms: O2_12  and  C6_13 
REMARK    6  A    between atoms: C6_13  and  C7_14 
REMARK    7  A    between atoms: C7_14  and  O3_15 
REMARK    8  A    between atoms: C8_20  and  O4_21 
REMARK    9  A    between atoms: C9_23  and  O5_24 
REMARK   10  A    between atoms: C9_23  and  O6_26 
REMARK   11  A    between atoms: C10_28  and  N4_29 
REMARK   12  A    between atoms: C12_38  and  O7_39 
REMARK   13  A    between atoms: C13_43  and  N10_44 
ROOT
HETATM    1  C3  UNL     1      33.377  15.377   9.260  1.00  0.00     0.211 C 
HETATM    2  O1  UNL     1      33.929  14.056   9.277  1.00  0.00    -0.323 OA
HETATM    3  C4  UNL     1      33.567  13.556  10.572  1.00  0.00     0.279 C 
HETATM    4  N3  UNL     1      34.488  14.236  11.508  1.00  0.00    -0.007 N 
ATOM      5  H31 UNL     1      35.100  13.576  11.987  1.00  0.00     0.284 HD
ATOM      6  H32 UNL     1      33.999  14.607  12.322  1.00  0.00     0.284 HD
HETATM    7  C8  UNL     1      35.230  15.253  10.820  1.00  0.00     0.389 C 
HETATM    8  C9  UNL     1      34.144  16.195  10.249  1.00  0.00     0.255 C 
HETATM    9  C10 UNL     1      32.204  13.958  10.730  1.00  0.00     0.226 C 
HETATM   10  C12 UNL     1      31.996  15.085   9.675  1.00  0.00     0.197 C 
ENDROOT
BRANCH   1  11
HETATM   11  C2  UNL     1      33.579  15.778   7.847  1.00  0.00     0.156 A 
HETATM   12  N2  UNL     1      34.774  16.007   7.297  1.00  0.00    -0.176 N 
HETATM   13  C1  UNL     1      34.973  16.306   6.027  1.00  0.00     0.691 A 
ATOM     14  H2  UNL     1      35.592  15.947   7.903  1.00  0.00     0.185 HD
HETATM   15  N11 UNL     1      33.903  16.394   5.208  1.00  0.00    -0.023 N 
HETATM   16  C13 UNL     1      32.681  16.172   5.731  1.00  0.00     0.691 A 
ATOM     17  H11 UNL     1      34.017  16.623   4.221  1.00  0.00     0.203 HD
HETATM   18  N9  UNL     1      32.512  15.864   7.054  1.00  0.00    -0.176 N 
ATOM     19  H9  UNL     1      31.578  15.701   7.429  1.00  0.00     0.185 HD
BRANCH  13  20
HETATM   20  N1  UNL     1      36.184  16.510   5.600  1.00  0.00    -0.234 N 
ATOM     21  H12 UNL     1      36.993  16.435   6.217  1.00  0.00     0.174 HD
ATOM     22  H11 UNL     1      36.337  16.749   4.620  1.00  0.00     0.174 HD
ENDBRANCH  13  20
BRANCH  16  23
HETATM   23  N10 UNL     1      31.683  16.262   4.950  1.00  0.00    -0.234 N 
ATOM     24 2H10 UNL     1      30.922  16.882   5.226  1.00  0.00     0.174 HD
ATOM     25 1H10 UNL     1      31.649  15.728   4.081  1.00  0.00     0.174 HD
ENDBRANCH  16  23
ENDBRANCH   1  11
BRANCH   8  26
HETATM   26  O5  UNL     1      34.724  17.328   9.764  1.00  0.00    -0.359 OA
ATOM     27  H5  UNL     1      34.147  17.930   9.311  1.00  0.00     0.213 HD
ENDBRANCH   8  26
BRANCH   8  28
HETATM   28  O6  UNL     1      33.376  16.559  11.348  1.00  0.00    -0.359 OA
ATOM     29  H6  UNL     1      33.060  17.452  11.291  1.00  0.00     0.213 HD
ENDBRANCH   8  28
BRANCH  10  30
HETATM   30  O7  UNL     1      31.325  16.162  10.254  1.00  0.00    -0.389 OA
ATOM     31  H7  UNL     1      31.002  15.999  11.133  1.00  0.00     0.210 HD
ENDBRANCH  10  30
BRANCH   3  32
HETATM   32  C5  UNL     1      34.008  12.110  10.568  1.00  0.00     0.239 C 
BRANCH  32  33
HETATM   33  O2  UNL     1      33.249  11.386   9.675  1.00  0.00    -0.384 OA
BRANCH  33  34
HETATM   34  C6  UNL     1      33.079  10.055  10.053  1.00  0.00     0.193 C 
BRANCH  34  35
HETATM   35  C7  UNL     1      32.331   9.283   8.965  1.00  0.00     0.190 C 
BRANCH  35  36
HETATM   36  O3  UNL     1      31.420  10.207   8.391  1.00  0.00    -0.399 OA
ATOM     37  H3  UNL     1      30.564   9.800   8.452  1.00  0.00     0.209 HD
ENDBRANCH  35  36
ENDBRANCH  34  35
ENDBRANCH  33  34
ENDBRANCH  32  33
ENDBRANCH   3  32
BRANCH   7  38
HETATM   38  O4  UNL     1      36.098  15.921  11.639  1.00  0.00    -0.365 OA
ATOM     39  H4  UNL     1      35.898  16.847  11.712  1.00  0.00     0.212 HD
ENDBRANCH   7  38
BRANCH   9  40
HETATM   40  N4  UNL     1      31.110  13.026  10.610  1.00  0.00    -0.205 N 
HETATM   41  N5  UNL     1      30.381  12.773   9.545  1.00  0.00    -0.223 N 
HETATM   42  N6  UNL     1      29.424  11.890   9.826  1.00  0.00    -0.256 N 
ATOM     43  H5  UNL     1      30.529  13.195   8.628  1.00  0.00     0.210 HD
HETATM   44  C11 UNL     1      29.544  11.559  11.127  1.00  0.00     0.224 A 
ATOM     45  H6  UNL     1      28.726  11.529   9.174  1.00  0.00     0.191 HD
HETATM   46  N7  UNL     1      28.694  10.645  11.838  1.00  0.00    -0.061 NA
HETATM   47  N8  UNL     1      30.588  12.274  11.584  1.00  0.00    -0.254 N 
ATOM     48  H8  UNL     1      30.933  12.245  12.543  1.00  0.00     0.191 HD
ENDBRANCH   9  40
TORSDOF 13
ENDMDL
MODEL 3
REMARK VINA RESULT: -5.798353040      0.562      1.527
REMARK  13 active torsions:
REMARK  status: ('A' for Active; 'I' for Inactive)
REMARK    1  A    between atoms: N1_1  and  C1_4 
REMARK    2  A    between atoms: C2_7  and  C3_8 
REMARK    3  A    between atoms: C4_10  and  C5_11 
REMARK    4  A    between atoms: C5_11  and  O2_12 
REMARK    5  A    between atoms: O2_12  and  C6_13 
REMARK    6  A    between atoms: C6_13  and  C7_14 
REMARK    7  A    between atoms: C7_14  and  O3_15 
REMARK    8  A    between atoms: C8_20  and  O4_21 
REMARK    9  A    between atoms: C9_23  and  O5_24 
REMARK   10  A    between atoms: C9_23  and  O6_26 
REMARK   11  A    between atoms: C10_28  and  N4_29 
REMARK   12  A    between atoms: C12_38  and  O7_39 
REMARK   13  A    between atoms: C13_43  and  N10_44 
ROOT
HETATM    1  C3  UNL     1      33.456   9.995   9.740  1.00  0.00     0.211 C 
HETATM    2  O1  UNL     1      32.955  11.298   9.425  1.00  0.00    -0.323 OA
HETATM    3  C4  UNL     1      32.832  11.931  10.706  1.00  0.00     0.279 C 
HETATM    4  N3  UNL     1      31.625  11.327  11.308  1.00  0.00    -0.007 N 
ATOM      5  H31 UNL     1      30.890  12.018  11.465  1.00  0.00     0.284 HD
ATOM      6  H32 UNL     1      31.780  11.049  12.277  1.00  0.00     0.284 HD
HETATM    7  C8  UNL     1      31.167  10.231  10.504  1.00  0.00     0.389 C 
HETATM    8  C9  UNL     1      32.371   9.261  10.461  1.00  0.00     0.255 C 
HETATM    9  C10 UNL     1      34.039  11.577  11.385  1.00  0.00     0.226 C 
HETATM   10  C12 UNL     1      34.598  10.357  10.596  1.00  0.00     0.197 C 
ENDROOT
BRANCH   1  11
HETATM   11  C2  UNL     1      33.774   9.452   8.397  1.00  0.00     0.156 A 
HETATM   12  N2  UNL     1      34.994   9.069   8.014  1.00  0.00    -0.176 N 
HETATM   13  C1  UNL     1      35.281   8.529   6.844  1.00  0.00     0.691 A 
ATOM     14  H2  UNL     1      35.761   9.204   8.674  1.00  0.00     0.185 HD
HETATM   15  N11 UNL     1      34.281   8.345   5.955  1.00  0.00    -0.023 N 
HETATM   16  C13 UNL     1      33.037   8.724   6.307  1.00  0.00     0.691 A 
ATOM     17  H11 UNL     1      34.463   7.931   5.041  1.00  0.00     0.203 HD
HETATM   18  N9  UNL     1      32.777   9.280   7.531  1.00  0.00    -0.176 N 
ATOM     19  H9  UNL     1      31.827   9.561   7.776  1.00  0.00     0.185 HD
BRANCH  13  20
HETATM   20  N1  UNL     1      36.508   8.194   6.578  1.00  0.00    -0.234 N 
ATOM     21  H12 UNL     1      37.301   8.746   6.906  1.00  0.00     0.174 HD
ATOM     22  H11 UNL     1      36.691   7.354   6.029  1.00  0.00     0.174 HD
ENDBRANCH  13  20
BRANCH  16  23
HETATM   23  N10 UNL     1      32.107   8.548   5.461  1.00  0.00    -0.234 N 
ATOM     24 2H10 UNL     1      32.259   7.852   4.731  1.00  0.00     0.174 HD
ATOM     25 1H10 UNL     1      31.242   9.086   5.513  1.00  0.00     0.174 HD
ENDBRANCH  16  23
ENDBRANCH   1  11
BRANCH   8  26
HETATM   26  O5  UNL     1      31.989   8.074   9.915  1.00  0.00    -0.359 OA
ATOM     27  H5  UNL     1      31.189   8.089   9.403  1.00  0.00     0.213 HD
ENDBRANCH   8  26
BRANCH   8  28
HETATM   28  O6  UNL     1      32.683   9.025  11.794  1.00  0.00    -0.359 OA
ATOM     29  H6  UNL     1      32.232   9.617  12.383  1.00  0.00     0.213 HD
ENDBRANCH   8  28
BRANCH  10  30
HETATM   30  O7  UNL     1      34.997   9.357  11.482  1.00  0.00    -0.389 OA
ATOM     31  H7  UNL     1      34.864   9.566  12.399  1.00  0.00     0.210 HD
ENDBRANCH  10  30
BRANCH   3  32
HETATM   32  C5  UNL     1      32.444  13.360  10.398  1.00  0.00     0.239 C 
BRANCH  32  33
HETATM   33  O2  UNL     1      33.236  13.858   9.388  1.00  0.00    -0.384 OA
BRANCH  33  34
HETATM   34  C6  UNL     1      33.366  15.246   9.426  1.00  0.00     0.193 C 
BRANCH  34  35
HETATM   35  C7  UNL     1      33.208  15.758  10.860  1.00  0.00     0.190 C 
BRANCH  35  36
HETATM   36  O3  UNL     1      34.508  16.139  11.281  1.00  0.00    -0.399 OA
ATOM     37  H3  UNL     1      34.420  16.400  12.190  1.00  0.00     0.209 HD
ENDBRANCH  35  36
ENDBRANCH  34  35
ENDBRANCH  33  34
ENDBRANCH  32  33
ENDBRANCH   3  32
BRANCH   7  38
HETATM   38  O4  UNL     1      30.051   9.628  11.015  1.00  0.00    -0.365 OA
ATOM     39  H4  UNL     1      29.763  10.017  11.833  1.00  0.00     0.212 HD
ENDBRANCH   7  38
BRANCH   9  40
HETATM   40  N4  UNL     1      35.117  12.516  11.577  1.00  0.00    -0.205 N 
HETATM   41  N5  UNL     1      35.335  13.291  12.617  1.00  0.00    -0.223 N 
HETATM   42  N6  UNL     1      36.399  14.066  12.414  1.00  0.00    -0.256 N 
ATOM     43  H5  UNL     1      34.767  13.297  13.463  1.00  0.00     0.210 HD
HETATM   44  C11 UNL     1      36.889  13.776  11.192  1.00  0.00     0.224 A 
ATOM     45  H6  UNL     1      36.776  14.755  13.066  1.00  0.00     0.191 HD
HETATM   46  N7  UNL     1      38.026  14.402  10.578  1.00  0.00    -0.061 NA
HETATM   47  N8  UNL     1      36.080  12.821  10.699  1.00  0.00    -0.254 N 
ATOM     48  H8  UNL     1      36.186  12.388   9.782  1.00  0.00     0.191 HD
ENDBRANCH   9  40
TORSDOF 13
ENDMDL
MODEL 4
REMARK VINA RESULT: -5.745555242      1.942      2.632
REMARK  13 active torsions:
REMARK  status: ('A' for Active; 'I' for Inactive)
REMARK    1  A    between atoms: N1_1  and  C1_4 
REMARK    2  A    between atoms: C2_7  and  C3_8 
REMARK    3  A    between atoms: C4_10  and  C5_11 
REMARK    4  A    between atoms: C5_11  and  O2_12 
REMARK    5  A    between atoms: O2_12  and  C6_13 
REMARK    6  A    between atoms: C6_13  and  C7_14 
REMARK    7  A    between atoms: C7_14  and  O3_15 
REMARK    8  A    between atoms: C8_20  and  O4_21 
REMARK    9  A    between atoms: C9_23  and  O5_24 
REMARK   10  A    between atoms: C9_23  and  O6_26 
REMARK   11  A    between atoms: C10_28  and  N4_29 
REMARK   12  A    between atoms: C12_38  and  O7_39 
REMARK   13  A    between atoms: C13_43  and  N10_44 
ROOT
HETATM    1  C3  UNL     1      31.561  11.697   9.950  1.00  0.00     0.211 C 
HETATM    2  O1  UNL     1      31.196  13.074   9.816  1.00  0.00    -0.323 OA
HETATM    3  C4  UNL     1      31.791  13.694  10.965  1.00  0.00     0.279 C 
HETATM    4  N3  UNL     1      30.921  13.302  12.094  1.00  0.00    -0.007 N 
ATOM      5  H31 UNL     1      30.471  14.110  12.527  1.00  0.00     0.284 HD
ATOM      6  H32 UNL     1      31.460  12.982  12.899  1.00  0.00     0.284 HD
HETATM    7  C8  UNL     1      29.965  12.322  11.666  1.00  0.00     0.389 C 
HETATM    8  C9  UNL     1      30.831  11.154  11.137  1.00  0.00     0.255 C 
HETATM    9  C10 UNL     1      33.097  13.117  11.033  1.00  0.00     0.226 C 
HETATM   10  C12 UNL     1      33.012  11.832  10.157  1.00  0.00     0.197 C 
ENDROOT
BRANCH   1  11
HETATM   11  C2  UNL     1      31.122  11.133   8.651  1.00  0.00     0.156 A 
HETATM   12  N2  UNL     1      30.120  11.628   7.920  1.00  0.00    -0.176 N 
HETATM   13  C1  UNL     1      29.757  11.174   6.735  1.00  0.00     0.691 A 
ATOM     14  H2  UNL     1      29.598  12.415   8.306  1.00  0.00     0.185 HD
HETATM   15  N11 UNL     1      30.433  10.131   6.208  1.00  0.00    -0.023 N 
HETATM   16  C13 UNL     1      31.448   9.603   6.920  1.00  0.00     0.691 A 
ATOM     17  H11 UNL     1      30.182   9.752   5.294  1.00  0.00     0.203 HD
HETATM   18  N9  UNL     1      31.797  10.101   8.147  1.00  0.00    -0.176 N 
ATOM     19  H9  UNL     1      32.568   9.685   8.670  1.00  0.00     0.185 HD
BRANCH  13  20
HETATM   20  N1  UNL     1      28.764  11.736   6.112  1.00  0.00    -0.234 N 
ATOM     21  H12 UNL     1      27.852  11.860   6.552  1.00  0.00     0.174 HD
ATOM     22  H11 UNL     1      28.894  12.067   5.156  1.00  0.00     0.174 HD
ENDBRANCH  13  20
BRANCH  16  23
HETATM   23  N10 UNL     1      32.073   8.621   6.414  1.00  0.00    -0.234 N 
ATOM     24 2H10 UNL     1      32.588   8.011   7.049  1.00  0.00     0.174 HD
ATOM     25 1H10 UNL     1      32.058   8.453   5.408  1.00  0.00     0.174 HD
ENDBRANCH  16  23
ENDBRANCH   1  11
BRANCH   8  26
HETATM   26  O5  UNL     1      30.046  10.065  10.908  1.00  0.00    -0.359 OA
ATOM     27  H5  UNL     1      29.443   9.833  11.604  1.00  0.00     0.213 HD
ENDBRANCH   8  26
BRANCH   8  28
HETATM   28  O6  UNL     1      31.683  10.840  12.187  1.00  0.00    -0.359 OA
ATOM     29  H6  UNL     1      31.224  10.752  13.014  1.00  0.00     0.213 HD
ENDBRANCH   8  28
BRANCH  10  30
HETATM   30  O7  UNL     1      33.605  10.760  10.823  1.00  0.00    -0.389 OA
ATOM     31  H7  UNL     1      34.192  10.238  10.287  1.00  0.00     0.210 HD
ENDBRANCH  10  30
BRANCH   3  32
HETATM   32  C5  UNL     1      31.549  15.175  10.777  1.00  0.00     0.239 C 
BRANCH  32  33
HETATM   33  O2  UNL     1      31.337  15.454   9.446  1.00  0.00    -0.384 OA
BRANCH  33  34
HETATM   34  C6  UNL     1      32.217  16.410   8.939  1.00  0.00     0.193 C 
BRANCH  34  35
HETATM   35  C7  UNL     1      33.053  15.816   7.804  1.00  0.00     0.190 C 
BRANCH  35  36
HETATM   36  O3  UNL     1      32.126  15.221   6.910  1.00  0.00    -0.399 OA
ATOM     37  H3  UNL     1      32.554  14.444   6.571  1.00  0.00     0.209 HD
ENDBRANCH  35  36
ENDBRANCH  34  35
ENDBRANCH  33  34
ENDBRANCH  32  33
ENDBRANCH   3  32
BRANCH   7  38
HETATM   38  O4  UNL     1      29.133  11.917  12.673  1.00  0.00    -0.365 OA
ATOM     39  H4  UNL     1      28.275  12.325  12.629  1.00  0.00     0.212 HD
ENDBRANCH   7  38
BRANCH   9  40
HETATM   40  N4  UNL     1      34.279  13.845  10.643  1.00  0.00    -0.205 N 
HETATM   41  N5  UNL     1      35.164  13.515   9.728  1.00  0.00    -0.223 N 
HETATM   42  N6  UNL     1      36.153  14.406   9.682  1.00  0.00    -0.256 N 
ATOM     43  H5  UNL     1      35.101  12.689   9.133  1.00  0.00     0.210 HD
HETATM   44  C11 UNL     1      35.892  15.352  10.607  1.00  0.00     0.224 A 
ATOM     45  H6  UNL     1      36.962  14.378   9.061  1.00  0.00     0.191 HD
HETATM   46  N7  UNL     1      36.722  16.489  10.895  1.00  0.00    -0.061 NA
HETATM   47  N8  UNL     1      34.735  14.981  11.184  1.00  0.00    -0.254 N 
ATOM     48  H8  UNL     1      34.269  15.495  11.931  1.00  0.00     0.191 HD
ENDBRANCH   9  40
TORSDOF 13
ENDMDL
MODEL 5
REMARK VINA RESULT: -5.730419062      1.953      2.873
REMARK  13 active torsions:
REMARK  status: ('A' for Active; 'I' for Inactive)
REMARK    1  A    between atoms: N1_1  and  C1_4 
REMARK    2  A    between atoms: C2_7  and  C3_8 
REMARK    3  A    between atoms: C4_10  and  C5_11 
REMARK    4  A    between atoms: C5_11  and  O2_12 
REMARK    5  A    between atoms: O2_12  and  C6_13 
REMARK    6  A    between atoms: C6_13  and  C7_14 
REMARK    7  A    between atoms: C7_14  and  O3_15 
REMARK    8  A    between atoms: C8_20  and  O4_21 
REMARK    9  A    between atoms: C9_23  and  O5_24 
REMARK   10  A    between atoms: C9_23  and  O6_26 
REMARK   11  A    between atoms: C10_28  and  N4_29 
REMARK   12  A    between atoms: C12_38  and  O7_39 
REMARK   13  A    between atoms: C13_43  and  N10_44 
ROOT
HETATM    1  C3  UNL     1      31.490  11.738   9.920  1.00  0.00     0.211 C 
HETATM    2  O1  UNL     1      31.107  13.114   9.844  1.00  0.00    -0.323 OA
HETATM    3  C4  UNL     1      31.667  13.687  11.034  1.00  0.00     0.279 C 
HETATM    4  N3  UNL     1      30.779  13.229  12.124  1.00  0.00    -0.007 N 
ATOM      5  H31 UNL     1      30.308  14.008  12.584  1.00  0.00     0.284 HD
ATOM      6  H32 UNL     1      31.307  12.879  12.924  1.00  0.00     0.284 HD
HETATM    7  C8  UNL     1      29.849  12.257  11.628  1.00  0.00     0.389 C 
HETATM    8  C9  UNL     1      30.744  11.128  11.064  1.00  0.00     0.255 C 
HETATM    9  C10 UNL     1      32.980  13.126  11.103  1.00  0.00     0.226 C 
HETATM   10  C12 UNL     1      32.933  11.884  10.165  1.00  0.00     0.197 C 
ENDROOT
BRANCH   1  11
HETATM   11  C2  UNL     1      31.087  11.230   8.587  1.00  0.00     0.156 A 
HETATM   12  N2  UNL     1      31.661  10.190   7.976  1.00  0.00    -0.176 N 
HETATM   13  C1  UNL     1      31.274   9.690   6.817  1.00  0.00     0.691 A 
ATOM     14  H2  UNL     1      32.456   9.750   8.440  1.00  0.00     0.185 HD
HETATM   15  N11 UNL     1      30.225  10.260   6.186  1.00  0.00    -0.023 N 
HETATM   16  C13 UNL     1      29.624  11.314   6.771  1.00  0.00     0.691 A 
ATOM     17  H11 UNL     1      29.897   9.902   5.288  1.00  0.00     0.203 HD
HETATM   18  N9  UNL     1      30.053  11.805   7.975  1.00  0.00    -0.176 N 
ATOM     19  H9  UNL     1      29.584  12.606   8.400  1.00  0.00     0.185 HD
BRANCH  13  20
HETATM   20  N1  UNL     1      31.909   8.673   6.316  1.00  0.00    -0.234 N 
ATOM     21  H12 UNL     1      32.626   8.172   6.842  1.00  0.00     0.174 HD
ATOM     22  H11 UNL     1      31.688   8.359   5.371  1.00  0.00     0.174 HD
ENDBRANCH  13  20
BRANCH  16  23
HETATM   23  N10 UNL     1      28.642  11.842   6.165  1.00  0.00    -0.234 N 
ATOM     24 2H10 UNL     1      28.189  11.294   5.433  1.00  0.00     0.174 HD
ATOM     25 1H10 UNL     1      28.321  12.780   6.404  1.00  0.00     0.174 HD
ENDBRANCH  16  23
ENDBRANCH   1  11
BRANCH   8  26
HETATM   26  O5  UNL     1      29.981  10.039  10.766  1.00  0.00    -0.359 OA
ATOM     27  H5  UNL     1      29.533   9.633  11.498  1.00  0.00     0.213 HD
ENDBRANCH   8  26
BRANCH   8  28
HETATM   28  O6  UNL     1      31.578  10.776  12.116  1.00  0.00    -0.359 OA
ATOM     29  H6  UNL     1      31.714  11.490  12.727  1.00  0.00     0.213 HD
ENDBRANCH   8  28
BRANCH  10  30
HETATM   30  O7  UNL     1      33.529  10.790  10.792  1.00  0.00    -0.389 OA
ATOM     31  H7  UNL     1      33.548   9.997  10.268  1.00  0.00     0.210 HD
ENDBRANCH  10  30
BRANCH   3  32
HETATM   32  C5  UNL     1      31.406  15.171  10.912  1.00  0.00     0.239 C 
BRANCH  32  33
HETATM   33  O2  UNL     1      31.231  15.514   9.590  1.00  0.00    -0.384 OA
BRANCH  33  34
HETATM   34  C6  UNL     1      32.191  16.412   9.124  1.00  0.00     0.193 C 
BRANCH  34  35
HETATM   35  C7  UNL     1      32.863  15.868   7.862  1.00  0.00     0.190 C 
BRANCH  35  36
HETATM   36  O3  UNL     1      31.971  14.900   7.335  1.00  0.00    -0.399 OA
ATOM     37  H3  UNL     1      31.951  15.048   6.397  1.00  0.00     0.209 HD
ENDBRANCH  35  36
ENDBRANCH  34  35
ENDBRANCH  33  34
ENDBRANCH  32  33
ENDBRANCH   3  32
BRANCH   7  38
HETATM   38  O4  UNL     1      29.002  11.792  12.597  1.00  0.00    -0.365 OA
ATOM     39  H4  UNL     1      28.802  10.867  12.500  1.00  0.00     0.212 HD
ENDBRANCH   7  38
BRANCH   9  40
HETATM   40  N4  UNL     1      34.159  13.890  10.774  1.00  0.00    -0.205 N 
HETATM   41  N5  UNL     1      34.589  14.994  11.345  1.00  0.00    -0.223 N 
HETATM   42  N6  UNL     1      35.686  15.444  10.738  1.00  0.00    -0.256 N 
ATOM     43  H5  UNL     1      34.143  15.443  12.144  1.00  0.00     0.210 HD
HETATM   44  C11 UNL     1      35.976  14.592   9.735  1.00  0.00     0.224 A 
ATOM     45  H6  UNL     1      36.211  16.283  10.987  1.00  0.00     0.191 HD
HETATM   46  N7  UNL     1      37.076  14.722   8.820  1.00  0.00    -0.061 NA
HETATM   47  N8  UNL     1      35.020  13.647   9.780  1.00  0.00    -0.254 N 
ATOM     48  H8  UNL     1      34.960  12.853   9.142  1.00  0.00     0.191 HD
ENDBRANCH   9  40
TORSDOF 13
ENDMDL
