MODEL 1
REMARK VINA RESULT: -7.612635125      0.000      0.000
REMARK  9 active torsions:
REMARK  status: ('A' for Active; 'I' for Inactive)
REMARK    1  A    between atoms: N1_2  and  C2_4 
REMARK    2  A    between atoms: C3_7  and  N3_8 
REMARK    3  A    between atoms: N3_8  and  C5_10 
REMARK    4  A    between atoms: C5_10  and  C6_11 
REMARK    5  A    between atoms: C6_11  and  O1_12 
REMARK    6  A    between atoms: C6_11  and  C7_14 
REMARK    7  A    between atoms: C7_14  and  O2_15 
REMARK    8  A    between atoms: C8_17  and  C9_18 
REMARK    9  A    between atoms: C10_27  and  N8_28 
ROOT
HETATM    1  C2  UNL     1      63.962  54.670  16.141  1.00  0.00     0.680 A 
HETATM    2  N2  UNL     1      63.253  55.700  16.562  1.00  0.00    -0.176 N 
ATOM      3  H2  UNL     1      63.470  56.614  16.165  1.00  0.00     0.186 HD
HETATM    4  C3  UNL     1      62.245  55.637  17.494  1.00  0.00     0.136 A 
HETATM    5  C8  UNL     1      61.963  54.414  18.017  1.00  0.00     0.099 A 
HETATM    6  C10 UNL     1      62.734  53.325  17.553  1.00  0.00     0.134 A 
HETATM    7  N9  UNL     1      63.699  53.444  16.648  1.00  0.00    -0.176 N 
ATOM      8  H9  UNL     1      64.230  52.628  16.342  1.00  0.00     0.186 HD
ENDROOT
BRANCH   4   9
HETATM    9  N3  UNL     1      61.581  56.871  17.843  1.00  0.00    -0.368 N 
HETATM   10  C4  UNL     1      60.952  57.533  16.706  1.00  0.00     0.151 C 
BRANCH   9  11
HETATM   11  C5  UNL     1      61.455  57.403  19.155  1.00  0.00     0.157 C 
BRANCH  11  12
HETATM   12  C6  UNL     1      62.659  57.978  19.818  1.00  0.00     0.159 C 
BRANCH  12  13
HETATM   13  O1  UNL     1      63.269  58.949  18.951  1.00  0.00    -0.392 OA
ATOM     14  H1  UNL     1      63.943  59.421  19.426  1.00  0.00     0.210 HD
ENDBRANCH  12  13
BRANCH  12  15
HETATM   15  C7  UNL     1      63.803  56.995  20.051  1.00  0.00     0.197 C 
BRANCH  15  16
HETATM   16  O2  UNL     1      63.484  55.957  20.885  1.00  0.00    -0.398 OA
ATOM     17  H2  UNL     1      63.470  56.191  21.805  1.00  0.00     0.209 HD
ENDBRANCH  15  16
ENDBRANCH  12  15
ENDBRANCH  11  12
ENDBRANCH   9  11
ENDBRANCH   4   9
BRANCH   5  18
HETATM   18  C9  UNL     1      60.918  54.159  18.988  1.00  0.00     0.155 A 
HETATM   19  N4  UNL     1      59.625  53.974  18.707  1.00  0.00    -0.268 N 
HETATM   20  N5  UNL     1      58.981  53.772  19.816  1.00  0.00    -0.227 N 
ATOM     21  H4  UNL     1      59.213  53.989  17.774  1.00  0.00     0.190 HD
HETATM   22  N6  UNL     1      59.842  53.825  20.812  1.00  0.00    -0.227 N 
ATOM     23  H5  UNL     1      57.979  53.600  19.902  1.00  0.00     0.210 HD
HETATM   24  N7  UNL     1      61.065  54.068  20.303  1.00  0.00    -0.268 N 
ATOM     25  H6  UNL     1      59.621  53.703  21.800  1.00  0.00     0.210 HD
ATOM     26  H7  UNL     1      61.934  54.164  20.827  1.00  0.00     0.190 HD
ENDBRANCH   5  18
BRANCH   1  27
HETATM   27  N1  UNL     1      64.892  54.790  15.275  1.00  0.00    -0.230 N 
HETATM   28  C1  UNL     1      66.296  54.640  15.513  1.00  0.00     0.165 C 
ATOM     29  H1  UNL     1      64.608  55.014  14.322  1.00  0.00     0.177 HD
ENDBRANCH   1  27
BRANCH   6  30
HETATM   30  N8  UNL     1      62.448  52.183  18.059  1.00  0.00    -0.379 N 
HETATM   31  C11 UNL     1      61.649  51.169  17.457  1.00  0.00     0.147 C 
ATOM     32  H8  UNL     1      62.831  51.980  18.983  1.00  0.00     0.160 HD
ENDBRANCH   6  30
TORSDOF 9
ENDMDL
MODEL 2
REMARK VINA RESULT: -7.436671075      0.886      1.229
REMARK  9 active torsions:
REMARK  status: ('A' for Active; 'I' for Inactive)
REMARK    1  A    between atoms: N1_2  and  C2_4 
REMARK    2  A    between atoms: C3_7  and  N3_8 
REMARK    3  A    between atoms: N3_8  and  C5_10 
REMARK    4  A    between atoms: C5_10  and  C6_11 
REMARK    5  A    between atoms: C6_11  and  O1_12 
REMARK    6  A    between atoms: C6_11  and  C7_14 
REMARK    7  A    between atoms: C7_14  and  O2_15 
REMARK    8  A    between atoms: C8_17  and  C9_18 
REMARK    9  A    between atoms: C10_27  and  N8_28 
ROOT
HETATM    1  C2  UNL     1      63.961  54.521  16.106  1.00  0.00     0.680 A 
HETATM    2  N2  UNL     1      63.264  55.566  16.509  1.00  0.00    -0.176 N 
ATOM      3  H2  UNL     1      63.487  56.470  16.092  1.00  0.00     0.186 HD
HETATM    4  C3  UNL     1      62.260  55.532  17.447  1.00  0.00     0.136 A 
HETATM    5  C8  UNL     1      61.969  54.323  17.997  1.00  0.00     0.099 A 
HETATM    6  C10 UNL     1      62.727  53.217  17.551  1.00  0.00     0.134 A 
HETATM    7  N9  UNL     1      63.688  53.308  16.639  1.00  0.00    -0.176 N 
ATOM      8  H9  UNL     1      64.210  52.481  16.348  1.00  0.00     0.186 HD
ENDROOT
BRANCH   4   9
HETATM    9  N3  UNL     1      61.610  56.779  17.774  1.00  0.00    -0.368 N 
HETATM   10  C4  UNL     1      60.257  56.886  17.237  1.00  0.00     0.151 C 
BRANCH   9  11
HETATM   11  C5  UNL     1      62.150  57.808  18.591  1.00  0.00     0.157 C 
BRANCH  11  12
HETATM   12  C6  UNL     1      61.953  57.736  20.066  1.00  0.00     0.159 C 
BRANCH  12  13
HETATM   13  O1  UNL     1      62.641  56.587  20.588  1.00  0.00    -0.392 OA
ATOM     14  H1  UNL     1      63.557  56.625  20.342  1.00  0.00     0.210 HD
ENDBRANCH  12  13
BRANCH  12  15
HETATM   15  C7  UNL     1      60.518  57.483  20.518  1.00  0.00     0.197 C 
BRANCH  15  16
HETATM   16  O2  UNL     1      60.411  56.620  21.575  1.00  0.00    -0.398 OA
ATOM     17  H2  UNL     1      59.517  56.375  21.784  1.00  0.00     0.209 HD
ENDBRANCH  15  16
ENDBRANCH  12  15
ENDBRANCH  11  12
ENDBRANCH   9  11
ENDBRANCH   4   9
BRANCH   5  18
HETATM   18  C9  UNL     1      60.927  54.098  18.978  1.00  0.00     0.155 A 
HETATM   19  N4  UNL     1      59.632  53.913  18.707  1.00  0.00    -0.268 N 
HETATM   20  N5  UNL     1      58.991  53.742  19.824  1.00  0.00    -0.227 N 
ATOM     21  H4  UNL     1      59.216  53.907  17.776  1.00  0.00     0.190 HD
HETATM   22  N6  UNL     1      59.857  53.816  20.814  1.00  0.00    -0.227 N 
ATOM     23  H5  UNL     1      57.989  53.579  19.918  1.00  0.00     0.210 HD
HETATM   24  N7  UNL     1      61.079  54.039  20.295  1.00  0.00    -0.268 N 
ATOM     25  H6  UNL     1      59.640  53.720  21.806  1.00  0.00     0.210 HD
ATOM     26  H7  UNL     1      61.951  54.143  20.813  1.00  0.00     0.190 HD
ENDBRANCH   5  18
BRANCH   1  27
HETATM   27  N1  UNL     1      64.888  54.613  15.233  1.00  0.00    -0.230 N 
HETATM   28  C1  UNL     1      66.287  54.760  15.495  1.00  0.00     0.165 C 
ATOM     29  H1  UNL     1      64.603  54.580  14.254  1.00  0.00     0.177 HD
ENDBRANCH   1  27
BRANCH   6  30
HETATM   30  N8  UNL     1      62.434  52.089  18.083  1.00  0.00    -0.379 N 
HETATM   31  C11 UNL     1      61.622  51.070  17.506  1.00  0.00     0.147 C 
ATOM     32  H8  UNL     1      62.819  51.901  19.009  1.00  0.00     0.160 HD
ENDBRANCH   6  30
TORSDOF 9
ENDMDL
MODEL 3
REMARK VINA RESULT: -7.305106912      2.100      4.214
REMARK  9 active torsions:
REMARK  status: ('A' for Active; 'I' for Inactive)
REMARK    1  A    between atoms: N1_2  and  C2_4 
REMARK    2  A    between atoms: C3_7  and  N3_8 
REMARK    3  A    between atoms: N3_8  and  C5_10 
REMARK    4  A    between atoms: C5_10  and  C6_11 
REMARK    5  A    between atoms: C6_11  and  O1_12 
REMARK    6  A    between atoms: C6_11  and  C7_14 
REMARK    7  A    between atoms: C7_14  and  O2_15 
REMARK    8  A    between atoms: C8_17  and  C9_18 
REMARK    9  A    between atoms: C10_27  and  N8_28 
ROOT
HETATM    1  C2  UNL     1      58.386  53.948  17.656  1.00  0.00     0.680 A 
HETATM    2  N2  UNL     1      58.810  55.173  17.410  1.00  0.00    -0.176 N 
ATOM      3  H2  UNL     1      58.143  55.830  17.007  1.00  0.00     0.186 HD
HETATM    4  C3  UNL     1      60.082  55.633  17.656  1.00  0.00     0.136 A 
HETATM    5  C8  UNL     1      60.965  54.750  18.195  1.00  0.00     0.099 A 
HETATM    6  C10 UNL     1      60.490  53.444  18.449  1.00  0.00     0.134 A 
HETATM    7  N9  UNL     1      59.247  53.053  18.191  1.00  0.00    -0.176 N 
ATOM      8  H9  UNL     1      58.949  52.098  18.392  1.00  0.00     0.186 HD
ENDROOT
BRANCH   4   9
HETATM    9  N3  UNL     1      60.373  57.005  17.315  1.00  0.00    -0.368 N 
HETATM   10  C4  UNL     1      60.908  57.168  15.968  1.00  0.00     0.151 C 
BRANCH   9  11
HETATM   11  C5  UNL     1      60.121  58.137  18.138  1.00  0.00     0.157 C 
BRANCH  11  12
HETATM   12  C6  UNL     1      61.130  58.522  19.163  1.00  0.00     0.159 C 
BRANCH  12  13
HETATM   13  O1  UNL     1      60.743  59.762  19.778  1.00  0.00    -0.392 OA
ATOM     14  H1  UNL     1      61.188  59.857  20.612  1.00  0.00     0.210 HD
ENDBRANCH  12  13
BRANCH  12  15
HETATM   15  C7  UNL     1      62.516  58.854  18.618  1.00  0.00     0.197 C 
BRANCH  15  16
HETATM   16  O2  UNL     1      63.530  58.653  19.515  1.00  0.00    -0.398 OA
ATOM     17  H2  UNL     1      64.303  58.247  19.140  1.00  0.00     0.209 HD
ENDBRANCH  15  16
ENDBRANCH  12  15
ENDBRANCH  11  12
ENDBRANCH   9  11
ENDBRANCH   4   9
BRANCH   5  18
HETATM   18  C9  UNL     1      62.334  55.070  18.543  1.00  0.00     0.155 A 
HETATM   19  N4  UNL     1      62.751  55.505  19.735  1.00  0.00    -0.268 N 
HETATM   20  N5  UNL     1      64.036  55.688  19.687  1.00  0.00    -0.227 N 
ATOM     21  H4  UNL     1      62.158  55.667  20.548  1.00  0.00     0.190 HD
HETATM   22  N6  UNL     1      64.455  55.376  18.477  1.00  0.00    -0.227 N 
ATOM     23  H5  UNL     1      64.622  56.016  20.455  1.00  0.00     0.210 HD
HETATM   24  N7  UNL     1      63.393  54.986  17.748  1.00  0.00    -0.268 N 
ATOM     25  H6  UNL     1      65.419  55.424  18.148  1.00  0.00     0.210 HD
ATOM     26  H7  UNL     1      63.401  54.684  16.774  1.00  0.00     0.190 HD
ENDBRANCH   5  18
BRANCH   1  27
HETATM   27  N1  UNL     1      57.192  53.575  17.400  1.00  0.00    -0.230 N 
HETATM   28  C1  UNL     1      56.010  53.982  18.095  1.00  0.00     0.165 C 
ATOM     29  H1  UNL     1      57.070  52.922  16.625  1.00  0.00     0.177 HD
ENDBRANCH   1  27
BRANCH   6  30
HETATM   30  N8  UNL     1      61.339  52.631  18.958  1.00  0.00    -0.379 N 
HETATM   31  C11 UNL     1      61.541  51.273  18.577  1.00  0.00     0.147 C 
ATOM     32  H8  UNL     1      61.929  52.991  19.709  1.00  0.00     0.160 HD
ENDBRANCH   6  30
TORSDOF 9
ENDMDL
MODEL 4
REMARK VINA RESULT: -7.260748124      1.176      1.914
REMARK  9 active torsions:
REMARK  status: ('A' for Active; 'I' for Inactive)
REMARK    1  A    between atoms: N1_2  and  C2_4 
REMARK    2  A    between atoms: C3_7  and  N3_8 
REMARK    3  A    between atoms: N3_8  and  C5_10 
REMARK    4  A    between atoms: C5_10  and  C6_11 
REMARK    5  A    between atoms: C6_11  and  O1_12 
REMARK    6  A    between atoms: C6_11  and  C7_14 
REMARK    7  A    between atoms: C7_14  and  O2_15 
REMARK    8  A    between atoms: C8_17  and  C9_18 
REMARK    9  A    between atoms: C10_27  and  N8_28 
ROOT
HETATM    1  C2  UNL     1      63.910  54.541  15.964  1.00  0.00     0.680 A 
HETATM    2  N2  UNL     1      63.078  55.543  16.173  1.00  0.00    -0.176 N 
ATOM      3  H2  UNL     1      63.214  56.391  15.622  1.00  0.00     0.186 HD
HETATM    4  C3  UNL     1      62.041  55.534  17.074  1.00  0.00     0.136 A 
HETATM    5  C8  UNL     1      61.867  54.401  17.804  1.00  0.00     0.099 A 
HETATM    6  C10 UNL     1      62.769  53.340  17.565  1.00  0.00     0.134 A 
HETATM    7  N9  UNL     1      63.756  53.403  16.679  1.00  0.00    -0.176 N 
ATOM      8  H9  UNL     1      64.384  52.611  16.540  1.00  0.00     0.186 HD
ENDROOT
BRANCH   4   9
HETATM    9  N3  UNL     1      61.235  56.728  17.177  1.00  0.00    -0.368 N 
HETATM   10  C4  UNL     1      60.089  56.733  16.274  1.00  0.00     0.151 C 
BRANCH   9  11
HETATM   11  C5  UNL     1      61.442  57.793  18.093  1.00  0.00     0.157 C 
BRANCH  11  12
HETATM   12  C6  UNL     1      62.598  58.709  17.885  1.00  0.00     0.159 C 
BRANCH  12  13
HETATM   13  O1  UNL     1      63.219  58.995  19.150  1.00  0.00    -0.392 OA
ATOM     14  H1  UNL     1      64.126  58.714  19.130  1.00  0.00     0.210 HD
ENDBRANCH  12  13
BRANCH  12  15
HETATM   15  C7  UNL     1      62.239  60.104  17.382  1.00  0.00     0.197 C 
BRANCH  15  16
HETATM   16  O2  UNL     1      63.288  60.781  16.820  1.00  0.00    -0.398 OA
ATOM     17  H2  UNL     1      63.674  60.341  16.072  1.00  0.00     0.209 HD
ENDBRANCH  15  16
ENDBRANCH  12  15
ENDBRANCH  11  12
ENDBRANCH   9  11
ENDBRANCH   4   9
BRANCH   5  18
HETATM   18  C9  UNL     1      60.812  54.207  18.778  1.00  0.00     0.155 A 
HETATM   19  N4  UNL     1      60.941  54.345  20.101  1.00  0.00    -0.268 N 
HETATM   20  N5  UNL     1      59.796  54.095  20.661  1.00  0.00    -0.227 N 
ATOM     21  H4  UNL     1      61.798  54.604  20.590  1.00  0.00     0.190 HD
HETATM   22  N6  UNL     1      58.928  53.795  19.716  1.00  0.00    -0.227 N 
ATOM     23  H5  UNL     1      59.602  54.125  21.662  1.00  0.00     0.210 HD
HETATM   24  N7  UNL     1      59.555  53.862  18.526  1.00  0.00    -0.268 N 
ATOM     25  H6  UNL     1      57.948  53.554  19.860  1.00  0.00     0.210 HD
ATOM     26  H7  UNL     1      59.145  53.684  17.610  1.00  0.00     0.190 HD
ENDBRANCH   5  18
BRANCH   1  27
HETATM   27  N1  UNL     1      64.861  54.608  15.115  1.00  0.00    -0.230 N 
HETATM   28  C1  UNL     1      66.241  54.851  15.405  1.00  0.00     0.165 C 
ATOM     29  H1  UNL     1      64.612  54.477  14.134  1.00  0.00     0.177 HD
ENDBRANCH   1  27
BRANCH   6  30
HETATM   30  N8  UNL     1      62.584  52.281  18.264  1.00  0.00    -0.379 N 
HETATM   31  C11 UNL     1      61.840  51.131  17.872  1.00  0.00     0.147 C 
ATOM     32  H8  UNL     1      63.010  52.260  19.190  1.00  0.00     0.160 HD
ENDBRANCH   6  30
TORSDOF 9
ENDMDL
MODEL 5
REMARK VINA RESULT: -7.229466861      2.465      3.843
REMARK  9 active torsions:
REMARK  status: ('A' for Active; 'I' for Inactive)
REMARK    1  A    between atoms: N1_2  and  C2_4 
REMARK    2  A    between atoms: C3_7  and  N3_8 
REMARK    3  A    between atoms: N3_8  and  C5_10 
REMARK    4  A    between atoms: C5_10  and  C6_11 
REMARK    5  A    between atoms: C6_11  and  O1_12 
REMARK    6  A    between atoms: C6_11  and  C7_14 
REMARK    7  A    between atoms: C7_14  and  O2_15 
REMARK    8  A    between atoms: C8_17  and  C9_18 
REMARK    9  A    between atoms: C10_27  and  N8_28 
ROOT
HETATM    1  C2  UNL     1      64.351  55.145  16.215  1.00  0.00     0.680 A 
HETATM    2  N2  UNL     1      63.142  54.757  15.857  1.00  0.00    -0.176 N 
ATOM      3  H2  UNL     1      62.991  54.533  14.873  1.00  0.00     0.186 HD
HETATM    4  C3  UNL     1      62.069  54.631  16.706  1.00  0.00     0.136 A 
HETATM    5  C8  UNL     1      62.277  54.931  18.015  1.00  0.00     0.099 A 
HETATM    6  C10 UNL     1      63.579  55.344  18.377  1.00  0.00     0.134 A 
HETATM    7  N9  UNL     1      64.582  55.449  17.513  1.00  0.00    -0.176 N 
ATOM      8  H9  UNL     1      65.506  55.752  17.821  1.00  0.00     0.186 HD
ENDROOT
BRANCH   4   9
HETATM    9  N3  UNL     1      60.813  54.201  16.136  1.00  0.00    -0.368 N 
HETATM   10  C4  UNL     1      59.949  55.306  15.735  1.00  0.00     0.151 C 
BRANCH   9  11
HETATM   11  C5  UNL     1      60.428  52.854  15.897  1.00  0.00     0.157 C 
BRANCH  11  12
HETATM   12  C6  UNL     1      59.816  52.071  17.006  1.00  0.00     0.159 C 
BRANCH  12  13
HETATM   13  O1  UNL     1      59.248  52.970  17.974  1.00  0.00    -0.392 OA
ATOM     14  H1  UNL     1      59.099  52.508  18.789  1.00  0.00     0.210 HD
ENDBRANCH  12  13
BRANCH  12  15
HETATM   15  C7  UNL     1      60.799  51.269  17.854  1.00  0.00     0.197 C 
BRANCH  15  16
HETATM   16  O2  UNL     1      60.464  51.201  19.180  1.00  0.00    -0.398 OA
ATOM     17  H2  UNL     1      60.827  50.447  19.631  1.00  0.00     0.209 HD
ENDBRANCH  15  16
ENDBRANCH  12  15
ENDBRANCH  11  12
ENDBRANCH   9  11
ENDBRANCH   4   9
BRANCH   5  18
HETATM   18  C9  UNL     1      61.270  54.829  19.051  1.00  0.00     0.155 A 
HETATM   19  N4  UNL     1      61.160  53.831  19.932  1.00  0.00    -0.268 N 
HETATM   20  N5  UNL     1      60.146  54.068  20.709  1.00  0.00    -0.227 N 
ATOM     21  H4  UNL     1      61.772  53.016  19.985  1.00  0.00     0.190 HD
HETATM   22  N6  UNL     1      59.599  55.208  20.339  1.00  0.00    -0.227 N 
ATOM     23  H5  UNL     1      59.828  53.474  21.475  1.00  0.00     0.210 HD
HETATM   24  N7  UNL     1      60.297  55.697  19.297  1.00  0.00    -0.268 N 
ATOM     25  H6  UNL     1      58.784  55.647  20.769  1.00  0.00     0.210 HD
ATOM     26  H7  UNL     1      60.113  56.565  18.794  1.00  0.00     0.190 HD
ENDBRANCH   5  18
BRANCH   1  27
HETATM   27  N1  UNL     1      65.310  55.250  15.380  1.00  0.00    -0.230 N 
HETATM   28  C1  UNL     1      66.675  54.885  15.606  1.00  0.00     0.165 C 
ATOM     29  H1  UNL     1      65.081  55.631  14.461  1.00  0.00     0.177 HD
ENDBRANCH   1  27
BRANCH   6  30
HETATM   30  N8  UNL     1      63.752  55.620  19.617  1.00  0.00    -0.379 N 
HETATM   31  C11 UNL     1      63.842  56.923  20.187  1.00  0.00     0.147 C 
ATOM     32  H8  UNL     1      63.833  54.830  20.257  1.00  0.00     0.160 HD
ENDBRANCH   6  30
TORSDOF 9
ENDMDL
