MODEL 1
REMARK VINA RESULT: -7.520004023      0.000      0.000
REMARK  12 active torsions:
REMARK  status: ('A' for Active; 'I' for Inactive)
REMARK    1  A    between atoms: C1_2  and  C2_4 
REMARK       I    between atoms: C2_4  and  N1_6 
REMARK    2  A    between atoms: N1_6  and  N2_8 
REMARK    3  A    between atoms: C8_21  and  O6_22 
REMARK    4  A    between atoms: C8_21  and  C9_24 
REMARK    5  A    between atoms: C9_24  and  S2_25 
REMARK    6  A    between atoms: S2_25  and  C10_26 
REMARK    7  A    between atoms: C11_31  and  C12_32 
REMARK    8  A    between atoms: C12_32  and  O7_33 
REMARK    9  A    between atoms: C12_32  and  C13_35 
REMARK   10  A    between atoms: C13_35  and  N7_36 
REMARK   11  A    between atoms: N7_36  and  O8_37 
REMARK   12  A    between atoms: N7_36  and  O9_39 
ROOT
HETATM    1  N2  UNL     1      12.829 -14.063  60.409  1.00  0.00    -0.283 N 
ATOM      2  H2  UNL     1      13.774 -13.678  60.409  1.00  0.00     0.188 HD
HETATM    3  C3  UNL     1      11.891 -13.364  60.937  1.00  0.00     0.139 A 
HETATM    4  N3  UNL     1      10.521 -13.678  61.056  1.00  0.00    -0.321 N 
HETATM    5  C4  UNL     1       9.630 -14.748  60.713  1.00  0.00     0.151 C 
HETATM    6  C5  UNL     1       8.895 -15.328  61.882  1.00  0.00     0.152 C 
HETATM    7  N4  UNL     1       7.966 -14.430  62.505  1.00  0.00    -0.313 N 
ATOM      8  H4  UNL     1       7.277 -14.720  63.198  1.00  0.00     0.172 HD
HETATM    9  S1  UNL     1       8.144 -12.803  61.952  1.00  0.00     0.274 S 
HETATM   10  O4  UNL     1       7.376 -12.552  60.694  1.00  0.00    -0.199 OA
HETATM   11  O5  UNL     1       7.641 -11.903  63.043  1.00  0.00    -0.199 OA
HETATM   12  C6  UNL     1       9.863 -12.572  61.724  1.00  0.00     0.152 A 
HETATM   13  C7  UNL     1      10.731 -11.637  62.006  1.00  0.00     0.063 A 
HETATM   14  C8  UNL     1      12.080 -12.008  61.559  1.00  0.00     0.147 A 
ENDROOT
BRANCH  14  15
HETATM   15  O6  UNL     1      12.469 -11.101  60.574  1.00  0.00    -0.377 OA
ATOM     16  H6  UNL     1      11.704 -10.639  60.254  1.00  0.00     0.211 HD
ENDBRANCH  14  15
BRANCH  14  17
HETATM   17  C9  UNL     1      13.038 -12.061  62.705  1.00  0.00     0.133 C 
BRANCH  17  18
HETATM   18  S2  UNL     1      12.860 -10.573  63.707  1.00  0.00    -0.089 SA
BRANCH  18  19
HETATM   19  C10 UNL     1      13.512  -9.129  62.892  1.00  0.00     0.160 A 
HETATM   20  N5  UNL     1      14.499  -8.317  63.292  1.00  0.00    -0.278 N 
HETATM   21  N6  UNL     1      14.705  -7.357  62.407  1.00  0.00    -0.285 N 
ATOM     22  H5  UNL     1      15.021  -8.424  64.162  1.00  0.00     0.189 HD
HETATM   23  C11 UNL     1      13.834  -7.523  61.378  1.00  0.00     0.128 A 
ATOM     24  H6  UNL     1      15.401  -6.616  62.483  1.00  0.00     0.188 HD
HETATM   25  N8  UNL     1      13.114  -8.613  61.693  1.00  0.00    -0.322 N 
ATOM     26  H8  UNL     1      12.370  -9.001  61.113  1.00  0.00     0.169 HD
BRANCH  23  27
HETATM   27  C12 UNL     1      13.734  -6.655  60.175  1.00  0.00     0.204 C 
BRANCH  27  28
HETATM   28  O7  UNL     1      12.415  -6.627  59.698  1.00  0.00    -0.387 OA
ATOM     29  H7  UNL     1      12.381  -6.929  58.798  1.00  0.00     0.210 HD
ENDBRANCH  27  28
BRANCH  27  30
HETATM   30  C13 UNL     1      14.644  -7.074  59.067  1.00  0.00     0.192 C 
BRANCH  30  31
HETATM   31  N7  UNL     1      13.908  -7.988  58.208  1.00  0.00    -0.071 NA
BRANCH  31  32
HETATM   32  O8  UNL     1      13.665  -9.153  58.844  1.00  0.00    -0.289 OA
ATOM     33  H8  UNL     1      12.753  -9.214  59.101  1.00  0.00     0.239 HD
ENDBRANCH  31  32
BRANCH  31  34
HETATM   34  O9  UNL     1      14.539  -8.246  57.055  1.00  0.00    -0.289 OA
ATOM     35  H9  UNL     1      14.796  -7.459  56.589  1.00  0.00     0.239 HD
ENDBRANCH  31  34
ENDBRANCH  30  31
ENDBRANCH  27  30
ENDBRANCH  23  27
ENDBRANCH  18  19
ENDBRANCH  17  18
ENDBRANCH  14  17
BRANCH   1  36
HETATM   36  N1  UNL     1      12.632 -15.303  59.844  1.00  0.00    -0.259 N 
HETATM   37  C2  UNL     1      12.465 -15.501  58.447  1.00  0.00     0.336 C 
HETATM   38  O3  UNL     1      12.496 -14.509  57.692  1.00  0.00    -0.259 OA
ATOM     39  H1  UNL     1      12.606 -16.118  60.457  1.00  0.00     0.190 HD
BRANCH  37  40
HETATM   40  C1  UNL     1      12.263 -16.816  57.903  1.00  0.00     0.271 C 
HETATM   41  O1  UNL     1      11.435 -17.649  58.353  1.00  0.00    -0.640 OA
HETATM   42  O2  UNL     1      13.018 -17.241  56.797  1.00  0.00    -0.640 OA
ENDBRANCH  37  40
ENDBRANCH   1  36
TORSDOF 12
ENDMDL
MODEL 2
REMARK VINA RESULT: -7.468166816      4.959      7.445
REMARK  12 active torsions:
REMARK  status: ('A' for Active; 'I' for Inactive)
REMARK    1  A    between atoms: C1_2  and  C2_4 
REMARK       I    between atoms: C2_4  and  N1_6 
REMARK    2  A    between atoms: N1_6  and  N2_8 
REMARK    3  A    between atoms: C8_21  and  O6_22 
REMARK    4  A    between atoms: C8_21  and  C9_24 
REMARK    5  A    between atoms: C9_24  and  S2_25 
REMARK    6  A    between atoms: S2_25  and  C10_26 
REMARK    7  A    between atoms: C11_31  and  C12_32 
REMARK    8  A    between atoms: C12_32  and  O7_33 
REMARK    9  A    between atoms: C12_32  and  C13_35 
REMARK   10  A    between atoms: C13_35  and  N7_36 
REMARK   11  A    between atoms: N7_36  and  O8_37 
REMARK   12  A    between atoms: N7_36  and  O9_39 
ROOT
HETATM    1  N2  UNL     1      14.126  -8.201  62.593  1.00  0.00    -0.283 N 
ATOM      2  H2  UNL     1      14.545  -7.516  63.223  1.00  0.00     0.188 HD
HETATM    3  C3  UNL     1      13.324  -9.070  63.091  1.00  0.00     0.139 A 
HETATM    4  N3  UNL     1      12.628 -10.105  62.431  1.00  0.00    -0.321 N 
HETATM    5  C4  UNL     1      12.486 -10.628  61.103  1.00  0.00     0.151 C 
HETATM    6  C5  UNL     1      12.851 -12.074  60.974  1.00  0.00     0.152 C 
HETATM    7  N4  UNL     1      11.983 -12.971  61.682  1.00  0.00    -0.313 N 
ATOM      8  H4  UNL     1      11.996 -13.984  61.562  1.00  0.00     0.172 HD
HETATM    9  S1  UNL     1      10.914 -12.147  62.759  1.00  0.00     0.274 S 
HETATM   10  O4  UNL     1       9.678 -11.670  62.067  1.00  0.00    -0.199 OA
HETATM   11  O5  UNL     1      10.546 -13.112  63.848  1.00  0.00    -0.199 OA
HETATM   12  C6  UNL     1      11.844 -10.821  63.418  1.00  0.00     0.152 A 
HETATM   13  C7  UNL     1      12.022 -10.293  64.600  1.00  0.00     0.063 A 
HETATM   14  C8  UNL     1      12.950  -9.157  64.545  1.00  0.00     0.147 A 
ENDROOT
BRANCH  14  15
HETATM   15  O6  UNL     1      12.245  -8.009  64.907  1.00  0.00    -0.377 OA
ATOM     16  H6  UNL     1      12.473  -7.769  65.797  1.00  0.00     0.211 HD
ENDBRANCH  14  15
BRANCH  14  17
HETATM   17  C9  UNL     1      14.150  -9.391  65.404  1.00  0.00     0.133 C 
BRANCH  17  18
HETATM   18  S2  UNL     1      13.684  -9.247  67.140  1.00  0.00    -0.089 SA
BRANCH  18  19
HETATM   19  C10 UNL     1      13.867  -7.584  67.752  1.00  0.00     0.160 A 
HETATM   20  N5  UNL     1      14.975  -6.970  68.187  1.00  0.00    -0.278 N 
HETATM   21  N6  UNL     1      14.711  -5.726  68.549  1.00  0.00    -0.285 N 
ATOM     22  H5  UNL     1      15.898  -7.403  68.233  1.00  0.00     0.189 HD
HETATM   23  C11 UNL     1      13.388  -5.490  68.354  1.00  0.00     0.128 A 
ATOM     24  H6  UNL     1      15.388  -5.056  68.914  1.00  0.00     0.188 HD
HETATM   25  N8  UNL     1      12.890  -6.638  67.865  1.00  0.00    -0.322 N 
ATOM     26  H8  UNL     1      11.912  -6.782  67.612  1.00  0.00     0.169 HD
BRANCH  23  27
HETATM   27  C12 UNL     1      12.683  -4.213  68.637  1.00  0.00     0.204 C 
BRANCH  27  28
HETATM   28  O7  UNL     1      12.658  -3.402  67.492  1.00  0.00    -0.387 OA
ATOM     29  H7  UNL     1      13.251  -2.666  67.592  1.00  0.00     0.210 HD
ENDBRANCH  27  28
BRANCH  27  30
HETATM   30  C13 UNL     1      13.286  -3.442  69.766  1.00  0.00     0.192 C 
BRANCH  30  31
HETATM   31  N7  UNL     1      14.134  -2.407  69.195  1.00  0.00    -0.071 NA
BRANCH  31  32
HETATM   32  O8  UNL     1      15.392  -2.860  69.019  1.00  0.00    -0.289 OA
ATOM     33  H8  UNL     1      15.896  -2.775  69.819  1.00  0.00     0.239 HD
ENDBRANCH  31  32
BRANCH  31  34
HETATM   34  O9  UNL     1      14.173  -1.294  69.939  1.00  0.00    -0.289 OA
ATOM     35  H9  UNL     1      14.512  -0.543  69.466  1.00  0.00     0.239 HD
ENDBRANCH  31  34
ENDBRANCH  30  31
ENDBRANCH  27  30
ENDBRANCH  23  27
ENDBRANCH  18  19
ENDBRANCH  17  18
ENDBRANCH  14  17
BRANCH   1  36
HETATM   36  N1  UNL     1      14.453  -8.140  61.257  1.00  0.00    -0.259 N 
HETATM   37  C2  UNL     1      13.748  -7.336  60.321  1.00  0.00     0.336 C 
HETATM   38  O3  UNL     1      12.788  -6.651  60.723  1.00  0.00    -0.259 OA
ATOM     39  H1  UNL     1      15.239  -8.699  60.923  1.00  0.00     0.190 HD
BRANCH  37  40
HETATM   40  C1  UNL     1      14.129  -7.305  58.935  1.00  0.00     0.271 C 
HETATM   41  O1  UNL     1      14.959  -6.495  58.447  1.00  0.00    -0.640 OA
HETATM   42  O2  UNL     1      13.562  -8.219  58.031  1.00  0.00    -0.640 OA
ENDBRANCH  37  40
ENDBRANCH   1  36
TORSDOF 12
ENDMDL
MODEL 3
REMARK VINA RESULT: -7.368506900      4.943      7.705
REMARK  12 active torsions:
REMARK  status: ('A' for Active; 'I' for Inactive)
REMARK    1  A    between atoms: C1_2  and  C2_4 
REMARK       I    between atoms: C2_4  and  N1_6 
REMARK    2  A    between atoms: N1_6  and  N2_8 
REMARK    3  A    between atoms: C8_21  and  O6_22 
REMARK    4  A    between atoms: C8_21  and  C9_24 
REMARK    5  A    between atoms: C9_24  and  S2_25 
REMARK    6  A    between atoms: S2_25  and  C10_26 
REMARK    7  A    between atoms: C11_31  and  C12_32 
REMARK    8  A    between atoms: C12_32  and  O7_33 
REMARK    9  A    between atoms: C12_32  and  C13_35 
REMARK   10  A    between atoms: C13_35  and  N7_36 
REMARK   11  A    between atoms: N7_36  and  O8_37 
REMARK   12  A    between atoms: N7_36  and  O9_39 
ROOT
HETATM    1  N2  UNL     1      12.885  -8.268  63.118  1.00  0.00    -0.283 N 
ATOM      2  H2  UNL     1      12.985  -7.593  63.877  1.00  0.00     0.188 HD
HETATM    3  C3  UNL     1      12.867  -9.516  63.415  1.00  0.00     0.139 A 
HETATM    4  N3  UNL     1      12.739 -10.623  62.551  1.00  0.00    -0.321 N 
HETATM    5  C4  UNL     1      12.593 -10.881  61.148  1.00  0.00     0.151 C 
HETATM    6  C5  UNL     1      13.665 -11.754  60.573  1.00  0.00     0.152 C 
HETATM    7  N4  UNL     1      13.662 -13.102  61.068  1.00  0.00    -0.313 N 
ATOM      8  H4  UNL     1      14.214 -13.856  60.659  1.00  0.00     0.172 HD
HETATM    9  S1  UNL     1      12.622 -13.305  62.431  1.00  0.00     0.274 S 
HETATM   10  O4  UNL     1      11.207 -13.567  62.024  1.00  0.00    -0.199 OA
HETATM   11  O5  UNL     1      13.146 -14.467  63.224  1.00  0.00    -0.199 OA
HETATM   12  C6  UNL     1      12.770 -11.828  63.357  1.00  0.00     0.152 A 
HETATM   13  C7  UNL     1      12.905 -11.520  64.620  1.00  0.00     0.063 A 
HETATM   14  C8  UNL     1      12.982 -10.066  64.810  1.00  0.00     0.147 A 
ENDROOT
BRANCH  14  15
HETATM   15  O6  UNL     1      11.869  -9.671  65.552  1.00  0.00    -0.377 OA
ATOM     16  H6  UNL     1      11.088  -9.766  65.019  1.00  0.00     0.211 HD
ENDBRANCH  14  15
BRANCH  14  17
HETATM   17  C9  UNL     1      14.272  -9.667  65.450  1.00  0.00     0.133 C 
BRANCH  17  18
HETATM   18  S2  UNL     1      14.034  -9.501  67.229  1.00  0.00    -0.089 SA
BRANCH  18  19
HETATM   19  C10 UNL     1      13.992  -7.796  67.748  1.00  0.00     0.160 A 
HETATM   20  N5  UNL     1      15.018  -6.985  68.037  1.00  0.00    -0.278 N 
HETATM   21  N6  UNL     1      14.585  -5.782  68.372  1.00  0.00    -0.285 N 
ATOM     22  H5  UNL     1      16.001  -7.258  68.004  1.00  0.00     0.189 HD
HETATM   23  C11 UNL     1      13.228  -5.778  68.308  1.00  0.00     0.128 A 
ATOM     24  H6  UNL     1      15.171  -4.990  68.635  1.00  0.00     0.188 HD
HETATM   25  N8  UNL     1      12.885  -7.018  67.924  1.00  0.00    -0.322 N 
ATOM     26  H8  UNL     1      11.926  -7.335  67.782  1.00  0.00     0.169 HD
BRANCH  23  27
HETATM   27  C12 UNL     1      12.348  -4.618  68.611  1.00  0.00     0.204 C 
BRANCH  27  28
HETATM   28  O7  UNL     1      12.194  -3.810  67.474  1.00  0.00    -0.387 OA
ATOM     29  H7  UNL     1      12.287  -4.327  66.683  1.00  0.00     0.210 HD
ENDBRANCH  27  28
BRANCH  27  30
HETATM   30  C13 UNL     1      12.846  -3.778  69.742  1.00  0.00     0.192 C 
BRANCH  30  31
HETATM   31  N7  UNL     1      13.464  -2.590  69.174  1.00  0.00    -0.071 NA
BRANCH  31  32
HETATM   32  O8  UNL     1      14.738  -2.840  68.810  1.00  0.00    -0.289 OA
ATOM     33  H8  UNL     1      15.011  -3.700  69.105  1.00  0.00     0.239 HD
ENDBRANCH  31  32
BRANCH  31  34
HETATM   34  O9  UNL     1      13.449  -1.543  70.010  1.00  0.00    -0.289 OA
ATOM     35  H9  UNL     1      13.268  -0.720  69.571  1.00  0.00     0.239 HD
ENDBRANCH  31  34
ENDBRANCH  30  31
ENDBRANCH  27  30
ENDBRANCH  23  27
ENDBRANCH  18  19
ENDBRANCH  17  18
ENDBRANCH  14  17
BRANCH   1  36
HETATM   36  N1  UNL     1      12.778  -7.786  61.833  1.00  0.00    -0.259 N 
HETATM   37  C2  UNL     1      13.791  -7.011  61.206  1.00  0.00     0.336 C 
HETATM   38  O3  UNL     1      14.829  -6.751  61.847  1.00  0.00    -0.259 OA
ATOM     39  H1  UNL     1      11.931  -7.996  61.304  1.00  0.00     0.190 HD
BRANCH  37  40
HETATM   40  C1  UNL     1      13.633  -6.531  59.861  1.00  0.00     0.271 C 
HETATM   41  O1  UNL     1      12.637  -5.879  59.454  1.00  0.00    -0.640 OA
HETATM   42  O2  UNL     1      14.631  -6.782  58.905  1.00  0.00    -0.640 OA
ENDBRANCH  37  40
ENDBRANCH   1  36
TORSDOF 12
ENDMDL
MODEL 4
REMARK VINA RESULT: -7.345107650      4.498      6.840
REMARK  12 active torsions:
REMARK  status: ('A' for Active; 'I' for Inactive)
REMARK    1  A    between atoms: C1_2  and  C2_4 
REMARK       I    between atoms: C2_4  and  N1_6 
REMARK    2  A    between atoms: N1_6  and  N2_8 
REMARK    3  A    between atoms: C8_21  and  O6_22 
REMARK    4  A    between atoms: C8_21  and  C9_24 
REMARK    5  A    between atoms: C9_24  and  S2_25 
REMARK    6  A    between atoms: S2_25  and  C10_26 
REMARK    7  A    between atoms: C11_31  and  C12_32 
REMARK    8  A    between atoms: C12_32  and  O7_33 
REMARK    9  A    between atoms: C12_32  and  C13_35 
REMARK   10  A    between atoms: C13_35  and  N7_36 
REMARK   11  A    between atoms: N7_36  and  O8_37 
REMARK   12  A    between atoms: N7_36  and  O9_39 
ROOT
HETATM    1  N2  UNL     1      12.066 -11.511  62.072  1.00  0.00    -0.283 N 
ATOM      2  H2  UNL     1      11.551 -11.891  62.867  1.00  0.00     0.188 HD
HETATM    3  C3  UNL     1      12.564 -10.334  62.181  1.00  0.00     0.139 A 
HETATM    4  N3  UNL     1      13.309  -9.603  61.232  1.00  0.00    -0.321 N 
HETATM    5  C4  UNL     1      13.802  -9.767  59.895  1.00  0.00     0.151 C 
HETATM    6  C5  UNL     1      13.332  -8.716  58.938  1.00  0.00     0.152 C 
HETATM    7  N4  UNL     1      13.824  -7.397  59.217  1.00  0.00    -0.313 N 
ATOM      8  H4  UNL     1      13.734  -6.611  58.573  1.00  0.00     0.172 HD
HETATM    9  S1  UNL     1      14.586  -7.287  60.763  1.00  0.00     0.274 S 
HETATM   10  O4  UNL     1      16.024  -7.694  60.710  1.00  0.00    -0.199 OA
HETATM   11  O5  UNL     1      14.479  -5.859  61.214  1.00  0.00    -0.199 OA
HETATM   12  C6  UNL     1      13.654  -8.324  61.819  1.00  0.00     0.152 A 
HETATM   13  C7  UNL     1      13.175  -8.243  63.032  1.00  0.00     0.063 A 
HETATM   14  C8  UNL     1      12.448  -9.464  63.402  1.00  0.00     0.147 A 
ENDROOT
BRANCH  14  15
HETATM   15  O6  UNL     1      13.130 -10.065  64.461  1.00  0.00    -0.377 OA
ATOM     16  H6  UNL     1      13.045  -9.521  65.235  1.00  0.00     0.211 HD
ENDBRANCH  14  15
BRANCH  14  17
HETATM   17  C9  UNL     1      11.020  -9.171  63.729  1.00  0.00     0.133 C 
BRANCH  17  18
HETATM   18  S2  UNL     1      10.694  -9.610  65.448  1.00  0.00    -0.089 SA
BRANCH  18  19
HETATM   19  C10 UNL     1      11.152  -8.307  66.574  1.00  0.00     0.160 A 
HETATM   20  N5  UNL     1      10.360  -7.566  67.362  1.00  0.00    -0.278 N 
HETATM   21  N6  UNL     1      11.074  -6.706  68.067  1.00  0.00    -0.285 N 
ATOM     22  H5  UNL     1       9.345  -7.653  67.411  1.00  0.00     0.189 HD
HETATM   23  C11 UNL     1      12.385  -6.868  67.750  1.00  0.00     0.128 A 
ATOM     24  H6  UNL     1      10.703  -6.033  68.738  1.00  0.00     0.188 HD
HETATM   25  N8  UNL     1      12.411  -7.852  66.836  1.00  0.00    -0.322 N 
ATOM     26  H8  UNL     1      13.260  -8.211  66.398  1.00  0.00     0.169 HD
BRANCH  23  27
HETATM   27  C12 UNL     1      13.518  -6.093  68.320  1.00  0.00     0.204 C 
BRANCH  27  28
HETATM   28  O7  UNL     1      14.090  -6.783  69.400  1.00  0.00    -0.387 OA
ATOM     29  H7  UNL     1      13.573  -7.551  69.615  1.00  0.00     0.210 HD
ENDBRANCH  27  28
BRANCH  27  30
HETATM   30  C13 UNL     1      13.131  -4.722  68.769  1.00  0.00     0.192 C 
BRANCH  30  31
HETATM   31  N7  UNL     1      12.332  -4.118  67.715  1.00  0.00    -0.071 NA
BRANCH  31  32
HETATM   32  O8  UNL     1      13.005  -3.111  67.121  1.00  0.00    -0.289 OA
ATOM     33  H8  UNL     1      13.924  -3.132  67.359  1.00  0.00     0.239 HD
ENDBRANCH  31  32
BRANCH  31  34
HETATM   34  O9  UNL     1      11.154  -3.654  68.151  1.00  0.00    -0.289 OA
ATOM     35  H9  UNL     1      10.519  -4.343  68.308  1.00  0.00     0.239 HD
ENDBRANCH  31  34
ENDBRANCH  30  31
ENDBRANCH  27  30
ENDBRANCH  23  27
ENDBRANCH  18  19
ENDBRANCH  17  18
ENDBRANCH  14  17
BRANCH   1  36
HETATM   36  N1  UNL     1      12.186 -12.291  60.944  1.00  0.00    -0.259 N 
HETATM   37  C2  UNL     1      13.223 -13.247  60.767  1.00  0.00     0.336 C 
HETATM   38  O3  UNL     1      14.067 -13.390  61.673  1.00  0.00    -0.259 OA
ATOM     39  H1  UNL     1      11.497 -12.178  60.200  1.00  0.00     0.190 HD
BRANCH  37  40
HETATM   40  C1  UNL     1      13.306 -14.039  59.570  1.00  0.00     0.271 C 
HETATM   41  O1  UNL     1      12.650 -15.093  59.373  1.00  0.00    -0.640 OA
HETATM   42  O2  UNL     1      14.162 -13.646  58.528  1.00  0.00    -0.640 OA
ENDBRANCH  37  40
ENDBRANCH   1  36
TORSDOF 12
ENDMDL
MODEL 5
REMARK VINA RESULT: -7.336877404      5.088      7.496
REMARK  12 active torsions:
REMARK  status: ('A' for Active; 'I' for Inactive)
REMARK    1  A    between atoms: C1_2  and  C2_4 
REMARK       I    between atoms: C2_4  and  N1_6 
REMARK    2  A    between atoms: N1_6  and  N2_8 
REMARK    3  A    between atoms: C8_21  and  O6_22 
REMARK    4  A    between atoms: C8_21  and  C9_24 
REMARK    5  A    between atoms: C9_24  and  S2_25 
REMARK    6  A    between atoms: S2_25  and  C10_26 
REMARK    7  A    between atoms: C11_31  and  C12_32 
REMARK    8  A    between atoms: C12_32  and  O7_33 
REMARK    9  A    between atoms: C12_32  and  C13_35 
REMARK   10  A    between atoms: C13_35  and  N7_36 
REMARK   11  A    between atoms: N7_36  and  O8_37 
REMARK   12  A    between atoms: N7_36  and  O9_39 
ROOT
HETATM    1  N2  UNL     1      13.138  -8.155  62.669  1.00  0.00    -0.283 N 
ATOM      2  H2  UNL     1      13.694  -7.441  63.140  1.00  0.00     0.188 HD
HETATM    3  C3  UNL     1      12.466  -8.974  63.394  1.00  0.00     0.139 A 
HETATM    4  N3  UNL     1      11.631 -10.034  62.979  1.00  0.00    -0.321 N 
HETATM    5  C4  UNL     1      11.186 -10.636  61.757  1.00  0.00     0.151 C 
HETATM    6  C5  UNL     1      11.503 -12.094  61.644  1.00  0.00     0.152 C 
HETATM    7  N4  UNL     1      10.814 -12.927  62.588  1.00  0.00    -0.313 N 
ATOM      8  H4  UNL     1      10.793 -13.945  62.535  1.00  0.00     0.172 HD
HETATM    9  S1  UNL     1      10.026 -12.014  63.824  1.00  0.00     0.274 S 
HETATM   10  O4  UNL     1       8.667 -11.556  63.402  1.00  0.00    -0.199 OA
HETATM   11  O5  UNL     1       9.911 -12.901  65.030  1.00  0.00    -0.199 OA
HETATM   12  C6  UNL     1      11.090 -10.669  64.165  1.00  0.00     0.152 A 
HETATM   13  C7  UNL     1      11.537 -10.072  65.238  1.00  0.00     0.063 A 
HETATM   14  C8  UNL     1      12.435  -8.961  64.897  1.00  0.00     0.147 A 
ENDROOT
BRANCH  14  15
HETATM   15  O6  UNL     1      11.838  -7.779  65.334  1.00  0.00    -0.377 OA
ATOM     16  H6  UNL     1      12.382  -7.042  65.082  1.00  0.00     0.211 HD
ENDBRANCH  14  15
BRANCH  14  17
HETATM   17  C9  UNL     1      13.798  -9.166  65.473  1.00  0.00     0.133 C 
BRANCH  17  18
HETATM   18  S2  UNL     1      13.707  -9.100  67.272  1.00  0.00    -0.089 SA
BRANCH  18  19
HETATM   19  C10 UNL     1      13.887  -7.440  67.896  1.00  0.00     0.160 A 
HETATM   20  N5  UNL     1      14.974  -6.857  68.420  1.00  0.00    -0.278 N 
HETATM   21  N6  UNL     1      14.717  -5.605  68.758  1.00  0.00    -0.285 N 
ATOM     22  H5  UNL     1      15.877  -7.316  68.540  1.00  0.00     0.189 HD
HETATM   23  C11 UNL     1      13.422  -5.333  68.456  1.00  0.00     0.128 A 
ATOM     24  H6  UNL     1      15.381  -4.954  69.176  1.00  0.00     0.188 HD
HETATM   25  N8  UNL     1      12.932  -6.467  67.930  1.00  0.00    -0.322 N 
ATOM     26  H8  UNL     1      11.974  -6.584  67.598  1.00  0.00     0.169 HD
BRANCH  23  27
HETATM   27  C12 UNL     1      12.732  -4.034  68.681  1.00  0.00     0.204 C 
BRANCH  27  28
HETATM   28  O7  UNL     1      12.760  -3.256  67.514  1.00  0.00    -0.387 OA
ATOM     29  H7  UNL     1      11.974  -2.725  67.450  1.00  0.00     0.210 HD
ENDBRANCH  27  28
BRANCH  27  30
HETATM   30  C13 UNL     1      13.314  -3.244  69.807  1.00  0.00     0.192 C 
BRANCH  30  31
HETATM   31  N7  UNL     1      14.225  -2.263  69.238  1.00  0.00    -0.071 NA
BRANCH  31  32
HETATM   32  O8  UNL     1      15.460  -2.785  69.092  1.00  0.00    -0.289 OA
ATOM     33  H8  UNL     1      15.758  -3.181  69.902  1.00  0.00     0.239 HD
ENDBRANCH  31  32
BRANCH  31  34
HETATM   34  O9  UNL     1      14.310  -1.143  69.968  1.00  0.00    -0.289 OA
ATOM     35  H9  UNL     1      15.169  -1.016  70.354  1.00  0.00     0.239 HD
ENDBRANCH  31  34
ENDBRANCH  30  31
ENDBRANCH  27  30
ENDBRANCH  23  27
ENDBRANCH  18  19
ENDBRANCH  17  18
ENDBRANCH  14  17
BRANCH   1  36
HETATM   36  N1  UNL     1      13.150  -8.185  61.293  1.00  0.00    -0.259 N 
HETATM   37  C2  UNL     1      13.760  -7.175  60.500  1.00  0.00     0.336 C 
HETATM   38  O3  UNL     1      14.310  -6.215  61.072  1.00  0.00    -0.259 OA
ATOM     39  H1  UNL     1      12.701  -8.970  60.820  1.00  0.00     0.190 HD
BRANCH  37  40
HETATM   40  C1  UNL     1      13.748  -7.251  59.065  1.00  0.00     0.271 C 
HETATM   41  O1  UNL     1      12.871  -7.855  58.395  1.00  0.00    -0.640 OA
HETATM   42  O2  UNL     1      14.761  -6.624  58.321  1.00  0.00    -0.640 OA
ENDBRANCH  37  40
ENDBRANCH   1  36
TORSDOF 12
ENDMDL
