MODEL 1
REMARK VINA RESULT: -7.600990916      0.000      0.000
REMARK  16 active torsions:
REMARK  status: ('A' for Active; 'I' for Inactive)
REMARK    1  A    between atoms: C2_2  and  C3_3 
REMARK    2  A    between atoms: C3_3  and  C5_5 
REMARK    3  A    between atoms: C5_5  and  C6_6 
REMARK    4  A    between atoms: C5_5  and  N1_13 
REMARK    5  A    between atoms: C6_6  and  C7_7 
REMARK       I    between atoms: N1_13  and  C13_15 
REMARK    6  A    between atoms: C13_15  and  C14_17 
REMARK    7  A    between atoms: C14_17  and  C15_18 
REMARK    8  A    between atoms: C14_17  and  N3_25 
REMARK    9  A    between atoms: C15_18  and  N2_19 
REMARK       I    between atoms: N3_25  and  C21_27 
REMARK   10  A    between atoms: C21_27  and  C22_29 
REMARK   11  A    between atoms: C22_29  and  N4_31 
REMARK   12  A    between atoms: N4_31  and  C24_33 
REMARK   13  A    between atoms: C24_33  and  C25_34 
REMARK   14  A    between atoms: C25_34  and  N5_35 
REMARK   15  A    between atoms: C25_34  and  C26_39 
REMARK   16  A    between atoms: C26_39  and  O3_40 
ROOT
HETATM    1  C14 UNL     1      30.124 -47.028  42.485  1.00  0.00     0.215 C 
ENDROOT
BRANCH   1   2
HETATM    2  C13 UNL     1      30.035 -45.730  41.737  1.00  0.00     0.246 C 
HETATM    3  N1  UNL     1      29.539 -44.569  42.302  1.00  0.00    -0.351 N 
ATOM      4  H1  UNL     1      29.213 -44.620  43.268  1.00  0.00     0.163 HD
HETATM    5  O1  UNL     1      30.449 -45.741  40.553  1.00  0.00    -0.271 OA
BRANCH   3   6
HETATM    6  C5  UNL     1      29.442 -43.235  41.603  1.00  0.00     0.111 C 
BRANCH   6   7
HETATM    7  C3  UNL     1      28.040 -43.169  41.171  1.00  0.00     0.008 C 
HETATM    8  C4  UNL     1      27.316 -44.514  41.278  1.00  0.00     0.012 C 
BRANCH   7   9
HETATM    9  C2  UNL     1      27.110 -42.161  41.716  1.00  0.00     0.002 C 
HETATM   10  C1  UNL     1      26.429 -42.519  43.008  1.00  0.00     0.005 C 
ENDBRANCH   7   9
ENDBRANCH   6   7
BRANCH   6  11
HETATM   11  C6  UNL     1      30.236 -42.270  42.283  1.00  0.00     0.005 C 
BRANCH  11  12
HETATM   12  C7  UNL     1      30.704 -40.920  41.963  1.00  0.00    -0.064 C 
HETATM   13  C8  UNL     1      30.944 -39.938  43.017  1.00  0.00    -0.020 C 
HETATM   14  C9  UNL     1      30.321 -38.610  43.008  1.00  0.00     0.027 C 
HETATM   15  C10 UNL     1      29.673 -38.115  41.787  1.00  0.00     0.004 C 
HETATM   16  C11 UNL     1      30.172 -38.868  40.598  1.00  0.00     0.005 C 
HETATM   17  C12 UNL     1      30.053 -40.344  40.705  1.00  0.00     0.038 C 
ENDBRANCH  11  12
ENDBRANCH   6  11
ENDBRANCH   3   6
ENDBRANCH   1   2
BRANCH   1  18
HETATM   18  C15 UNL     1      29.409 -47.058  43.775  1.00  0.00     0.097 C 
BRANCH  18  19
HETATM   19  N2  UNL     1      28.206 -47.764  43.918  1.00  0.00    -0.371 N 
HETATM   20  C16 UNL     1      27.038 -47.368  43.285  1.00  0.00     0.063 C 
HETATM   21  C17 UNL     1      26.037 -48.411  42.873  1.00  0.00     0.044 C 
HETATM   22  C18 UNL     1      26.485 -49.823  43.036  1.00  0.00     0.007 C 
HETATM   23  C19 UNL     1      27.135 -49.955  44.374  1.00  0.00     0.021 C 
HETATM   24  C20 UNL     1      28.317 -49.054  44.478  1.00  0.00     0.127 C 
ENDBRANCH  18  19
ENDBRANCH   1  18
BRANCH   1  25
HETATM   25  N3  UNL     1      29.812 -48.157  41.660  1.00  0.00    -0.342 N 
HETATM   26  C21 UNL     1      30.693 -49.322  41.615  1.00  0.00     0.240 C 
HETATM   27  O2  UNL     1      31.704 -49.245  42.338  1.00  0.00    -0.271 OA
ATOM     28  H3  UNL     1      28.962 -48.147  41.096  1.00  0.00     0.163 HD
BRANCH  26  29
HETATM   29  C22 UNL     1      30.406 -50.483  40.785  1.00  0.00     0.169 C 
HETATM   30  C23 UNL     1      30.801 -51.759  41.458  1.00  0.00     0.042 C 
BRANCH  29  31
HETATM   31  N4  UNL     1      30.766 -50.380  39.423  1.00  0.00    -0.388 N 
ATOM     32  H4  UNL     1      31.742 -50.223  39.175  1.00  0.00     0.159 HD
BRANCH  31  33
HETATM   33  C24 UNL     1      29.808 -50.490  38.407  1.00  0.00     0.091 C 
BRANCH  33  34
HETATM   34  C25 UNL     1      29.907 -49.552  37.236  1.00  0.00     0.244 C 
BRANCH  34  35
HETATM   35  N5  UNL     1      28.581 -49.297  36.652  1.00  0.00    -0.069 N 
ATOM     36  H53 UNL     1      28.336 -50.000  35.955  1.00  0.00     0.275 HD
ATOM     37  H52 UNL     1      27.834 -49.476  37.323  1.00  0.00     0.275 HD
ATOM     38  H51 UNL     1      28.525 -48.353  36.269  1.00  0.00     0.275 HD
ENDBRANCH  34  35
BRANCH  34  39
HETATM   39  C26 UNL     1      30.397 -48.209  37.763  1.00  0.00     0.202 C 
BRANCH  39  40
HETATM   40  O3  UNL     1      29.467 -47.736  38.661  1.00  0.00    -0.398 OA
ATOM     41  H3  UNL     1      29.461 -48.316  39.413  1.00  0.00     0.209 HD
ENDBRANCH  39  40
ENDBRANCH  34  39
ENDBRANCH  33  34
ENDBRANCH  31  33
ENDBRANCH  29  31
ENDBRANCH  26  29
ENDBRANCH   1  25
TORSDOF 16
ENDMDL
MODEL 2
REMARK VINA RESULT: -7.427468340      2.061      5.756
REMARK  16 active torsions:
REMARK  status: ('A' for Active; 'I' for Inactive)
REMARK    1  A    between atoms: C2_2  and  C3_3 
REMARK    2  A    between atoms: C3_3  and  C5_5 
REMARK    3  A    between atoms: C5_5  and  C6_6 
REMARK    4  A    between atoms: C5_5  and  N1_13 
REMARK    5  A    between atoms: C6_6  and  C7_7 
REMARK       I    between atoms: N1_13  and  C13_15 
REMARK    6  A    between atoms: C13_15  and  C14_17 
REMARK    7  A    between atoms: C14_17  and  C15_18 
REMARK    8  A    between atoms: C14_17  and  N3_25 
REMARK    9  A    between atoms: C15_18  and  N2_19 
REMARK       I    between atoms: N3_25  and  C21_27 
REMARK   10  A    between atoms: C21_27  and  C22_29 
REMARK   11  A    between atoms: C22_29  and  N4_31 
REMARK   12  A    between atoms: N4_31  and  C24_33 
REMARK   13  A    between atoms: C24_33  and  C25_34 
REMARK   14  A    between atoms: C25_34  and  N5_35 
REMARK   15  A    between atoms: C25_34  and  C26_39 
REMARK   16  A    between atoms: C26_39  and  O3_40 
ROOT
HETATM    1  C14 UNL     1      29.569 -49.333  39.150  1.00  0.00     0.215 C 
ENDROOT
BRANCH   1   2
HETATM    2  C13 UNL     1      28.479 -48.751  40.002  1.00  0.00     0.246 C 
HETATM    3  N1  UNL     1      28.720 -47.826  41.001  1.00  0.00    -0.351 N 
ATOM      4  H1  UNL     1      29.689 -47.548  41.161  1.00  0.00     0.163 HD
HETATM    5  O1  UNL     1      27.313 -49.140  39.756  1.00  0.00    -0.271 OA
BRANCH   3   6
HETATM    6  C5  UNL     1      27.662 -47.195  41.876  1.00  0.00     0.111 C 
BRANCH   6   7
HETATM    7  C3  UNL     1      27.852 -47.850  43.177  1.00  0.00     0.008 C 
HETATM    8  C4  UNL     1      28.810 -47.089  44.097  1.00  0.00     0.012 C 
BRANCH   7   9
HETATM    9  C2  UNL     1      26.705 -48.244  44.018  1.00  0.00     0.002 C 
HETATM   10  C1  UNL     1      26.890 -49.483  44.850  1.00  0.00     0.005 C 
ENDBRANCH   7   9
ENDBRANCH   6   7
BRANCH   6  11
HETATM   11  C6  UNL     1      27.525 -45.816  41.556  1.00  0.00     0.005 C 
BRANCH  11  12
HETATM   12  C7  UNL     1      27.944 -44.570  42.200  1.00  0.00    -0.064 C 
HETATM   13  C8  UNL     1      26.964 -43.564  42.602  1.00  0.00    -0.020 C 
HETATM   14  C9  UNL     1      27.054 -42.165  42.171  1.00  0.00     0.027 C 
HETATM   15  C10 UNL     1      28.296 -41.664  41.566  1.00  0.00     0.004 C 
HETATM   16  C11 UNL     1      29.438 -42.557  41.924  1.00  0.00     0.005 C 
HETATM   17  C12 UNL     1      29.228 -43.991  41.603  1.00  0.00     0.038 C 
ENDBRANCH  11  12
ENDBRANCH   6  11
ENDBRANCH   3   6
ENDBRANCH   1   2
BRANCH   1  18
HETATM   18  C15 UNL     1      30.179 -48.396  38.187  1.00  0.00     0.097 C 
BRANCH  18  19
HETATM   19  N2  UNL     1      30.704 -48.853  36.969  1.00  0.00    -0.371 N 
HETATM   20  C16 UNL     1      31.926 -48.416  36.483  1.00  0.00     0.063 C 
HETATM   21  C17 UNL     1      32.757 -49.347  35.644  1.00  0.00     0.044 C 
HETATM   22  C18 UNL     1      32.251 -50.746  35.555  1.00  0.00     0.007 C 
HETATM   23  C19 UNL     1      30.779 -50.695  35.310  1.00  0.00     0.021 C 
HETATM   24  C20 UNL     1      30.082 -49.996  36.425  1.00  0.00     0.127 C 
ENDBRANCH  18  19
ENDBRANCH   1  18
BRANCH   1  25
HETATM   25  N3  UNL     1      30.548 -50.038  39.922  1.00  0.00    -0.342 N 
HETATM   26  C21 UNL     1      30.461 -51.485  40.107  1.00  0.00     0.240 C 
HETATM   27  O2  UNL     1      29.491 -52.029  39.546  1.00  0.00    -0.271 OA
ATOM     28  H3  UNL     1      31.317 -49.522  40.350  1.00  0.00     0.163 HD
BRANCH  26  29
HETATM   29  C22 UNL     1      31.438 -52.230  40.888  1.00  0.00     0.169 C 
HETATM   30  C23 UNL     1      31.006 -53.645  41.114  1.00  0.00     0.042 C 
BRANCH  29  31
HETATM   31  N4  UNL     1      31.966 -51.570  42.019  1.00  0.00    -0.388 N 
ATOM     32  H4  UNL     1      32.911 -51.190  41.980  1.00  0.00     0.159 HD
BRANCH  31  33
HETATM   33  C24 UNL     1      31.216 -51.427  43.194  1.00  0.00     0.091 C 
BRANCH  33  34
HETATM   34  C25 UNL     1      30.935 -50.036  43.691  1.00  0.00     0.244 C 
BRANCH  34  35
HETATM   35  N5  UNL     1      30.976 -49.983  45.160  1.00  0.00    -0.069 N 
ATOM     36  H53 UNL     1      30.928 -49.024  45.503  1.00  0.00     0.275 HD
ATOM     37  H52 UNL     1      30.115 -50.339  45.574  1.00  0.00     0.275 HD
ATOM     38  H51 UNL     1      31.797 -50.470  45.521  1.00  0.00     0.275 HD
ENDBRANCH  34  35
BRANCH  34  39
HETATM   39  C26 UNL     1      32.067 -49.138  43.207  1.00  0.00     0.202 C 
BRANCH  39  40
HETATM   40  O3  UNL     1      31.563 -48.295  42.244  1.00  0.00    -0.398 OA
ATOM     41  H3  UNL     1      32.285 -48.000  41.702  1.00  0.00     0.209 HD
ENDBRANCH  39  40
ENDBRANCH  34  39
ENDBRANCH  33  34
ENDBRANCH  31  33
ENDBRANCH  29  31
ENDBRANCH  26  29
ENDBRANCH   1  25
TORSDOF 16
ENDMDL
MODEL 3
REMARK VINA RESULT: -7.345217274      1.729      2.457
REMARK  16 active torsions:
REMARK  status: ('A' for Active; 'I' for Inactive)
REMARK    1  A    between atoms: C2_2  and  C3_3 
REMARK    2  A    between atoms: C3_3  and  C5_5 
REMARK    3  A    between atoms: C5_5  and  C6_6 
REMARK    4  A    between atoms: C5_5  and  N1_13 
REMARK    5  A    between atoms: C6_6  and  C7_7 
REMARK       I    between atoms: N1_13  and  C13_15 
REMARK    6  A    between atoms: C13_15  and  C14_17 
REMARK    7  A    between atoms: C14_17  and  C15_18 
REMARK    8  A    between atoms: C14_17  and  N3_25 
REMARK    9  A    between atoms: C15_18  and  N2_19 
REMARK       I    between atoms: N3_25  and  C21_27 
REMARK   10  A    between atoms: C21_27  and  C22_29 
REMARK   11  A    between atoms: C22_29  and  N4_31 
REMARK   12  A    between atoms: N4_31  and  C24_33 
REMARK   13  A    between atoms: C24_33  and  C25_34 
REMARK   14  A    between atoms: C25_34  and  N5_35 
REMARK   15  A    between atoms: C25_34  and  C26_39 
REMARK   16  A    between atoms: C26_39  and  O3_40 
ROOT
HETATM    1  C14 UNL     1      30.137 -47.413  41.759  1.00  0.00     0.215 C 
ENDROOT
BRANCH   1   2
HETATM    2  C13 UNL     1      29.924 -45.998  41.309  1.00  0.00     0.246 C 
HETATM    3  N1  UNL     1      29.334 -45.036  42.108  1.00  0.00    -0.351 N 
ATOM      4  H1  UNL     1      29.024 -45.323  43.038  1.00  0.00     0.163 HD
HETATM    5  O1  UNL     1      30.324 -45.715  40.154  1.00  0.00    -0.271 OA
BRANCH   3   6
HETATM    6  C5  UNL     1      29.111 -43.595  41.714  1.00  0.00     0.111 C 
BRANCH   6   7
HETATM    7  C3  UNL     1      27.653 -43.435  41.794  1.00  0.00     0.008 C 
HETATM    8  C4  UNL     1      26.972 -44.533  42.615  1.00  0.00     0.012 C 
BRANCH   7   9
HETATM    9  C2  UNL     1      27.038 -42.164  42.223  1.00  0.00     0.002 C 
HETATM   10  C1  UNL     1      26.617 -41.229  41.123  1.00  0.00     0.005 C 
ENDBRANCH   7   9
ENDBRANCH   6   7
BRANCH   6  11
HETATM   11  C6  UNL     1      30.151 -42.780  42.240  1.00  0.00     0.005 C 
BRANCH  11  12
HETATM   12  C7  UNL     1      30.645 -41.434  41.946  1.00  0.00    -0.064 C 
HETATM   13  C8  UNL     1      30.887 -40.471  43.017  1.00  0.00    -0.020 C 
HETATM   14  C9  UNL     1      30.285 -39.133  43.020  1.00  0.00     0.027 C 
HETATM   15  C10 UNL     1      29.660 -38.610  41.797  1.00  0.00     0.004 C 
HETATM   16  C11 UNL     1      30.162 -39.354  40.604  1.00  0.00     0.005 C 
HETATM   17  C12 UNL     1      30.019 -40.829  40.689  1.00  0.00     0.038 C 
ENDBRANCH  11  12
ENDBRANCH   6  11
ENDBRANCH   3   6
ENDBRANCH   1   2
BRANCH   1  18
HETATM   18  C15 UNL     1      30.447 -47.576  43.192  1.00  0.00     0.097 C 
BRANCH  18  19
HETATM   19  N2  UNL     1      31.068 -48.739  43.670  1.00  0.00    -0.371 N 
HETATM   20  C16 UNL     1      30.392 -49.674  44.438  1.00  0.00     0.063 C 
HETATM   21  C17 UNL     1      30.783 -51.122  44.343  1.00  0.00     0.044 C 
HETATM   22  C18 UNL     1      31.773 -51.445  43.277  1.00  0.00     0.007 C 
HETATM   23  C19 UNL     1      32.858 -50.420  43.322  1.00  0.00     0.021 C 
HETATM   24  C20 UNL     1      32.307 -49.058  43.078  1.00  0.00     0.127 C 
ENDBRANCH  18  19
ENDBRANCH   1  18
BRANCH   1  25
HETATM   25  N3  UNL     1      29.089 -48.288  41.323  1.00  0.00    -0.342 N 
HETATM   26  C21 UNL     1      29.386 -49.484  40.538  1.00  0.00     0.240 C 
HETATM   27  O2  UNL     1      30.593 -49.666  40.293  1.00  0.00    -0.271 OA
ATOM     28  H3  UNL     1      28.122 -48.073  41.565  1.00  0.00     0.163 HD
BRANCH  26  29
HETATM   29  C22 UNL     1      28.344 -50.391  40.077  1.00  0.00     0.169 C 
HETATM   30  C23 UNL     1      27.810 -51.235  41.192  1.00  0.00     0.042 C 
BRANCH  29  31
HETATM   31  N4  UNL     1      28.603 -51.076  38.870  1.00  0.00    -0.388 N 
ATOM     32  H4  UNL     1      29.221 -51.887  38.878  1.00  0.00     0.159 HD
BRANCH  31  33
HETATM   33  C24 UNL     1      28.027 -50.665  37.661  1.00  0.00     0.091 C 
BRANCH  33  34
HETATM   34  C25 UNL     1      28.909 -49.987  36.650  1.00  0.00     0.244 C 
BRANCH  34  35
HETATM   35  N5  UNL     1      29.115 -48.572  36.994  1.00  0.00    -0.069 N 
ATOM     36  H53 UNL     1      29.215 -47.993  36.161  1.00  0.00     0.275 HD
ATOM     37  H52 UNL     1      28.267 -48.150  37.375  1.00  0.00     0.275 HD
ATOM     38  H51 UNL     1      29.907 -48.461  37.627  1.00  0.00     0.275 HD
ENDBRANCH  34  35
BRANCH  34  39
HETATM   39  C26 UNL     1      30.283 -50.641  36.727  1.00  0.00     0.202 C 
BRANCH  39  40
HETATM   40  O3  UNL     1      31.093 -49.845  37.505  1.00  0.00    -0.398 OA
ATOM     41  H3  UNL     1      30.886 -50.013  38.416  1.00  0.00     0.209 HD
ENDBRANCH  39  40
ENDBRANCH  34  39
ENDBRANCH  33  34
ENDBRANCH  31  33
ENDBRANCH  29  31
ENDBRANCH  26  29
ENDBRANCH   1  25
TORSDOF 16
ENDMDL
MODEL 4
REMARK VINA RESULT: -7.290064481      2.033      7.460
REMARK  16 active torsions:
REMARK  status: ('A' for Active; 'I' for Inactive)
REMARK    1  A    between atoms: C2_2  and  C3_3 
REMARK    2  A    between atoms: C3_3  and  C5_5 
REMARK    3  A    between atoms: C5_5  and  C6_6 
REMARK    4  A    between atoms: C5_5  and  N1_13 
REMARK    5  A    between atoms: C6_6  and  C7_7 
REMARK       I    between atoms: N1_13  and  C13_15 
REMARK    6  A    between atoms: C13_15  and  C14_17 
REMARK    7  A    between atoms: C14_17  and  C15_18 
REMARK    8  A    between atoms: C14_17  and  N3_25 
REMARK    9  A    between atoms: C15_18  and  N2_19 
REMARK       I    between atoms: N3_25  and  C21_27 
REMARK   10  A    between atoms: C21_27  and  C22_29 
REMARK   11  A    between atoms: C22_29  and  N4_31 
REMARK   12  A    between atoms: N4_31  and  C24_33 
REMARK   13  A    between atoms: C24_33  and  C25_34 
REMARK   14  A    between atoms: C25_34  and  N5_35 
REMARK   15  A    between atoms: C25_34  and  C26_39 
REMARK   16  A    between atoms: C26_39  and  O3_40 
ROOT
HETATM    1  C14 UNL     1      28.223 -45.870  42.243  1.00  0.00     0.215 C 
ENDROOT
BRANCH   1   2
HETATM    2  C13 UNL     1      27.716 -46.658  41.071  1.00  0.00     0.246 C 
HETATM    3  N1  UNL     1      28.096 -47.965  40.824  1.00  0.00    -0.351 N 
ATOM      4  H1  UNL     1      28.760 -48.391  41.471  1.00  0.00     0.163 HD
HETATM    5  O1  UNL     1      26.907 -46.071  40.315  1.00  0.00    -0.271 OA
BRANCH   3   6
HETATM    6  C5  UNL     1      27.605 -48.809  39.672  1.00  0.00     0.111 C 
BRANCH   6   7
HETATM    7  C3  UNL     1      28.832 -49.413  39.137  1.00  0.00     0.008 C 
HETATM    8  C4  UNL     1      30.104 -48.689  39.586  1.00  0.00     0.012 C 
BRANCH   7   9
HETATM    9  C2  UNL     1      29.111 -50.856  39.282  1.00  0.00     0.002 C 
HETATM   10  C1  UNL     1      28.632 -51.737  38.163  1.00  0.00     0.005 C 
ENDBRANCH   7   9
ENDBRANCH   6   7
BRANCH   6  11
HETATM   11  C6  UNL     1      26.360 -49.410  40.006  1.00  0.00     0.005 C 
BRANCH  11  12
HETATM   12  C7  UNL     1      25.768 -49.919  41.244  1.00  0.00    -0.064 C 
HETATM   13  C8  UNL     1      25.019 -49.039  42.137  1.00  0.00    -0.020 C 
HETATM   14  C9  UNL     1      25.344 -48.906  43.561  1.00  0.00     0.027 C 
HETATM   15  C10 UNL     1      26.241 -49.879  44.201  1.00  0.00     0.004 C 
HETATM   16  C11 UNL     1      26.302 -51.131  43.389  1.00  0.00     0.005 C 
HETATM   17  C12 UNL     1      26.662 -50.929  41.964  1.00  0.00     0.038 C 
ENDBRANCH  11  12
ENDBRANCH   6  11
ENDBRANCH   3   6
ENDBRANCH   1   2
BRANCH   1  18
HETATM   18  C15 UNL     1      27.602 -44.543  42.422  1.00  0.00     0.097 C 
BRANCH  18  19
HETATM   19  N2  UNL     1      28.162 -43.398  41.838  1.00  0.00    -0.371 N 
HETATM   20  C16 UNL     1      27.490 -42.187  41.795  1.00  0.00     0.063 C 
HETATM   21  C17 UNL     1      28.278 -40.908  41.838  1.00  0.00     0.044 C 
HETATM   22  C18 UNL     1      29.737 -41.067  42.100  1.00  0.00     0.007 C 
HETATM   23  C19 UNL     1      30.244 -42.185  41.249  1.00  0.00     0.021 C 
HETATM   24  C20 UNL     1      29.548 -43.459  41.580  1.00  0.00     0.127 C 
ENDBRANCH  18  19
ENDBRANCH   1  18
BRANCH   1  25
HETATM   25  N3  UNL     1      28.235 -46.636  43.454  1.00  0.00    -0.342 N 
HETATM   26  C21 UNL     1      29.370 -47.491  43.792  1.00  0.00     0.240 C 
HETATM   27  O2  UNL     1      30.296 -47.489  42.959  1.00  0.00    -0.271 OA
ATOM     28  H3  UNL     1      27.438 -46.583  44.089  1.00  0.00     0.163 HD
BRANCH  26  29
HETATM   29  C22 UNL     1      29.411 -48.284  45.012  1.00  0.00     0.169 C 
HETATM   30  C23 UNL     1      30.280 -47.656  46.055  1.00  0.00     0.042 C 
BRANCH  29  31
HETATM   31  N4  UNL     1      29.577 -49.677  44.845  1.00  0.00    -0.388 N 
ATOM     32  H4  UNL     1      28.764 -50.255  44.630  1.00  0.00     0.159 HD
BRANCH  31  33
HETATM   33  C24 UNL     1      30.835 -50.281  44.968  1.00  0.00     0.091 C 
BRANCH  33  34
HETATM   34  C25 UNL     1      31.429 -50.936  43.752  1.00  0.00     0.244 C 
BRANCH  34  35
HETATM   35  N5  UNL     1      30.612 -50.670  42.558  1.00  0.00    -0.069 N 
ATOM     36  H53 UNL     1      30.696 -49.701  42.254  1.00  0.00     0.275 HD
ATOM     37  H52 UNL     1      30.996 -51.127  41.731  1.00  0.00     0.275 HD
ATOM     38  H51 UNL     1      29.639 -50.932  42.715  1.00  0.00     0.275 HD
ENDBRANCH  34  35
BRANCH  34  39
HETATM   39  C26 UNL     1      32.779 -50.279  43.490  1.00  0.00     0.202 C 
BRANCH  39  40
HETATM   40  O3  UNL     1      32.619 -48.916  43.588  1.00  0.00    -0.398 OA
ATOM     41  H3  UNL     1      33.125 -48.509  42.896  1.00  0.00     0.209 HD
ENDBRANCH  39  40
ENDBRANCH  34  39
ENDBRANCH  33  34
ENDBRANCH  31  33
ENDBRANCH  29  31
ENDBRANCH  26  29
ENDBRANCH   1  25
TORSDOF 16
ENDMDL
MODEL 5
REMARK VINA RESULT: -7.287569335      2.580      7.946
REMARK  16 active torsions:
REMARK  status: ('A' for Active; 'I' for Inactive)
REMARK    1  A    between atoms: C2_2  and  C3_3 
REMARK    2  A    between atoms: C3_3  and  C5_5 
REMARK    3  A    between atoms: C5_5  and  C6_6 
REMARK    4  A    between atoms: C5_5  and  N1_13 
REMARK    5  A    between atoms: C6_6  and  C7_7 
REMARK       I    between atoms: N1_13  and  C13_15 
REMARK    6  A    between atoms: C13_15  and  C14_17 
REMARK    7  A    between atoms: C14_17  and  C15_18 
REMARK    8  A    between atoms: C14_17  and  N3_25 
REMARK    9  A    between atoms: C15_18  and  N2_19 
REMARK       I    between atoms: N3_25  and  C21_27 
REMARK   10  A    between atoms: C21_27  and  C22_29 
REMARK   11  A    between atoms: C22_29  and  N4_31 
REMARK   12  A    between atoms: N4_31  and  C24_33 
REMARK   13  A    between atoms: C24_33  and  C25_34 
REMARK   14  A    between atoms: C25_34  and  N5_35 
REMARK   15  A    between atoms: C25_34  and  C26_39 
REMARK   16  A    between atoms: C26_39  and  O3_40 
ROOT
HETATM    1  C14 UNL     1      27.796 -46.195  41.453  1.00  0.00     0.215 C 
ENDROOT
BRANCH   1   2
HETATM    2  C13 UNL     1      27.381 -46.934  42.691  1.00  0.00     0.246 C 
HETATM    3  N1  UNL     1      27.906 -48.163  43.044  1.00  0.00    -0.351 N 
ATOM      4  H1  UNL     1      28.596 -48.577  42.417  1.00  0.00     0.163 HD
HETATM    5  O1  UNL     1      26.525 -46.370  43.414  1.00  0.00    -0.271 OA
BRANCH   3   6
HETATM    6  C5  UNL     1      27.538 -48.942  44.284  1.00  0.00     0.111 C 
BRANCH   6   7
HETATM    7  C3  UNL     1      26.389 -49.752  43.858  1.00  0.00     0.008 C 
HETATM    8  C4  UNL     1      26.500 -51.220  44.279  1.00  0.00     0.012 C 
BRANCH   7   9
HETATM    9  C2  UNL     1      25.002 -49.345  44.158  1.00  0.00     0.002 C 
HETATM   10  C1  UNL     1      24.777 -48.704  45.499  1.00  0.00     0.005 C 
ENDBRANCH   7   9
ENDBRANCH   6   7
BRANCH   6  11
HETATM   11  C6  UNL     1      28.715 -49.322  44.988  1.00  0.00     0.005 C 
BRANCH  11  12
HETATM   12  C7  UNL     1      30.053 -49.757  44.585  1.00  0.00    -0.064 C 
HETATM   13  C8  UNL     1      31.004 -48.818  43.996  1.00  0.00    -0.020 C 
HETATM   14  C9  UNL     1      31.657 -49.069  42.707  1.00  0.00     0.027 C 
HETATM   15  C10 UNL     1      31.605 -50.410  42.109  1.00  0.00     0.004 C 
HETATM   16  C11 UNL     1      31.288 -51.427  43.155  1.00  0.00     0.005 C 
HETATM   17  C12 UNL     1      30.061 -51.145  43.942  1.00  0.00     0.038 C 
ENDBRANCH  11  12
ENDBRANCH   6  11
ENDBRANCH   3   6
ENDBRANCH   1   2
BRANCH   1  18
HETATM   18  C15 UNL     1      27.205 -46.695  40.197  1.00  0.00     0.097 C 
BRANCH  18  19
HETATM   19  N2  UNL     1      27.346 -48.038  39.817  1.00  0.00    -0.371 N 
HETATM   20  C16 UNL     1      28.582 -48.600  39.537  1.00  0.00     0.063 C 
HETATM   21  C17 UNL     1      28.806 -50.058  39.821  1.00  0.00     0.044 C 
HETATM   22  C18 UNL     1      27.703 -50.741  40.555  1.00  0.00     0.007 C 
HETATM   23  C19 UNL     1      26.407 -50.331  39.935  1.00  0.00     0.021 C 
HETATM   24  C20 UNL     1      26.218 -48.857  40.034  1.00  0.00     0.127 C 
ENDBRANCH  18  19
ENDBRANCH   1  18
BRANCH   1  25
HETATM   25  N3  UNL     1      27.662 -44.775  41.593  1.00  0.00    -0.342 N 
HETATM   26  C21 UNL     1      28.834 -43.924  41.790  1.00  0.00     0.240 C 
HETATM   27  O2  UNL     1      29.922 -44.529  41.822  1.00  0.00    -0.271 OA
ATOM     28  H3  UNL     1      26.735 -44.352  41.554  1.00  0.00     0.163 HD
BRANCH  26  29
HETATM   29  C22 UNL     1      28.731 -42.480  41.939  1.00  0.00     0.169 C 
HETATM   30  C23 UNL     1      27.344 -41.990  41.661  1.00  0.00     0.042 C 
BRANCH  29  31
HETATM   31  N4  UNL     1      29.769 -41.718  41.360  1.00  0.00    -0.388 N 
ATOM     32  H4  UNL     1      29.944 -41.790  40.358  1.00  0.00     0.159 HD
BRANCH  31  33
HETATM   33  C24 UNL     1      30.565 -40.864  42.135  1.00  0.00     0.091 C 
BRANCH  33  34
HETATM   34  C25 UNL     1      29.933 -39.619  42.693  1.00  0.00     0.244 C 
BRANCH  34  35
HETATM   35  N5  UNL     1      30.796 -39.001  43.711  1.00  0.00    -0.069 N 
ATOM     36  H53 UNL     1      31.315 -39.701  44.240  1.00  0.00     0.275 HD
ATOM     37  H52 UNL     1      31.584 -38.510  43.288  1.00  0.00     0.275 HD
ATOM     38  H51 UNL     1      30.257 -38.389  44.325  1.00  0.00     0.275 HD
ENDBRANCH  34  35
BRANCH  34  39
HETATM   39  C26 UNL     1      29.832 -38.607  41.558  1.00  0.00     0.202 C 
BRANCH  39  40
HETATM   40  O3  UNL     1      28.603 -38.756  40.959  1.00  0.00    -0.398 OA
ATOM     41  H3  UNL     1      28.711 -38.625  40.025  1.00  0.00     0.209 HD
ENDBRANCH  39  40
ENDBRANCH  34  39
ENDBRANCH  33  34
ENDBRANCH  31  33
ENDBRANCH  29  31
ENDBRANCH  26  29
ENDBRANCH   1  25
TORSDOF 16
ENDMDL
