MODEL 1
REMARK VINA RESULT: -6.559892195      0.000      0.000
REMARK  17 active torsions:
REMARK  status: ('A' for Active; 'I' for Inactive)
REMARK    1  A    between atoms: C2_2  and  C3_4 
REMARK    2  A    between atoms: C3_4  and  C4_5 
REMARK    3  A    between atoms: C3_4  and  N1_12 
REMARK    4  A    between atoms: C4_5  and  C5_6 
REMARK    5  A    between atoms: N1_12  and  C11_14 
REMARK    6  A    between atoms: C11_14  and  O2_15 
REMARK    7  A    between atoms: C11_14  and  C12_17 
REMARK    8  A    between atoms: C12_17  and  N2_18 
REMARK    9  A    between atoms: C12_17  and  C24_39 
REMARK       I    between atoms: N2_18  and  C13_20 
REMARK   10  A    between atoms: C13_20  and  C14_22 
REMARK   11  A    between atoms: C14_22  and  C15_23 
REMARK   12  A    between atoms: C14_22  and  N4_31 
REMARK   13  A    between atoms: C15_23  and  C16_24 
REMARK   14  A    between atoms: C16_24  and  C17_25 
REMARK   15  A    between atoms: C17_25  and  C18_26 
REMARK   16  A    between atoms: C18_26  and  N3_27 
REMARK   17  A    between atoms: C23_36  and  O4_37 
ROOT
HETATM    1  N2  UNL     1       4.894  44.736  57.497  1.00  0.00    -0.344 N 
ATOM      2  H2  UNL     1       4.939  43.717  57.479  1.00  0.00     0.163 HD
HETATM    3  C13 UNL     1       6.122  45.404  57.497  1.00  0.00     0.265 C 
HETATM    4  O3  UNL     1       6.071  46.684  57.524  1.00  0.00    -0.266 OA
ENDROOT
BRANCH   1   5
HETATM    5  C12 UNL     1       3.570  45.312  57.520  1.00  0.00     0.163 C 
BRANCH   5   6
HETATM    6  C11 UNL     1       3.154  45.700  56.161  1.00  0.00     0.139 C 
BRANCH   6   7
HETATM    7  N1  UNL     1       1.905  45.420  55.624  1.00  0.00    -0.339 N 
ATOM      8  H1  UNL     1       1.073  45.860  56.016  1.00  0.00     0.167 HD
BRANCH   7   9
HETATM    9  C3  UNL     1       1.781  44.505  54.508  1.00  0.00     0.057 C 
BRANCH   9  10
HETATM   10  C2  UNL     1       2.343  43.187  54.654  1.00  0.00     0.168 C 
HETATM   11  C1  UNL     1       3.699  42.689  54.272  1.00  0.00     0.098 C 
HETATM   12  O1  UNL     1       1.578  42.332  55.180  1.00  0.00    -0.292 OA
ENDBRANCH   9  10
BRANCH   9  13
HETATM   13  C4  UNL     1       2.054  45.214  53.218  1.00  0.00     0.065 C 
BRANCH  13  14
HETATM   14  C5  UNL     1       1.329  44.761  51.994  1.00  0.00    -0.009 C 
HETATM   15  C6  UNL     1       2.282  43.971  51.080  1.00  0.00     0.005 C 
HETATM   16  C7  UNL     1       2.395  44.729  49.792  1.00  0.00     0.000 C 
HETATM   17  C8  UNL     1       1.057  44.871  49.096  1.00  0.00     0.000 C 
HETATM   18  C9  UNL     1      -0.017  45.310  50.051  1.00  0.00     0.000 C 
HETATM   19  C10 UNL     1       0.684  45.908  51.287  1.00  0.00     0.005 C 
ENDBRANCH  13  14
ENDBRANCH   9  13
ENDBRANCH   7   9
ENDBRANCH   6   7
BRANCH   6  20
HETATM   20  O2  UNL     1       3.479  47.055  55.862  1.00  0.00    -0.348 OA
ATOM     21  H2  UNL     1       2.774  47.425  55.344  1.00  0.00     0.219 HD
ENDBRANCH   6  20
ENDBRANCH   5   6
BRANCH   5  22
HETATM   22  C24 UNL     1       2.563  44.292  58.061  1.00  0.00     0.008 C 
HETATM   23  C25 UNL     1       3.183  42.976  58.342  1.00  0.00     0.012 C 
HETATM   24  C26 UNL     1       1.704  44.846  59.148  1.00  0.00     0.012 C 
ENDBRANCH   5  22
ENDBRANCH   1   5
BRANCH   3  25
HETATM   25  C14 UNL     1       7.473  44.809  57.472  1.00  0.00     0.081 C 
BRANCH  25  26
HETATM   26  C15 UNL     1       8.282  45.178  58.712  1.00  0.00     0.063 C 
BRANCH  26  27
HETATM   27  C16 UNL     1       9.350  46.188  58.440  1.00  0.00     0.008 C 
BRANCH  27  28
HETATM   28  C17 UNL     1       9.706  46.485  57.042  1.00  0.00     0.027 C 
BRANCH  28  29
HETATM   29  C18 UNL     1       9.581  47.889  56.595  1.00  0.00     0.229 C 
BRANCH  29  30
HETATM   30  N3  UNL     1       8.403  48.122  55.826  1.00  0.00    -0.079 N 
ATOM     31  H33 UNL     1       8.419  47.581  54.961  1.00  0.00     0.274 HD
ATOM     32  H32 UNL     1       7.588  47.701  56.271  1.00  0.00     0.274 HD
ATOM     33  H31 UNL     1       8.244  49.111  55.635  1.00  0.00     0.274 HD
ENDBRANCH  29  30
ENDBRANCH  28  29
ENDBRANCH  27  28
ENDBRANCH  26  27
ENDBRANCH  25  26
BRANCH  25  34
HETATM   34  N4  UNL     1       7.646  43.567  56.915  1.00  0.00    -0.332 N 
HETATM   35  C19 UNL     1       7.962  42.470  57.740  1.00  0.00     0.067 C 
HETATM   36  C20 UNL     1       8.755  41.407  57.005  1.00  0.00     0.045 C 
HETATM   37  C21 UNL     1       7.956  40.852  55.849  1.00  0.00     0.009 C 
HETATM   38  C22 UNL     1       6.935  41.860  55.438  1.00  0.00     0.054 C 
HETATM   39  C23 UNL     1       7.469  43.304  55.547  1.00  0.00     0.224 C 
BRANCH  39  40
HETATM   40  O4  UNL     1       8.626  43.282  54.766  1.00  0.00    -0.376 OA
ATOM     41  H4  UNL     1       8.938  44.122  54.451  1.00  0.00     0.212 HD
ENDBRANCH  39  40
ENDBRANCH  25  34
ENDBRANCH   3  25
TORSDOF 17
ENDMDL
MODEL 2
REMARK VINA RESULT: -6.395375530      3.095      6.304
REMARK  17 active torsions:
REMARK  status: ('A' for Active; 'I' for Inactive)
REMARK    1  A    between atoms: C2_2  and  C3_4 
REMARK    2  A    between atoms: C3_4  and  C4_5 
REMARK    3  A    between atoms: C3_4  and  N1_12 
REMARK    4  A    between atoms: C4_5  and  C5_6 
REMARK    5  A    between atoms: N1_12  and  C11_14 
REMARK    6  A    between atoms: C11_14  and  O2_15 
REMARK    7  A    between atoms: C11_14  and  C12_17 
REMARK    8  A    between atoms: C12_17  and  N2_18 
REMARK    9  A    between atoms: C12_17  and  C24_39 
REMARK       I    between atoms: N2_18  and  C13_20 
REMARK   10  A    between atoms: C13_20  and  C14_22 
REMARK   11  A    between atoms: C14_22  and  C15_23 
REMARK   12  A    between atoms: C14_22  and  N4_31 
REMARK   13  A    between atoms: C15_23  and  C16_24 
REMARK   14  A    between atoms: C16_24  and  C17_25 
REMARK   15  A    between atoms: C17_25  and  C18_26 
REMARK   16  A    between atoms: C18_26  and  N3_27 
REMARK   17  A    between atoms: C23_36  and  O4_37 
ROOT
HETATM    1  N2  UNL     1       5.737  45.610  59.175  1.00  0.00    -0.344 N 
ATOM      2  H2  UNL     1       5.029  45.101  59.705  1.00  0.00     0.163 HD
HETATM    3  C13 UNL     1       6.038  45.100  57.909  1.00  0.00     0.265 C 
HETATM    4  O3  UNL     1       6.930  45.733  57.241  1.00  0.00    -0.266 OA
ENDROOT
BRANCH   1   5
HETATM    5  C12 UNL     1       6.305  46.768  59.825  1.00  0.00     0.163 C 
BRANCH   5   6
HETATM    6  C11 UNL     1       5.518  47.972  59.510  1.00  0.00     0.139 C 
BRANCH   6   7
HETATM    7  N1  UNL     1       4.664  48.596  60.407  1.00  0.00    -0.339 N 
ATOM      8  H1  UNL     1       5.047  49.138  61.182  1.00  0.00     0.167 HD
BRANCH   7   9
HETATM    9  C3  UNL     1       3.228  48.479  60.247  1.00  0.00     0.057 C 
BRANCH   9  10
HETATM   10  C2  UNL     1       2.428  49.652  60.487  1.00  0.00     0.168 C 
HETATM   11  C1  UNL     1       1.094  50.018  59.921  1.00  0.00     0.098 C 
HETATM   12  O1  UNL     1       2.926  50.489  61.290  1.00  0.00    -0.292 OA
ENDBRANCH   9  10
BRANCH   9  13
HETATM   13  C4  UNL     1       2.739  47.196  60.843  1.00  0.00     0.065 C 
BRANCH  13  14
HETATM   14  C5  UNL     1       2.320  46.101  59.920  1.00  0.00    -0.009 C 
HETATM   15  C6  UNL     1       2.229  46.633  58.478  1.00  0.00     0.005 C 
HETATM   16  C7  UNL     1       0.801  46.495  58.042  1.00  0.00     0.000 C 
HETATM   17  C8  UNL     1       0.337  45.053  58.060  1.00  0.00     0.000 C 
HETATM   18  C9  UNL     1       0.726  44.366  59.339  1.00  0.00     0.000 C 
HETATM   19  C10 UNL     1       1.048  45.463  60.372  1.00  0.00     0.005 C 
ENDBRANCH  13  14
ENDBRANCH   9  13
ENDBRANCH   7   9
ENDBRANCH   6   7
BRANCH   6  20
HETATM   20  O2  UNL     1       6.298  48.974  58.862  1.00  0.00    -0.348 OA
ATOM     21  H2  UNL     1       6.178  48.887  57.923  1.00  0.00     0.219 HD
ENDBRANCH   6  20
ENDBRANCH   5   6
BRANCH   5  22
HETATM   22  C24 UNL     1       6.301  46.572  61.344  1.00  0.00     0.008 C 
HETATM   23  C25 UNL     1       5.812  45.230  61.743  1.00  0.00     0.012 C 
HETATM   24  C26 UNL     1       7.571  47.013  61.990  1.00  0.00     0.012 C 
ENDBRANCH   5  22
ENDBRANCH   1   5
BRANCH   3  25
HETATM   25  C14 UNL     1       5.453  43.916  57.248  1.00  0.00     0.081 C 
BRANCH  25  26
HETATM   26  C15 UNL     1       4.150  44.250  56.529  1.00  0.00     0.063 C 
BRANCH  26  27
HETATM   27  C16 UNL     1       3.113  43.181  56.664  1.00  0.00     0.008 C 
BRANCH  27  28
HETATM   28  C17 UNL     1       2.214  42.917  55.527  1.00  0.00     0.027 C 
BRANCH  28  29
HETATM   29  C18 UNL     1       2.843  42.644  54.217  1.00  0.00     0.229 C 
BRANCH  29  30
HETATM   30  N3  UNL     1       2.106  43.187  53.125  1.00  0.00    -0.079 N 
ATOM     31  H33 UNL     1       1.256  43.648  53.452  1.00  0.00     0.274 HD
ATOM     32  H32 UNL     1       2.587  43.992  52.724  1.00  0.00     0.274 HD
ATOM     33  H31 UNL     1       1.892  42.495  52.408  1.00  0.00     0.274 HD
ENDBRANCH  29  30
ENDBRANCH  28  29
ENDBRANCH  27  28
ENDBRANCH  26  27
ENDBRANCH  25  26
BRANCH  25  34
HETATM   34  N4  UNL     1       6.289  42.977  56.699  1.00  0.00    -0.332 N 
HETATM   35  C19 UNL     1       6.936  42.045  57.533  1.00  0.00     0.067 C 
HETATM   36  C20 UNL     1       8.253  41.569  56.951  1.00  0.00     0.045 C 
HETATM   37  C21 UNL     1       8.030  40.872  55.630  1.00  0.00     0.009 C 
HETATM   38  C22 UNL     1       6.743  41.348  55.043  1.00  0.00     0.054 C 
HETATM   39  C23 UNL     1       6.500  42.848  55.317  1.00  0.00     0.224 C 
BRANCH  39  40
HETATM   40  O4  UNL     1       7.647  43.460  54.807  1.00  0.00    -0.376 OA
ATOM     41  H4  UNL     1       8.180  42.935  54.222  1.00  0.00     0.212 HD
ENDBRANCH  39  40
ENDBRANCH  25  34
ENDBRANCH   3  25
TORSDOF 17
ENDMDL
MODEL 3
REMARK VINA RESULT: -6.374392893      3.107      6.807
REMARK  17 active torsions:
REMARK  status: ('A' for Active; 'I' for Inactive)
REMARK    1  A    between atoms: C2_2  and  C3_4 
REMARK    2  A    between atoms: C3_4  and  C4_5 
REMARK    3  A    between atoms: C3_4  and  N1_12 
REMARK    4  A    between atoms: C4_5  and  C5_6 
REMARK    5  A    between atoms: N1_12  and  C11_14 
REMARK    6  A    between atoms: C11_14  and  O2_15 
REMARK    7  A    between atoms: C11_14  and  C12_17 
REMARK    8  A    between atoms: C12_17  and  N2_18 
REMARK    9  A    between atoms: C12_17  and  C24_39 
REMARK       I    between atoms: N2_18  and  C13_20 
REMARK   10  A    between atoms: C13_20  and  C14_22 
REMARK   11  A    between atoms: C14_22  and  C15_23 
REMARK   12  A    between atoms: C14_22  and  N4_31 
REMARK   13  A    between atoms: C15_23  and  C16_24 
REMARK   14  A    between atoms: C16_24  and  C17_25 
REMARK   15  A    between atoms: C17_25  and  C18_26 
REMARK   16  A    between atoms: C18_26  and  N3_27 
REMARK   17  A    between atoms: C23_36  and  O4_37 
ROOT
HETATM    1  N2  UNL     1       2.576  45.395  58.112  1.00  0.00    -0.344 N 
ATOM      2  H2  UNL     1       3.145  46.048  58.652  1.00  0.00     0.163 HD
HETATM    3  C13 UNL     1       1.252  45.241  58.535  1.00  0.00     0.265 C 
HETATM    4  O3  UNL     1       0.535  44.419  57.864  1.00  0.00    -0.266 OA
ENDROOT
BRANCH   1   5
HETATM    5  C12 UNL     1       3.236  44.744  57.006  1.00  0.00     0.163 C 
BRANCH   5   6
HETATM    6  C11 UNL     1       3.010  45.493  55.758  1.00  0.00     0.139 C 
BRANCH   6   7
HETATM    7  N1  UNL     1       1.845  45.414  55.008  1.00  0.00    -0.339 N 
ATOM      8  H1  UNL     1       1.073  46.053  55.198  1.00  0.00     0.167 HD
BRANCH   7   9
HETATM    9  C3  UNL     1       1.722  44.425  53.956  1.00  0.00     0.057 C 
BRANCH   9  10
HETATM   10  C2  UNL     1       2.221  43.100  54.218  1.00  0.00     0.168 C 
HETATM   11  C1  UNL     1       3.438  42.424  53.675  1.00  0.00     0.098 C 
HETATM   12  O1  UNL     1       1.530  42.414  55.021  1.00  0.00    -0.292 OA
ENDBRANCH   9  10
BRANCH   9  13
HETATM   13  C4  UNL     1       2.071  45.027  52.631  1.00  0.00     0.065 C 
BRANCH  13  14
HETATM   14  C5  UNL     1       1.390  44.500  51.412  1.00  0.00    -0.009 C 
HETATM   15  C6  UNL     1       2.436  44.063  50.370  1.00  0.00     0.005 C 
HETATM   16  C7  UNL     1       2.245  44.925  49.160  1.00  0.00     0.000 C 
HETATM   17  C8  UNL     1       0.863  44.766  48.559  1.00  0.00     0.000 C 
HETATM   18  C9  UNL     1      -0.206  44.830  49.614  1.00  0.00     0.000 C 
HETATM   19  C10 UNL     1       0.417  45.489  50.860  1.00  0.00     0.005 C 
ENDBRANCH  13  14
ENDBRANCH   9  13
ENDBRANCH   7   9
ENDBRANCH   6   7
BRANCH   6  20
HETATM   20  O2  UNL     1       3.375  46.866  55.877  1.00  0.00    -0.348 OA
ATOM     21  H2  UNL     1       4.323  46.923  55.891  1.00  0.00     0.219 HD
ENDBRANCH   6  20
ENDBRANCH   5   6
BRANCH   5  22
HETATM   22  C24 UNL     1       4.745  44.676  57.261  1.00  0.00     0.008 C 
HETATM   23  C25 UNL     1       5.118  45.186  58.602  1.00  0.00     0.012 C 
HETATM   24  C26 UNL     1       5.339  43.361  56.883  1.00  0.00     0.012 C 
ENDBRANCH   5  22
ENDBRANCH   1   5
BRANCH   3  25
HETATM   25  C14 UNL     1       0.581  45.911  59.667  1.00  0.00     0.081 C 
BRANCH  25  26
HETATM   26  C15 UNL     1      -0.095  44.912  60.602  1.00  0.00     0.063 C 
BRANCH  26  27
HETATM   27  C16 UNL     1      -1.331  45.453  61.246  1.00  0.00     0.008 C 
BRANCH  27  28
HETATM   28  C17 UNL     1      -2.392  46.009  60.390  1.00  0.00     0.027 C 
BRANCH  28  29
HETATM   29  C18 UNL     1      -3.444  46.812  61.051  1.00  0.00     0.229 C 
BRANCH  29  30
HETATM   30  N3  UNL     1      -2.946  48.025  61.609  1.00  0.00    -0.079 N 
ATOM     31  H33 UNL     1      -3.564  48.807  61.392  1.00  0.00     0.274 HD
ATOM     32  H32 UNL     1      -3.031  48.022  62.625  1.00  0.00     0.274 HD
ATOM     33  H31 UNL     1      -1.988  48.228  61.324  1.00  0.00     0.274 HD
ENDBRANCH  29  30
ENDBRANCH  28  29
ENDBRANCH  27  28
ENDBRANCH  26  27
ENDBRANCH  25  26
BRANCH  25  34
HETATM   34  N4  UNL     1       1.146  47.040  60.204  1.00  0.00    -0.332 N 
HETATM   35  C19 UNL     1       2.218  46.924  61.109  1.00  0.00     0.067 C 
HETATM   36  C20 UNL     1       2.278  48.082  62.084  1.00  0.00     0.045 C 
HETATM   37  C21 UNL     1       2.484  49.386  61.349  1.00  0.00     0.009 C 
HETATM   38  C22 UNL     1       2.005  49.231  59.945  1.00  0.00     0.054 C 
HETATM   39  C23 UNL     1       0.746  48.341  59.856  1.00  0.00     0.224 C 
BRANCH  39  40
HETATM   40  O4  UNL     1      -0.153  48.965  60.723  1.00  0.00    -0.376 OA
ATOM     41  H4  UNL     1      -1.071  48.924  60.479  1.00  0.00     0.212 HD
ENDBRANCH  39  40
ENDBRANCH  25  34
ENDBRANCH   3  25
TORSDOF 17
ENDMDL
MODEL 4
REMARK VINA RESULT: -6.362790392      2.778      4.520
REMARK  17 active torsions:
REMARK  status: ('A' for Active; 'I' for Inactive)
REMARK    1  A    between atoms: C2_2  and  C3_4 
REMARK    2  A    between atoms: C3_4  and  C4_5 
REMARK    3  A    between atoms: C3_4  and  N1_12 
REMARK    4  A    between atoms: C4_5  and  C5_6 
REMARK    5  A    between atoms: N1_12  and  C11_14 
REMARK    6  A    between atoms: C11_14  and  O2_15 
REMARK    7  A    between atoms: C11_14  and  C12_17 
REMARK    8  A    between atoms: C12_17  and  N2_18 
REMARK    9  A    between atoms: C12_17  and  C24_39 
REMARK       I    between atoms: N2_18  and  C13_20 
REMARK   10  A    between atoms: C13_20  and  C14_22 
REMARK   11  A    between atoms: C14_22  and  C15_23 
REMARK   12  A    between atoms: C14_22  and  N4_31 
REMARK   13  A    between atoms: C15_23  and  C16_24 
REMARK   14  A    between atoms: C16_24  and  C17_25 
REMARK   15  A    between atoms: C17_25  and  C18_26 
REMARK   16  A    between atoms: C18_26  and  N3_27 
REMARK   17  A    between atoms: C23_36  and  O4_37 
ROOT
HETATM    1  N2  UNL     1       2.909  46.181  57.550  1.00  0.00    -0.344 N 
ATOM      2  H2  UNL     1       3.641  45.494  57.731  1.00  0.00     0.163 HD
HETATM    3  C13 UNL     1       3.067  47.424  58.169  1.00  0.00     0.265 C 
HETATM    4  O3  UNL     1       2.148  48.289  57.948  1.00  0.00    -0.266 OA
ENDROOT
BRANCH   1   5
HETATM    5  C12 UNL     1       1.835  45.750  56.685  1.00  0.00     0.163 C 
BRANCH   5   6
HETATM    6  C11 UNL     1       2.371  45.019  55.524  1.00  0.00     0.139 C 
BRANCH   6   7
HETATM    7  N1  UNL     1       2.142  45.386  54.206  1.00  0.00    -0.339 N 
ATOM      8  H1  UNL     1       2.260  46.358  53.920  1.00  0.00     0.167 HD
BRANCH   7   9
HETATM    9  C3  UNL     1       1.734  44.392  53.234  1.00  0.00     0.057 C 
BRANCH   9  10
HETATM   10  C2  UNL     1       2.110  43.023  53.475  1.00  0.00     0.168 C 
HETATM   11  C1  UNL     1       1.713  42.116  54.595  1.00  0.00     0.098 C 
HETATM   12  O1  UNL     1       2.884  42.518  52.616  1.00  0.00    -0.292 OA
ENDBRANCH   9  10
BRANCH   9  13
HETATM   13  C4  UNL     1       1.930  44.909  51.843  1.00  0.00     0.065 C 
BRANCH  13  14
HETATM   14  C5  UNL     1       1.140  44.289  50.739  1.00  0.00    -0.009 C 
HETATM   15  C6  UNL     1       2.067  43.938  49.561  1.00  0.00     0.005 C 
HETATM   16  C7  UNL     1       1.618  44.749  48.384  1.00  0.00     0.000 C 
HETATM   17  C8  UNL     1       0.188  44.438  47.990  1.00  0.00     0.000 C 
HETATM   18  C9  UNL     1      -0.720  44.417  49.186  1.00  0.00     0.000 C 
HETATM   19  C10 UNL     1       0.002  45.163  50.326  1.00  0.00     0.005 C 
ENDBRANCH  13  14
ENDBRANCH   9  13
ENDBRANCH   7   9
ENDBRANCH   6   7
BRANCH   6  20
HETATM   20  O2  UNL     1       3.755  44.711  55.671  1.00  0.00    -0.348 OA
ATOM     21  H2  UNL     1       3.852  44.105  56.396  1.00  0.00     0.219 HD
ENDBRANCH   6  20
ENDBRANCH   5   6
BRANCH   5  22
HETATM   22  C24 UNL     1       0.889  44.817  57.448  1.00  0.00     0.008 C 
HETATM   23  C25 UNL     1       1.614  43.857  58.314  1.00  0.00     0.012 C 
HETATM   24  C26 UNL     1      -0.243  45.541  58.096  1.00  0.00     0.012 C 
ENDBRANCH   5  22
ENDBRANCH   1   5
BRANCH   3  25
HETATM   25  C14 UNL     1       4.168  47.860  59.051  1.00  0.00     0.081 C 
BRANCH  25  26
HETATM   26  C15 UNL     1       3.749  47.886  60.518  1.00  0.00     0.063 C 
BRANCH  26  27
HETATM   27  C16 UNL     1       3.149  49.189  60.936  1.00  0.00     0.008 C 
BRANCH  27  28
HETATM   28  C17 UNL     1       1.891  49.178  61.702  1.00  0.00     0.027 C 
BRANCH  28  29
HETATM   29  C18 UNL     1       0.629  49.194  60.931  1.00  0.00     0.229 C 
BRANCH  29  30
HETATM   30  N3  UNL     1       0.684  50.054  59.797  1.00  0.00    -0.079 N 
ATOM     31  H33 UNL     1      -0.254  50.300  59.479  1.00  0.00     0.274 HD
ATOM     32  H32 UNL     1       1.020  50.981  60.057  1.00  0.00     0.274 HD
ATOM     33  H31 UNL     1       1.237  49.667  59.033  1.00  0.00     0.274 HD
ENDBRANCH  29  30
ENDBRANCH  28  29
ENDBRANCH  27  28
ENDBRANCH  26  27
ENDBRANCH  25  26
BRANCH  25  34
HETATM   34  N4  UNL     1       5.456  47.503  58.738  1.00  0.00    -0.332 N 
HETATM   35  C19 UNL     1       6.406  48.500  58.444  1.00  0.00     0.067 C 
HETATM   36  C20 UNL     1       7.490  48.003  57.509  1.00  0.00     0.045 C 
HETATM   37  C21 UNL     1       8.255  46.863  58.139  1.00  0.00     0.009 C 
HETATM   38  C22 UNL     1       7.394  46.217  59.173  1.00  0.00     0.054 C 
HETATM   39  C23 UNL     1       5.911  46.174  58.749  1.00  0.00     0.224 C 
BRANCH  39  40
HETATM   40  O4  UNL     1       5.945  45.522  57.515  1.00  0.00    -0.376 OA
ATOM     41  H4  UNL     1       5.283  44.856  57.372  1.00  0.00     0.212 HD
ENDBRANCH  39  40
ENDBRANCH  25  34
ENDBRANCH   3  25
TORSDOF 17
ENDMDL
MODEL 5
REMARK VINA RESULT: -6.275978276      2.654      5.472
REMARK  17 active torsions:
REMARK  status: ('A' for Active; 'I' for Inactive)
REMARK    1  A    between atoms: C2_2  and  C3_4 
REMARK    2  A    between atoms: C3_4  and  C4_5 
REMARK    3  A    between atoms: C3_4  and  N1_12 
REMARK    4  A    between atoms: C4_5  and  C5_6 
REMARK    5  A    between atoms: N1_12  and  C11_14 
REMARK    6  A    between atoms: C11_14  and  O2_15 
REMARK    7  A    between atoms: C11_14  and  C12_17 
REMARK    8  A    between atoms: C12_17  and  N2_18 
REMARK    9  A    between atoms: C12_17  and  C24_39 
REMARK       I    between atoms: N2_18  and  C13_20 
REMARK   10  A    between atoms: C13_20  and  C14_22 
REMARK   11  A    between atoms: C14_22  and  C15_23 
REMARK   12  A    between atoms: C14_22  and  N4_31 
REMARK   13  A    between atoms: C15_23  and  C16_24 
REMARK   14  A    between atoms: C16_24  and  C17_25 
REMARK   15  A    between atoms: C17_25  and  C18_26 
REMARK   16  A    between atoms: C18_26  and  N3_27 
REMARK   17  A    between atoms: C23_36  and  O4_37 
ROOT
HETATM    1  N2  UNL     1       4.139  43.856  56.456  1.00  0.00    -0.344 N 
ATOM      2  H2  UNL     1       4.263  44.596  55.764  1.00  0.00     0.163 HD
HETATM    3  C13 UNL     1       5.186  43.685  57.366  1.00  0.00     0.265 C 
HETATM    4  O3  UNL     1       5.037  42.754  58.233  1.00  0.00    -0.266 OA
ENDROOT
BRANCH   1   5
HETATM    5  C12 UNL     1       2.902  43.114  56.375  1.00  0.00     0.163 C 
BRANCH   5   6
HETATM    6  C11 UNL     1       2.097  43.322  57.590  1.00  0.00     0.139 C 
BRANCH   6   7
HETATM    7  N1  UNL     1       0.944  44.093  57.632  1.00  0.00    -0.339 N 
ATOM      8  H1  UNL     1       0.143  43.841  57.054  1.00  0.00     0.167 HD
BRANCH   7   9
HETATM    9  C3  UNL     1       0.876  45.253  58.496  1.00  0.00     0.057 C 
BRANCH   9  10
HETATM   10  C2  UNL     1      -0.421  45.662  58.972  1.00  0.00     0.168 C 
HETATM   11  C1  UNL     1      -0.924  45.763  60.375  1.00  0.00     0.098 C 
HETATM   12  O1  UNL     1      -1.248  45.980  58.073  1.00  0.00    -0.292 OA
ENDBRANCH   9  10
BRANCH   9  13
HETATM   13  C4  UNL     1       1.779  46.335  57.991  1.00  0.00     0.065 C 
BRANCH  13  14
HETATM   14  C5  UNL     1       2.857  46.836  58.893  1.00  0.00    -0.009 C 
HETATM   15  C6  UNL     1       3.090  45.838  60.042  1.00  0.00     0.005 C 
HETATM   16  C7  UNL     1       2.759  46.546  61.321  1.00  0.00     0.000 C 
HETATM   17  C8  UNL     1       3.638  47.760  61.544  1.00  0.00     0.000 C 
HETATM   18  C9  UNL     1       3.733  48.605  60.305  1.00  0.00     0.000 C 
HETATM   19  C10 UNL     1       2.558  48.213  59.388  1.00  0.00     0.005 C 
ENDBRANCH  13  14
ENDBRANCH   9  13
ENDBRANCH   7   9
ENDBRANCH   6   7
BRANCH   6  20
HETATM   20  O2  UNL     1       1.850  42.105  58.291  1.00  0.00    -0.348 OA
ATOM     21  H2  UNL     1       1.669  42.314  59.200  1.00  0.00     0.219 HD
ENDBRANCH   6  20
ENDBRANCH   5   6
BRANCH   5  22
HETATM   22  C24 UNL     1       2.086  43.584  55.167  1.00  0.00     0.008 C 
HETATM   23  C25 UNL     1       2.398  44.981  54.779  1.00  0.00     0.012 C 
HETATM   24  C26 UNL     1       2.074  42.593  54.052  1.00  0.00     0.012 C 
ENDBRANCH   5  22
ENDBRANCH   1   5
BRANCH   3  25
HETATM   25  C14 UNL     1       6.448  44.448  57.445  1.00  0.00     0.081 C 
BRANCH  25  26
HETATM   26  C15 UNL     1       6.492  45.352  58.673  1.00  0.00     0.063 C 
BRANCH  26  27
HETATM   27  C16 UNL     1       6.340  46.802  58.343  1.00  0.00     0.008 C 
BRANCH  27  28
HETATM   28  C17 UNL     1       7.375  47.456  57.526  1.00  0.00     0.027 C 
BRANCH  28  29
HETATM   29  C18 UNL     1       7.136  48.860  57.128  1.00  0.00     0.229 C 
BRANCH  29  30
HETATM   30  N3  UNL     1       7.286  49.775  58.210  1.00  0.00    -0.079 N 
ATOM     31  H33 UNL     1       7.283  49.286  59.105  1.00  0.00     0.274 HD
ATOM     32  H32 UNL     1       8.229  50.161  58.234  1.00  0.00     0.274 HD
ATOM     33  H31 UNL     1       6.588  50.519  58.200  1.00  0.00     0.274 HD
ENDBRANCH  29  30
ENDBRANCH  28  29
ENDBRANCH  27  28
ENDBRANCH  26  27
ENDBRANCH  25  26
BRANCH  25  34
HETATM   34  N4  UNL     1       7.611  43.862  57.014  1.00  0.00    -0.332 N 
HETATM   35  C19 UNL     1       8.791  44.012  57.767  1.00  0.00     0.067 C 
HETATM   36  C20 UNL     1      10.037  43.934  56.908  1.00  0.00     0.045 C 
HETATM   37  C21 UNL     1      10.134  42.585  56.235  1.00  0.00     0.009 C 
HETATM   38  C22 UNL     1       8.770  41.988  56.147  1.00  0.00     0.054 C 
HETATM   39  C23 UNL     1       7.688  43.053  55.868  1.00  0.00     0.224 C 
BRANCH  39  40
HETATM   40  O4  UNL     1       8.138  43.675  54.701  1.00  0.00    -0.376 OA
ATOM     41  H4  UNL     1       9.081  43.731  54.591  1.00  0.00     0.212 HD
ENDBRANCH  39  40
ENDBRANCH  25  34
ENDBRANCH   3  25
TORSDOF 17
ENDMDL
