MODEL 1
REMARK VINA RESULT: -4.735557718      0.000      0.000
REMARK  4 active torsions:
REMARK  status: ('A' for Active; 'I' for Inactive)
REMARK    1  A    between atoms: C2_2  and  C4_4 
REMARK    2  A    between atoms: C4_4  and  N1_5 
REMARK    3  A    between atoms: N1_5  and  C5_7 
REMARK    4  A    between atoms: N4_12  and  N5_13 
ROOT
HETATM    1  C5  UNL     1      43.422  -7.528  -4.064  1.00  0.00     0.708 C 
HETATM    2  N2  UNL     1      42.854  -8.713  -3.919  1.00  0.00    -0.209 N 
ATOM      3  H2  UNL     1      42.767  -9.414  -4.656  1.00  0.00     0.179 HD
HETATM    4  C6  UNL     1      42.375  -8.872  -2.565  1.00  0.00     0.277 C 
HETATM    5  N3  UNL     1      43.043  -7.787  -1.862  1.00  0.00    -0.082 NA
HETATM    6  N4  UNL     1      43.346  -6.842  -2.836  1.00  0.00    -0.031 N 
ENDROOT
BRANCH   1   7
HETATM    7  N1  UNL     1      43.977  -7.109  -5.284  1.00  0.00    -0.223 N 
ATOM      8  H1  UNL     1      43.647  -6.238  -5.698  1.00  0.00     0.177 HD
BRANCH   7   9
HETATM    9  C4  UNL     1      44.997  -7.864  -5.977  1.00  0.00     0.142 C 
BRANCH   9  10
HETATM   10  C2  UNL     1      44.453  -8.406  -7.293  1.00  0.00    -0.004 C 
HETATM   11  C1  UNL     1      44.200  -9.872  -7.233  1.00  0.00     0.011 C 
HETATM   12  C3  UNL     1      45.618  -8.215  -8.286  1.00  0.00     0.011 C 
ENDBRANCH   9  10
ENDBRANCH   7   9
ENDBRANCH   1   7
BRANCH   6  13
HETATM   13  N5  UNL     1      43.545  -5.490  -2.615  1.00  0.00    -0.312 N 
ATOM     14  H52 UNL     1      43.247  -4.736  -3.235  1.00  0.00     0.179 HD
ATOM     15  H51 UNL     1      44.000  -5.053  -1.813  1.00  0.00     0.179 HD
ENDBRANCH   6  13
TORSDOF 4
ENDMDL
MODEL 2
REMARK VINA RESULT: -4.734374738      0.677      1.167
REMARK  4 active torsions:
REMARK  status: ('A' for Active; 'I' for Inactive)
REMARK    1  A    between atoms: C2_2  and  C4_4 
REMARK    2  A    between atoms: C4_4  and  N1_5 
REMARK    3  A    between atoms: N1_5  and  C5_7 
REMARK    4  A    between atoms: N4_12  and  N5_13 
ROOT
HETATM    1  C5  UNL     1      43.669  -7.537  -3.865  1.00  0.00     0.708 C 
HETATM    2  N2  UNL     1      42.849  -8.564  -4.010  1.00  0.00    -0.209 N 
ATOM      3  H2  UNL     1      42.731  -9.102  -4.869  1.00  0.00     0.179 HD
HETATM    4  C6  UNL     1      42.143  -8.813  -2.773  1.00  0.00     0.277 C 
HETATM    5  N3  UNL     1      42.908  -8.037  -1.809  1.00  0.00    -0.082 NA
HETATM    6  N4  UNL     1      43.551  -7.050  -2.549  1.00  0.00    -0.031 N 
ENDROOT
BRANCH   1   7
HETATM    7  N1  UNL     1      44.482  -7.077  -4.914  1.00  0.00    -0.223 N 
ATOM      8  H1  UNL     1      44.370  -6.115  -5.234  1.00  0.00     0.177 HD
BRANCH   7   9
HETATM    9  C4  UNL     1      45.472  -7.911  -5.558  1.00  0.00     0.142 C 
BRANCH   9  10
HETATM   10  C2  UNL     1      45.177  -8.029  -7.048  1.00  0.00    -0.004 C 
HETATM   11  C1  UNL     1      44.216  -6.991  -7.513  1.00  0.00     0.011 C 
HETATM   12  C3  UNL     1      44.442  -9.379  -7.178  1.00  0.00     0.011 C 
ENDBRANCH   9  10
ENDBRANCH   7   9
ENDBRANCH   1   7
BRANCH   6  13
HETATM   13  N5  UNL     1      43.994  -5.833  -2.060  1.00  0.00    -0.312 N 
ATOM     14  H52 UNL     1      43.725  -4.916  -2.416  1.00  0.00     0.179 HD
ATOM     15  H51 UNL     1      44.633  -5.675  -1.281  1.00  0.00     0.179 HD
ENDBRANCH   6  13
TORSDOF 4
ENDMDL
MODEL 3
REMARK VINA RESULT: -4.659370246      9.202      9.647
REMARK  4 active torsions:
REMARK  status: ('A' for Active; 'I' for Inactive)
REMARK    1  A    between atoms: C2_2  and  C4_4 
REMARK    2  A    between atoms: C4_4  and  N1_5 
REMARK    3  A    between atoms: N1_5  and  C5_7 
REMARK    4  A    between atoms: N4_12  and  N5_13 
ROOT
HETATM    1  C5  UNL     1      37.158  -3.797  -9.567  1.00  0.00     0.708 C 
HETATM    2  N2  UNL     1      38.260  -4.280  -9.019  1.00  0.00    -0.209 N 
ATOM      3  H2  UNL     1      39.049  -4.668  -9.537  1.00  0.00     0.179 HD
HETATM    4  C6  UNL     1      38.182  -4.179  -7.580  1.00  0.00     0.277 C 
HETATM    5  N3  UNL     1      37.067  -3.266  -7.384  1.00  0.00    -0.082 NA
HETATM    6  N4  UNL     1      36.299  -3.362  -8.540  1.00  0.00    -0.031 N 
ENDROOT
BRANCH   1   7
HETATM    7  N1  UNL     1      36.965  -3.771 -10.959  1.00  0.00    -0.223 N 
ATOM      8  H1  UNL     1      36.202  -3.210 -11.336  1.00  0.00     0.177 HD
BRANCH   7   9
HETATM    9  C4  UNL     1      37.806  -4.506 -11.877  1.00  0.00     0.142 C 
BRANCH   9  10
HETATM   10  C2  UNL     1      37.203  -4.489 -13.276  1.00  0.00    -0.004 C 
HETATM   11  C1  UNL     1      36.552  -5.782 -13.622  1.00  0.00     0.011 C 
HETATM   12  C3  UNL     1      38.427  -4.365 -14.208  1.00  0.00     0.011 C 
ENDBRANCH   9  10
ENDBRANCH   7   9
ENDBRANCH   1   7
BRANCH   6  13
HETATM   13  N5  UNL     1      34.950  -3.067  -8.640  1.00  0.00    -0.312 N 
ATOM     14  H52 UNL     1      34.331  -3.364  -9.395  1.00  0.00     0.179 HD
ATOM     15  H51 UNL     1      34.383  -2.529  -7.984  1.00  0.00     0.179 HD
ENDBRANCH   6  13
TORSDOF 4
ENDMDL
MODEL 4
REMARK VINA RESULT: -4.614425157      1.199      2.153
REMARK  4 active torsions:
REMARK  status: ('A' for Active; 'I' for Inactive)
REMARK    1  A    between atoms: C2_2  and  C4_4 
REMARK    2  A    between atoms: C4_4  and  N1_5 
REMARK    3  A    between atoms: N1_5  and  C5_7 
REMARK    4  A    between atoms: N4_12  and  N5_13 
ROOT
HETATM    1  C5  UNL     1      43.838  -7.785  -4.379  1.00  0.00     0.708 C 
HETATM    2  N2  UNL     1      44.675  -6.922  -3.830  1.00  0.00    -0.209 N 
ATOM      3  H2  UNL     1      45.459  -6.480  -4.310  1.00  0.00     0.179 HD
HETATM    4  C6  UNL     1      44.317  -6.696  -2.447  1.00  0.00     0.277 C 
HETATM    5  N3  UNL     1      42.976  -7.257  -2.371  1.00  0.00    -0.082 NA
HETATM    6  N4  UNL     1      42.898  -8.179  -3.408  1.00  0.00    -0.031 N 
ENDROOT
BRANCH   1   7
HETATM    7  N1  UNL     1      43.953  -8.186  -5.721  1.00  0.00    -0.223 N 
ATOM      8  H1  UNL     1      43.161  -8.655  -6.161  1.00  0.00     0.177 HD
BRANCH   7   9
HETATM    9  C4  UNL     1      45.148  -7.962  -6.502  1.00  0.00     0.142 C 
BRANCH   9  10
HETATM   10  C2  UNL     1      45.518  -9.220  -7.278  1.00  0.00    -0.004 C 
HETATM   11  C1  UNL     1      45.821  -8.930  -8.706  1.00  0.00     0.011 C 
HETATM   12  C3  UNL     1      44.221 -10.054  -7.278  1.00  0.00     0.011 C 
ENDBRANCH   9  10
ENDBRANCH   7   9
ENDBRANCH   1   7
BRANCH   6  13
HETATM   13  N5  UNL     1      42.040  -9.265  -3.461  1.00  0.00    -0.312 N 
ATOM     14  H52 UNL     1      41.948  -9.913  -4.243  1.00  0.00     0.179 HD
ATOM     15  H51 UNL     1      41.392  -9.578  -2.738  1.00  0.00     0.179 HD
ENDBRANCH   6  13
TORSDOF 4
ENDMDL
MODEL 5
REMARK VINA RESULT: -4.607044848      2.074      2.837
REMARK  4 active torsions:
REMARK  status: ('A' for Active; 'I' for Inactive)
REMARK    1  A    between atoms: C2_2  and  C4_4 
REMARK    2  A    between atoms: C4_4  and  N1_5 
REMARK    3  A    between atoms: N1_5  and  C5_7 
REMARK    4  A    between atoms: N4_12  and  N5_13 
ROOT
HETATM    1  C5  UNL     1      43.945  -7.695  -3.628  1.00  0.00     0.708 C 
HETATM    2  N2  UNL     1      43.099  -8.606  -4.077  1.00  0.00    -0.209 N 
ATOM      3  H2  UNL     1      43.136  -9.033  -5.003  1.00  0.00     0.179 HD
HETATM    4  C6  UNL     1      42.113  -8.909  -3.064  1.00  0.00     0.277 C 
HETATM    5  N3  UNL     1      42.700  -8.327  -1.866  1.00  0.00    -0.082 NA
HETATM    6  N4  UNL     1      43.571  -7.342  -2.317  1.00  0.00    -0.031 N 
ENDROOT
BRANCH   1   7
HETATM    7  N1  UNL     1      45.009  -7.214  -4.409  1.00  0.00    -0.223 N 
ATOM      8  H1  UNL     1      45.940  -7.601  -4.257  1.00  0.00     0.177 HD
BRANCH   7   9
HETATM    9  C4  UNL     1      44.837  -6.195  -5.419  1.00  0.00     0.142 C 
BRANCH   9  10
HETATM   10  C2  UNL     1      45.834  -5.062  -5.205  1.00  0.00    -0.004 C 
HETATM   11  C1  UNL     1      45.360  -4.083  -4.188  1.00  0.00     0.011 C 
HETATM   12  C3  UNL     1      45.840  -4.310  -6.551  1.00  0.00     0.011 C 
ENDBRANCH   9  10
ENDBRANCH   7   9
ENDBRANCH   1   7
BRANCH   6  13
HETATM   13  N5  UNL     1      43.988  -6.239  -1.592  1.00  0.00    -0.312 N 
ATOM     14  H52 UNL     1      44.925  -5.837  -1.608  1.00  0.00     0.179 HD
ATOM     15  H51 UNL     1      43.431  -5.669  -0.955  1.00  0.00     0.179 HD
ENDBRANCH   6  13
TORSDOF 4
ENDMDL
