MODEL 1
REMARK VINA RESULT: -7.924515811      0.000      0.000
REMARK  10 active torsions:
REMARK  status: ('A' for Active; 'I' for Inactive)
REMARK    1  A    between atoms: O1_2  and  C2_3 
REMARK    2  A    between atoms: C2_3  and  C3_4 
REMARK    3  A    between atoms: C3_4  and  C4_5 
REMARK    4  A    between atoms: C4_5  and  C5_6 
REMARK    5  A    between atoms: C5_6  and  C6_7 
REMARK    6  A    between atoms: C6_7  and  O2_8 
REMARK    7  A    between atoms: C6_7  and  C7_10 
REMARK    8  A    between atoms: C21_24  and  O3_25 
REMARK    9  A    between atoms: C27_32  and  O4_33 
REMARK   10  A    between atoms: C29_36  and  O5_37 
ROOT
HETATM    1  C7  UNL     1      48.699 -39.379  49.351  1.00  0.00     0.049 C 
HETATM    2  C8  UNL     1      50.181 -39.543  49.448  1.00  0.00     0.011 C 
HETATM    3  C9  UNL     1      50.439 -40.859  48.721  1.00  0.00     0.013 C 
HETATM    4  C10 UNL     1      49.085 -41.442  48.384  1.00  0.00    -0.008 C 
HETATM    5  C11 UNL     1      48.835 -41.096  46.914  1.00  0.00     0.019 C 
HETATM    6  C12 UNL     1      48.999 -42.929  48.501  1.00  0.00     0.003 C 
HETATM    7  C13 UNL     1      47.699 -43.386  47.930  1.00  0.00     0.006 C 
HETATM    8  C14 UNL     1      47.958 -44.631  47.158  1.00  0.00     0.005 C 
HETATM    9  C15 UNL     1      48.190 -45.862  47.930  1.00  0.00    -0.013 C 
HETATM   10  C16 UNL     1      48.885 -46.809  46.916  1.00  0.00     0.010 C 
HETATM   11  C17 UNL     1      48.988 -45.858  49.125  1.00  0.00     0.002 C 
HETATM   12  C18 UNL     1      48.946 -44.823  50.178  1.00  0.00    -0.002 C 
HETATM   13  C19 UNL     1      47.713 -45.121  51.045  1.00  0.00     0.013 C 
HETATM   14  C20 UNL     1      47.344 -46.462  50.651  1.00  0.00     0.023 C 
HETATM   15  C21 UNL     1      47.092 -47.544  51.609  1.00  0.00     0.123 C 
HETATM   16  C22 UNL     1      47.340 -48.784  50.728  1.00  0.00     0.033 C 
HETATM   17  C23 UNL     1      48.078 -48.252  49.480  1.00  0.00     0.012 C 
HETATM   18  C24 UNL     1      48.625 -47.020  49.995  1.00  0.00    -0.034 C 
HETATM   19  C25 UNL     1      49.652 -47.348  51.047  1.00  0.00     0.016 C 
HETATM   20  C26 UNL     1      49.253 -43.430  49.906  1.00  0.00     0.024 C 
HETATM   21  C27 UNL     1      48.714 -42.523  50.967  1.00  0.00     0.126 C 
HETATM   22  C28 UNL     1      47.779 -41.445  50.511  1.00  0.00     0.071 C 
HETATM   23  C29 UNL     1      48.084 -40.720  49.287  1.00  0.00     0.074 C 
ENDROOT
BRANCH   1  24
HETATM   24  C6  UNL     1      48.206 -38.428  50.396  1.00  0.00     0.125 C 
BRANCH  24  25
HETATM   25  C5  UNL     1      49.054 -37.232  50.586  1.00  0.00     0.032 C 
BRANCH  25  26
HETATM   26  C4  UNL     1      49.326 -36.966  52.028  1.00  0.00     0.004 C 
BRANCH  26  27
HETATM   27  C3  UNL     1      48.808 -35.690  52.595  1.00  0.00     0.026 C 
BRANCH  27  28
HETATM   28  C2  UNL     1      47.621 -35.203  51.733  1.00  0.00     0.167 C 
BRANCH  28  29
HETATM   29  O1  UNL     1      46.434 -35.763  52.092  1.00  0.00    -0.396 OA
HETATM   30  C1  UNL     1      45.324 -35.359  51.397  1.00  0.00     0.201 C 
ENDBRANCH  28  29
ENDBRANCH  27  28
ENDBRANCH  26  27
ENDBRANCH  25  26
ENDBRANCH  24  25
BRANCH  24  31
HETATM   31  O2  UNL     1      46.839 -38.221  50.351  1.00  0.00    -0.395 OA
ATOM     32  H2  UNL     1      46.315 -38.910  49.959  1.00  0.00     0.210 HD
ENDBRANCH  24  31
ENDBRANCH   1  24
BRANCH  23  33
HETATM   33  O5  UNL     1      46.907 -40.598  48.506  1.00  0.00    -0.388 OA
ATOM     34  H5  UNL     1      46.247 -41.148  48.912  1.00  0.00     0.210 HD
ENDBRANCH  23  33
BRANCH  21  35
HETATM   35  O4  UNL     1      49.729 -41.943  51.774  1.00  0.00    -0.395 OA
ATOM     36  H4  UNL     1      49.386 -41.474  52.526  1.00  0.00     0.210 HD
ENDBRANCH  21  35
BRANCH  15  37
HETATM   37  O3  UNL     1      45.728 -47.601  51.971  1.00  0.00    -0.395 OA
ATOM     38  H3  UNL     1      45.620 -47.572  52.913  1.00  0.00     0.210 HD
ENDBRANCH  15  37
TORSDOF 10
ENDMDL
MODEL 2
REMARK VINA RESULT: -7.735365173      0.814      1.344
REMARK  10 active torsions:
REMARK  status: ('A' for Active; 'I' for Inactive)
REMARK    1  A    between atoms: O1_2  and  C2_3 
REMARK    2  A    between atoms: C2_3  and  C3_4 
REMARK    3  A    between atoms: C3_4  and  C4_5 
REMARK    4  A    between atoms: C4_5  and  C5_6 
REMARK    5  A    between atoms: C5_6  and  C6_7 
REMARK    6  A    between atoms: C6_7  and  O2_8 
REMARK    7  A    between atoms: C6_7  and  C7_10 
REMARK    8  A    between atoms: C21_24  and  O3_25 
REMARK    9  A    between atoms: C27_32  and  O4_33 
REMARK   10  A    between atoms: C29_36  and  O5_37 
ROOT
HETATM    1  C7  UNL     1      48.718 -39.293  49.190  1.00  0.00     0.049 C 
HETATM    2  C8  UNL     1      50.180 -39.408  49.475  1.00  0.00     0.011 C 
HETATM    3  C9  UNL     1      50.564 -40.731  48.820  1.00  0.00     0.013 C 
HETATM    4  C10 UNL     1      49.280 -41.363  48.332  1.00  0.00    -0.008 C 
HETATM    5  C11 UNL     1      49.206 -41.057  46.834  1.00  0.00     0.019 C 
HETATM    6  C12 UNL     1      49.222 -42.849  48.475  1.00  0.00     0.003 C 
HETATM    7  C13 UNL     1      48.016 -43.359  47.759  1.00  0.00     0.006 C 
HETATM    8  C14 UNL     1      48.405 -44.612  47.057  1.00  0.00     0.005 C 
HETATM    9  C15 UNL     1      48.573 -45.817  47.883  1.00  0.00    -0.013 C 
HETATM   10  C16 UNL     1      49.416 -46.764  46.988  1.00  0.00     0.010 C 
HETATM   11  C17 UNL     1      49.215 -45.763  49.167  1.00  0.00     0.002 C 
HETATM   12  C18 UNL     1      49.013 -44.707  50.181  1.00  0.00    -0.002 C 
HETATM   13  C19 UNL     1      47.691 -45.024  50.894  1.00  0.00     0.013 C 
HETATM   14  C20 UNL     1      47.412 -46.384  50.493  1.00  0.00     0.023 C 
HETATM   15  C21 UNL     1      47.073 -47.453  51.439  1.00  0.00     0.123 C 
HETATM   16  C22 UNL     1      47.463 -48.703  50.627  1.00  0.00     0.033 C 
HETATM   17  C23 UNL     1      48.337 -48.176  49.467  1.00  0.00     0.012 C 
HETATM   18  C24 UNL     1      48.780 -46.917  50.015  1.00  0.00    -0.034 C 
HETATM   19  C25 UNL     1      49.676 -47.189  51.194  1.00  0.00     0.016 C 
HETATM   20  C26 UNL     1      49.312 -43.311  49.913  1.00  0.00     0.024 C 
HETATM   21  C27 UNL     1      48.620 -42.399  50.876  1.00  0.00     0.126 C 
HETATM   22  C28 UNL     1      47.719 -41.361  50.280  1.00  0.00     0.071 C 
HETATM   23  C29 UNL     1      48.154 -40.653  49.086  1.00  0.00     0.074 C 
ENDROOT
BRANCH   1  24
HETATM   24  C6  UNL     1      48.071 -38.335  50.142  1.00  0.00     0.125 C 
BRANCH  24  25
HETATM   25  C5  UNL     1      48.456 -36.921  49.944  1.00  0.00     0.032 C 
BRANCH  25  26
HETATM   26  C4  UNL     1      47.480 -35.986  50.576  1.00  0.00     0.004 C 
BRANCH  26  27
HETATM   27  C3  UNL     1      47.612 -35.751  52.040  1.00  0.00     0.026 C 
BRANCH  27  28
HETATM   28  C2  UNL     1      49.109 -35.598  52.391  1.00  0.00     0.167 C 
BRANCH  28  29
HETATM   29  O1  UNL     1      49.610 -36.663  53.077  1.00  0.00    -0.396 OA
HETATM   30  C1  UNL     1      50.864 -37.088  52.728  1.00  0.00     0.201 C 
ENDBRANCH  28  29
ENDBRANCH  27  28
ENDBRANCH  26  27
ENDBRANCH  25  26
ENDBRANCH  24  25
BRANCH  24  31
HETATM   31  O2  UNL     1      46.729 -38.591  50.353  1.00  0.00    -0.395 OA
ATOM     32  H2  UNL     1      46.300 -39.165  49.730  1.00  0.00     0.210 HD
ENDBRANCH  24  31
ENDBRANCH   1  24
BRANCH  23  33
HETATM   33  O5  UNL     1      47.080 -40.584  48.161  1.00  0.00    -0.388 OA
ATOM     34  H5  UNL     1      46.655 -39.745  48.293  1.00  0.00     0.210 HD
ENDBRANCH  23  33
BRANCH  21  35
HETATM   35  O4  UNL     1      49.509 -41.770  51.788  1.00  0.00    -0.395 OA
ATOM     36  H4  UNL     1      49.093 -41.521  52.604  1.00  0.00     0.210 HD
ENDBRANCH  21  35
BRANCH  15  37
HETATM   37  O3  UNL     1      45.677 -47.544  51.630  1.00  0.00    -0.395 OA
ATOM     38  H3  UNL     1      45.466 -47.781  52.525  1.00  0.00     0.210 HD
ENDBRANCH  15  37
TORSDOF 10
ENDMDL
MODEL 3
REMARK VINA RESULT: -7.410712915      3.736      6.843
REMARK  10 active torsions:
REMARK  status: ('A' for Active; 'I' for Inactive)
REMARK    1  A    between atoms: O1_2  and  C2_3 
REMARK    2  A    between atoms: C2_3  and  C3_4 
REMARK    3  A    between atoms: C3_4  and  C4_5 
REMARK    4  A    between atoms: C4_5  and  C5_6 
REMARK    5  A    between atoms: C5_6  and  C6_7 
REMARK    6  A    between atoms: C6_7  and  O2_8 
REMARK    7  A    between atoms: C6_7  and  C7_10 
REMARK    8  A    between atoms: C21_24  and  O3_25 
REMARK    9  A    between atoms: C27_32  and  O4_33 
REMARK   10  A    between atoms: C29_36  and  O5_37 
ROOT
HETATM    1  C7  UNL     1      49.641 -39.152  50.488  1.00  0.00     0.049 C 
HETATM    2  C8  UNL     1      48.154 -39.009  50.481  1.00  0.00     0.011 C 
HETATM    3  C9  UNL     1      47.714 -39.937  49.354  1.00  0.00     0.013 C 
HETATM    4  C10 UNL     1      48.976 -40.438  48.687  1.00  0.00    -0.008 C 
HETATM    5  C11 UNL     1      49.222 -41.837  49.256  1.00  0.00     0.019 C 
HETATM    6  C12 UNL     1      48.883 -40.583  47.203  1.00  0.00     0.003 C 
HETATM    7  C13 UNL     1      50.100 -41.290  46.707  1.00  0.00     0.006 C 
HETATM    8  C14 UNL     1      49.667 -42.250  45.657  1.00  0.00     0.005 C 
HETATM    9  C15 UNL     1      49.309 -41.690  44.344  1.00  0.00    -0.013 C 
HETATM   10  C16 UNL     1      48.473 -42.815  43.678  1.00  0.00     0.010 C 
HETATM   11  C17 UNL     1      48.554 -40.474  44.228  1.00  0.00     0.002 C 
HETATM   12  C18 UNL     1      48.754 -39.261  45.049  1.00  0.00    -0.002 C 
HETATM   13  C19 UNL     1      49.967 -38.523  44.462  1.00  0.00     0.013 C 
HETATM   14  C20 UNL     1      50.156 -39.160  43.179  1.00  0.00     0.023 C 
HETATM   15  C21 UNL     1      50.302 -38.416  41.922  1.00  0.00     0.123 C 
HETATM   16  C22 UNL     1      49.878 -39.484  40.895  1.00  0.00     0.033 C 
HETATM   17  C23 UNL     1      49.173 -40.583  41.721  1.00  0.00     0.012 C 
HETATM   18  C24 UNL     1      48.798 -39.836  42.896  1.00  0.00    -0.034 C 
HETATM   19  C25 UNL     1      47.770 -38.805  42.508  1.00  0.00     0.016 C 
HETATM   20  C26 UNL     1      48.612 -39.274  46.494  1.00  0.00     0.024 C 
HETATM   21  C27 UNL     1      49.289 -38.102  47.130  1.00  0.00     0.126 C 
HETATM   22  C28 UNL     1      50.336 -38.413  48.157  1.00  0.00     0.071 C 
HETATM   23  C29 UNL     1      50.085 -39.476  49.117  1.00  0.00     0.074 C 
ENDROOT
BRANCH   1  24
HETATM   24  C6  UNL     1      50.279 -37.985  51.175  1.00  0.00     0.125 C 
BRANCH  24  25
HETATM   25  C5  UNL     1      49.460 -36.754  51.179  1.00  0.00     0.032 C 
BRANCH  25  26
HETATM   26  C4  UNL     1      49.221 -36.249  52.562  1.00  0.00     0.004 C 
BRANCH  26  27
HETATM   27  C3  UNL     1      47.972 -35.474  52.798  1.00  0.00     0.026 C 
BRANCH  27  28
HETATM   28  C2  UNL     1      47.221 -35.312  51.456  1.00  0.00     0.167 C 
BRANCH  28  29
HETATM   29  O1  UNL     1      46.041 -35.989  51.418  1.00  0.00    -0.396 OA
HETATM   30  C1  UNL     1      44.896 -35.236  51.411  1.00  0.00     0.201 C 
ENDBRANCH  28  29
ENDBRANCH  27  28
ENDBRANCH  26  27
ENDBRANCH  25  26
ENDBRANCH  24  25
BRANCH  24  31
HETATM   31  O2  UNL     1      50.904 -38.320  52.362  1.00  0.00    -0.395 OA
ATOM     32  H2  UNL     1      50.341 -38.504  53.105  1.00  0.00     0.210 HD
ENDBRANCH  24  31
ENDBRANCH   1  24
BRANCH  23  33
HETATM   33  O5  UNL     1      51.244 -40.284  49.239  1.00  0.00    -0.388 OA
ATOM     34  H5  UNL     1      50.963 -41.187  49.147  1.00  0.00     0.210 HD
ENDBRANCH  23  33
BRANCH  21  35
HETATM   35  O4  UNL     1      48.378 -37.156  47.672  1.00  0.00    -0.395 OA
ATOM     36  H4  UNL     1      47.916 -37.478  48.438  1.00  0.00     0.210 HD
ENDBRANCH  21  35
BRANCH  15  37
HETATM   37  O3  UNL     1      51.659 -38.140  41.645  1.00  0.00    -0.395 OA
ATOM     38  H3  UNL     1      51.835 -37.208  41.677  1.00  0.00     0.210 HD
ENDBRANCH  15  37
TORSDOF 10
ENDMDL
MODEL 4
REMARK VINA RESULT: -7.366069805      1.960      7.964
REMARK  10 active torsions:
REMARK  status: ('A' for Active; 'I' for Inactive)
REMARK    1  A    between atoms: O1_2  and  C2_3 
REMARK    2  A    between atoms: C2_3  and  C3_4 
REMARK    3  A    between atoms: C3_4  and  C4_5 
REMARK    4  A    between atoms: C4_5  and  C5_6 
REMARK    5  A    between atoms: C5_6  and  C6_7 
REMARK    6  A    between atoms: C6_7  and  O2_8 
REMARK    7  A    between atoms: C6_7  and  C7_10 
REMARK    8  A    between atoms: C21_24  and  O3_25 
REMARK    9  A    between atoms: C27_32  and  O4_33 
REMARK   10  A    between atoms: C29_36  and  O5_37 
ROOT
HETATM    1  C7  UNL     1      48.960 -44.332  47.675  1.00  0.00     0.049 C 
HETATM    2  C8  UNL     1      47.517 -44.130  47.350  1.00  0.00     0.011 C 
HETATM    3  C9  UNL     1      47.446 -42.658  46.956  1.00  0.00     0.013 C 
HETATM    4  C10 UNL     1      48.814 -42.072  47.221  1.00  0.00    -0.008 C 
HETATM    5  C11 UNL     1      49.520 -42.028  45.864  1.00  0.00     0.019 C 
HETATM    6  C12 UNL     1      48.803 -40.674  47.750  1.00  0.00     0.003 C 
HETATM    7  C13 UNL     1      50.198 -40.145  47.752  1.00  0.00     0.006 C 
HETATM    8  C14 UNL     1      50.143 -38.729  47.298  1.00  0.00     0.005 C 
HETATM    9  C15 UNL     1      49.637 -37.737  48.259  1.00  0.00    -0.013 C 
HETATM   10  C16 UNL     1      49.254 -36.524  47.370  1.00  0.00     0.010 C 
HETATM   11  C17 UNL     1      48.509 -38.018  49.102  1.00  0.00     0.002 C 
HETATM   12  C18 UNL     1      48.261 -39.296  49.802  1.00  0.00    -0.002 C 
HETATM   13  C19 UNL     1      49.153 -39.297  51.053  1.00  0.00     0.013 C 
HETATM   14  C20 UNL     1      49.574 -37.919  51.164  1.00  0.00     0.023 C 
HETATM   15  C21 UNL     1      49.475 -37.141  52.405  1.00  0.00     0.123 C 
HETATM   16  C22 UNL     1      49.465 -35.702  51.853  1.00  0.00     0.033 C 
HETATM   17  C23 UNL     1      49.171 -35.850  50.344  1.00  0.00     0.012 C 
HETATM   18  C24 UNL     1      48.539 -37.146  50.319  1.00  0.00    -0.034 C 
HETATM   19  C25 UNL     1      47.225 -37.060  51.049  1.00  0.00     0.016 C 
HETATM   20  C26 UNL     1      48.108 -40.551  49.088  1.00  0.00     0.024 C 
HETATM   21  C27 UNL     1      48.325 -41.730  49.983  1.00  0.00     0.126 C 
HETATM   22  C28 UNL     1      49.396 -42.693  49.568  1.00  0.00     0.071 C 
HETATM   23  C29 UNL     1      49.513 -43.053  48.164  1.00  0.00     0.074 C 
ENDROOT
BRANCH   1  24
HETATM   24  C6  UNL     1      49.142 -45.548  48.529  1.00  0.00     0.125 C 
BRANCH  24  25
HETATM   25  C5  UNL     1      48.277 -46.690  48.161  1.00  0.00     0.032 C 
BRANCH  25  26
HETATM   26  C4  UNL     1      47.579 -47.264  49.348  1.00  0.00     0.004 C 
BRANCH  26  27
HETATM   27  C3  UNL     1      46.303 -46.620  49.765  1.00  0.00     0.026 C 
BRANCH  27  28
HETATM   28  C2  UNL     1      46.408 -46.218  51.254  1.00  0.00     0.167 C 
BRANCH  28  29
HETATM   29  O1  UNL     1      47.022 -45.018  51.443  1.00  0.00    -0.396 OA
HETATM   30  C1  UNL     1      48.210 -45.031  52.124  1.00  0.00     0.201 C 
ENDBRANCH  28  29
ENDBRANCH  27  28
ENDBRANCH  26  27
ENDBRANCH  25  26
ENDBRANCH  24  25
BRANCH  24  31
HETATM   31  O2  UNL     1      50.466 -45.834  48.805  1.00  0.00    -0.395 OA
ATOM     32  H2  UNL     1      50.953 -45.177  49.289  1.00  0.00     0.210 HD
ENDBRANCH  24  31
ENDBRANCH   1  24
BRANCH  23  33
HETATM   33  O5  UNL     1      50.878 -43.021  47.780  1.00  0.00    -0.388 OA
ATOM     34  H5  UNL     1      51.187 -42.134  47.931  1.00  0.00     0.210 HD
ENDBRANCH  23  33
BRANCH  21  35
HETATM   35  O4  UNL     1      47.133 -42.455  50.252  1.00  0.00    -0.395 OA
ATOM     36  H4  UNL     1      46.887 -43.045  49.549  1.00  0.00     0.210 HD
ENDBRANCH  21  35
BRANCH  15  37
HETATM   37  O3  UNL     1      50.656 -37.246  53.171  1.00  0.00    -0.395 OA
ATOM     38  H3  UNL     1      51.014 -38.125  53.134  1.00  0.00     0.210 HD
ENDBRANCH  15  37
TORSDOF 10
ENDMDL
MODEL 5
REMARK VINA RESULT: -7.132661813      3.015      4.704
REMARK  10 active torsions:
REMARK  status: ('A' for Active; 'I' for Inactive)
REMARK    1  A    between atoms: O1_2  and  C2_3 
REMARK    2  A    between atoms: C2_3  and  C3_4 
REMARK    3  A    between atoms: C3_4  and  C4_5 
REMARK    4  A    between atoms: C4_5  and  C5_6 
REMARK    5  A    between atoms: C5_6  and  C6_7 
REMARK    6  A    between atoms: C6_7  and  O2_8 
REMARK    7  A    between atoms: C6_7  and  C7_10 
REMARK    8  A    between atoms: C21_24  and  O3_25 
REMARK    9  A    between atoms: C27_32  and  O4_33 
REMARK   10  A    between atoms: C29_36  and  O5_37 
ROOT
HETATM    1  C7  UNL     1      47.341 -42.024  48.853  1.00  0.00     0.049 C 
HETATM    2  C8  UNL     1      46.991 -41.843  47.412  1.00  0.00     0.011 C 
HETATM    3  C9  UNL     1      47.240 -43.222  46.811  1.00  0.00     0.013 C 
HETATM    4  C10 UNL     1      47.855 -44.067  47.904  1.00  0.00    -0.008 C 
HETATM    5  C11 UNL     1      46.715 -44.917  48.469  1.00  0.00     0.019 C 
HETATM    6  C12 UNL     1      48.913 -45.015  47.440  1.00  0.00     0.003 C 
HETATM    7  C13 UNL     1      49.269 -45.932  48.561  1.00  0.00     0.006 C 
HETATM    8  C14 UNL     1      49.442 -47.295  47.992  1.00  0.00     0.005 C 
HETATM    9  C15 UNL     1      50.674 -47.552  47.230  1.00  0.00    -0.013 C 
HETATM   10  C16 UNL     1      50.337 -48.818  46.398  1.00  0.00     0.010 C 
HETATM   11  C17 UNL     1      51.211 -46.577  46.322  1.00  0.00     0.002 C 
HETATM   12  C18 UNL     1      51.289 -45.123  46.576  1.00  0.00    -0.002 C 
HETATM   13  C19 UNL     1      52.507 -44.896  47.485  1.00  0.00     0.013 C 
HETATM   14  C20 UNL     1      53.220 -46.150  47.407  1.00  0.00     0.023 C 
HETATM   15  C21 UNL     1      54.656 -46.247  47.118  1.00  0.00     0.123 C 
HETATM   16  C22 UNL     1      54.754 -47.686  46.577  1.00  0.00     0.033 C 
HETATM   17  C23 UNL     1      53.299 -48.100  46.263  1.00  0.00     0.012 C 
HETATM   18  C24 UNL     1      52.676 -46.807  46.120  1.00  0.00    -0.034 C 
HETATM   19  C25 UNL     1      53.246 -46.126  44.904  1.00  0.00     0.016 C 
HETATM   20  C26 UNL     1      50.107 -44.317  46.826  1.00  0.00     0.024 C 
HETATM   21  C27 UNL     1      50.447 -43.022  47.492  1.00  0.00     0.126 C 
HETATM   22  C28 UNL     1      49.776 -42.751  48.804  1.00  0.00     0.071 C 
HETATM   23  C29 UNL     1      48.367 -43.080  48.955  1.00  0.00     0.074 C 
ENDROOT
BRANCH   1  24
HETATM   24  C6  UNL     1      47.626 -40.703  49.495  1.00  0.00     0.125 C 
BRANCH  24  25
HETATM   25  C5  UNL     1      48.638 -39.886  48.794  1.00  0.00     0.032 C 
BRANCH  25  26
HETATM   26  C4  UNL     1      49.576 -39.224  49.746  1.00  0.00     0.004 C 
BRANCH  26  27
HETATM   27  C3  UNL     1      49.392 -37.765  49.981  1.00  0.00     0.026 C 
BRANCH  27  28
HETATM   28  C2  UNL     1      48.547 -37.566  51.260  1.00  0.00     0.167 C 
BRANCH  28  29
HETATM   29  O1  UNL     1      47.222 -37.383  51.003  1.00  0.00    -0.396 OA
HETATM   30  C1  UNL     1      46.755 -36.096  51.057  1.00  0.00     0.201 C 
ENDBRANCH  28  29
ENDBRANCH  27  28
ENDBRANCH  26  27
ENDBRANCH  25  26
ENDBRANCH  24  25
BRANCH  24  31
HETATM   31  O2  UNL     1      46.490 -40.046  49.931  1.00  0.00    -0.395 OA
ATOM     32  H2  UNL     1      46.403 -39.132  49.686  1.00  0.00     0.210 HD
ENDBRANCH  24  31
ENDBRANCH   1  24
BRANCH  23  33
HETATM   33  O5  UNL     1      48.166 -43.732  50.199  1.00  0.00    -0.388 OA
ATOM     34  H5  UNL     1      48.313 -44.660  50.052  1.00  0.00     0.210 HD
ENDBRANCH  23  33
BRANCH  21  35
HETATM   35  O4  UNL     1      50.275 -41.895  46.644  1.00  0.00    -0.395 OA
ATOM     36  H4  UNL     1      50.922 -41.215  46.790  1.00  0.00     0.210 HD
ENDBRANCH  21  35
BRANCH  15  37
HETATM   37  O3  UNL     1      55.419 -46.235  48.306  1.00  0.00    -0.395 OA
ATOM     38  H3  UNL     1      55.480 -47.103  48.685  1.00  0.00     0.210 HD
ENDBRANCH  15  37
TORSDOF 10
ENDMDL
