MODEL 1
REMARK VINA RESULT: -6.811764246      0.000      0.000
REMARK  8 active torsions:
REMARK  status: ('A' for Active; 'I' for Inactive)
REMARK    1  A    between atoms: C1_4  and  C2_5 
REMARK    2  A    between atoms: C2_5  and  N2_6 
REMARK    3  A    between atoms: C3_7  and  N3_8 
REMARK    4  A    between atoms: N3_8  and  C4_10 
REMARK    5  A    between atoms: C4_10  and  C5_11 
REMARK    6  A    between atoms: C5_11  and  N4_12 
REMARK       I    between atoms: N4_12  and  C6_14 
REMARK    7  A    between atoms: C9_26  and  N9_27 
REMARK    8  A    between atoms: C10_32  and  N11_33 
ROOT
HETATM    1  N2  UNL     1      27.813  18.746  10.410  1.00  0.00    -0.309 N 
HETATM    2  C3  UNL     1      26.629  18.063  10.264  1.00  0.00     0.153 A 
HETATM    3  C7  UNL     1      26.674  16.834   9.650  1.00  0.00     0.189 A 
HETATM    4  N5  UNL     1      25.662  15.953   9.378  1.00  0.00    -0.265 N 
ATOM      5  H5  UNL     1      24.671  16.064   9.591  1.00  0.00     0.190 HD
HETATM    6  N6  UNL     1      26.241  14.933   8.782  1.00  0.00    -0.226 N 
ATOM      7  H6  UNL     1      25.763  14.097   8.446  1.00  0.00     0.210 HD
HETATM    8  N7  UNL     1      27.534  15.160   8.686  1.00  0.00    -0.219 N 
ATOM      9  H7  UNL     1      28.206  14.522   8.263  1.00  0.00     0.210 HD
HETATM   10  N8  UNL     1      27.836  16.329   9.214  1.00  0.00    -0.212 N 
HETATM   11  C8  UNL     1      28.996  17.016   9.365  1.00  0.00     0.148 A 
HETATM   12  C9  UNL     1      30.200  16.510   8.915  1.00  0.00     0.147 A 
HETATM   13  N10 UNL     1      31.328  17.279   9.105  1.00  0.00    -0.175 N 
ATOM     14  H10 UNL     1      32.231  16.930   8.782  1.00  0.00     0.186 HD
HETATM   15  C10 UNL     1      31.262  18.465   9.700  1.00  0.00     0.679 A 
HETATM   16  N12 UNL     1      30.110  18.995  10.155  1.00  0.00    -0.174 N 
ATOM     17  H12 UNL     1      30.090  19.908  10.608  1.00  0.00     0.186 HD
HETATM   18  C11 UNL     1      28.992  18.276   9.987  1.00  0.00     0.158 A 
ENDROOT
BRANCH   2  19
HETATM   19  N3  UNL     1      25.580  18.582  10.688  1.00  0.00    -0.371 N 
ATOM     20  H3  UNL     1      25.618  18.718  11.698  1.00  0.00     0.161 HD
BRANCH  19  21
HETATM   21  C4  UNL     1      24.370  19.028  10.164  1.00  0.00     0.141 C 
BRANCH  21  22
HETATM   22  C5  UNL     1      24.576  19.757   8.828  1.00  0.00     0.145 C 
BRANCH  22  23
HETATM   23  N4  UNL     1      23.613  20.805   8.632  1.00  0.00    -0.334 N 
HETATM   24  C6  UNL     1      23.218  21.316   7.367  1.00  0.00     0.283 C 
HETATM   25  O1  UNL     1      23.690  20.888   6.286  1.00  0.00    -0.630 OA
HETATM   26  O2  UNL     1      22.266  22.345   7.252  1.00  0.00    -0.630 OA
ATOM     27  H4  UNL     1      23.181  21.211   9.462  1.00  0.00     0.165 HD
ENDBRANCH  22  23
ENDBRANCH  21  22
ENDBRANCH  19  21
ENDBRANCH   2  19
BRANCH   1  28
HETATM   28  C2  UNL     1      27.755  20.032  11.054  1.00  0.00     0.176 C 
BRANCH  28  29
HETATM   29  C1  UNL     1      27.730  19.824  12.530  1.00  0.00     0.073 C 
HETATM   30  N1  UNL     1      26.913  20.488  13.293  1.00  0.00    -0.410 N 
ATOM     31  H12 UNL     1      26.282  21.162  12.857  1.00  0.00     0.155 HD
ATOM     32  H11 UNL     1      26.896  20.345  14.303  1.00  0.00     0.155 HD
ENDBRANCH  28  29
ENDBRANCH   1  28
BRANCH  12  33
HETATM   33  N9  UNL     1      30.283  15.405   8.358  1.00  0.00    -0.383 N 
ATOM     34  H92 UNL     1      29.933  15.282   7.407  1.00  0.00     0.157 HD
ATOM     35  H91 UNL     1      30.696  14.595   8.819  1.00  0.00     0.157 HD
ENDBRANCH  12  33
BRANCH  15  36
HETATM   36  N11 UNL     1      32.337  19.171   9.868  1.00  0.00    -0.234 N 
ATOM     37 2H11 UNL     1      33.227  18.683   9.767  1.00  0.00     0.174 HD
ATOM     38 1H11 UNL     1      32.268  20.164  10.089  1.00  0.00     0.174 HD
ENDBRANCH  15  36
TORSDOF 8
ENDMDL
MODEL 2
REMARK VINA RESULT: -6.747923741      3.400      4.911
REMARK  8 active torsions:
REMARK  status: ('A' for Active; 'I' for Inactive)
REMARK    1  A    between atoms: C1_4  and  C2_5 
REMARK    2  A    between atoms: C2_5  and  N2_6 
REMARK    3  A    between atoms: C3_7  and  N3_8 
REMARK    4  A    between atoms: N3_8  and  C4_10 
REMARK    5  A    between atoms: C4_10  and  C5_11 
REMARK    6  A    between atoms: C5_11  and  N4_12 
REMARK       I    between atoms: N4_12  and  C6_14 
REMARK    7  A    between atoms: C9_26  and  N9_27 
REMARK    8  A    between atoms: C10_32  and  N11_33 
ROOT
HETATM    1  N2  UNL     1      30.947  19.148   8.122  1.00  0.00    -0.309 N 
HETATM    2  C3  UNL     1      30.218  18.590   9.144  1.00  0.00     0.153 A 
HETATM    3  C7  UNL     1      30.334  17.234   9.343  1.00  0.00     0.189 A 
HETATM    4  N5  UNL     1      29.732  16.430  10.272  1.00  0.00    -0.265 N 
ATOM      5  H5  UNL     1      29.072  16.710  10.998  1.00  0.00     0.190 HD
HETATM    6  N6  UNL     1      30.184  15.219  10.029  1.00  0.00    -0.226 N 
ATOM      7  H6  UNL     1      29.930  14.379  10.548  1.00  0.00     0.210 HD
HETATM    8  N7  UNL     1      31.018  15.261   9.011  1.00  0.00    -0.219 N 
ATOM      9  H7  UNL     1      31.505  14.453   8.625  1.00  0.00     0.210 HD
HETATM   10  N8  UNL     1      31.134  16.494   8.562  1.00  0.00    -0.212 N 
HETATM   11  C8  UNL     1      31.847  17.061   7.557  1.00  0.00     0.148 A 
HETATM   12  C9  UNL     1      32.669  16.310   6.741  1.00  0.00     0.147 A 
HETATM   13  N10 UNL     1      33.352  16.967   5.740  1.00  0.00    -0.175 N 
ATOM     14  H10 UNL     1      33.966  16.437   5.122  1.00  0.00     0.186 HD
HETATM   15  C10 UNL     1      33.224  18.279   5.565  1.00  0.00     0.679 A 
HETATM   16  N12 UNL     1      32.434  19.048   6.337  1.00  0.00    -0.174 N 
ATOM     17  H12 UNL     1      32.356  20.053   6.179  1.00  0.00     0.186 HD
HETATM   18  C11 UNL     1      31.754  18.444   7.321  1.00  0.00     0.158 A 
ENDROOT
BRANCH   2  19
HETATM   19  N3  UNL     1      29.492  19.326   9.836  1.00  0.00    -0.371 N 
ATOM     20  H3  UNL     1      29.248  20.180   9.335  1.00  0.00     0.161 HD
BRANCH  19  21
HETATM   21  C4  UNL     1      28.921  19.306  11.105  1.00  0.00     0.141 C 
BRANCH  21  22
HETATM   22  C5  UNL     1      27.501  19.891  11.087  1.00  0.00     0.145 C 
BRANCH  22  23
HETATM   23  N4  UNL     1      26.721  19.446  12.208  1.00  0.00    -0.334 N 
HETATM   24  C6  UNL     1      26.291  20.277  13.278  1.00  0.00     0.283 C 
HETATM   25  O1  UNL     1      26.564  21.500  13.336  1.00  0.00    -0.630 OA
HETATM   26  O2  UNL     1      25.528  19.770  14.344  1.00  0.00    -0.630 OA
ATOM     27  H4  UNL     1      26.457  18.461  12.240  1.00  0.00     0.165 HD
ENDBRANCH  22  23
ENDBRANCH  21  22
ENDBRANCH  19  21
ENDBRANCH   2  19
BRANCH   1  28
HETATM   28  C2  UNL     1      30.818  20.568   7.922  1.00  0.00     0.176 C 
BRANCH  28  29
HETATM   29  C1  UNL     1      32.079  21.227   8.370  1.00  0.00     0.073 C 
HETATM   30  N1  UNL     1      32.466  22.361   7.862  1.00  0.00    -0.410 N 
ATOM     31  H12 UNL     1      31.885  22.794   7.144  1.00  0.00     0.155 HD
ATOM     32  H11 UNL     1      33.328  22.811   8.168  1.00  0.00     0.155 HD
ENDBRANCH  28  29
ENDBRANCH   1  28
BRANCH  12  33
HETATM   33  N9  UNL     1      32.803  15.085   6.888  1.00  0.00    -0.383 N 
ATOM     34  H92 UNL     1      33.704  14.642   6.709  1.00  0.00     0.157 HD
ATOM     35  H91 UNL     1      32.032  14.489   7.187  1.00  0.00     0.157 HD
ENDBRANCH  12  33
BRANCH  15  36
HETATM   36  N11 UNL     1      33.876  18.876   4.616  1.00  0.00    -0.234 N 
ATOM     37 2H11 UNL     1      34.771  18.469   4.347  1.00  0.00     0.174 HD
ATOM     38 1H11 UNL     1      33.489  19.711   4.176  1.00  0.00     0.174 HD
ENDBRANCH  15  36
TORSDOF 8
ENDMDL
MODEL 3
REMARK VINA RESULT: -6.581769589      4.205      7.140
REMARK  8 active torsions:
REMARK  status: ('A' for Active; 'I' for Inactive)
REMARK    1  A    between atoms: C1_4  and  C2_5 
REMARK    2  A    between atoms: C2_5  and  N2_6 
REMARK    3  A    between atoms: C3_7  and  N3_8 
REMARK    4  A    between atoms: N3_8  and  C4_10 
REMARK    5  A    between atoms: C4_10  and  C5_11 
REMARK    6  A    between atoms: C5_11  and  N4_12 
REMARK       I    between atoms: N4_12  and  C6_14 
REMARK    7  A    between atoms: C9_26  and  N9_27 
REMARK    8  A    between atoms: C10_32  and  N11_33 
ROOT
HETATM    1  N2  UNL     1      29.303  17.182   8.815  1.00  0.00    -0.309 N 
HETATM    2  C3  UNL     1      29.847  18.082   9.699  1.00  0.00     0.153 A 
HETATM    3  C7  UNL     1      29.049  18.529  10.726  1.00  0.00     0.189 A 
HETATM    4  N5  UNL     1      29.330  19.413  11.732  1.00  0.00    -0.265 N 
ATOM      5  H5  UNL     1      30.207  19.907  11.895  1.00  0.00     0.190 HD
HETATM    6  N6  UNL     1      28.226  19.490  12.444  1.00  0.00    -0.226 N 
ATOM      7  H6  UNL     1      28.099  20.069  13.275  1.00  0.00     0.210 HD
HETATM    8  N7  UNL     1      27.311  18.704  11.917  1.00  0.00    -0.219 N 
ATOM      9  H7  UNL     1      26.367  18.585  12.282  1.00  0.00     0.210 HD
HETATM   10  N8  UNL     1      27.788  18.094  10.851  1.00  0.00    -0.212 N 
HETATM   11  C8  UNL     1      27.265  17.204   9.970  1.00  0.00     0.148 A 
HETATM   12  C9  UNL     1      25.966  16.752  10.084  1.00  0.00     0.147 A 
HETATM   13  N10 UNL     1      25.515  15.854   9.141  1.00  0.00    -0.175 N 
ATOM     14  H10 UNL     1      24.559  15.504   9.199  1.00  0.00     0.186 HD
HETATM   15  C10 UNL     1      26.304  15.437   8.155  1.00  0.00     0.679 A 
HETATM   16  N12 UNL     1      27.576  15.851   8.007  1.00  0.00    -0.174 N 
ATOM     17  H12 UNL     1      28.158  15.512   7.241  1.00  0.00     0.186 HD
HETATM   18  C11 UNL     1      28.049  16.725   8.906  1.00  0.00     0.158 A 
ENDROOT
BRANCH   2  19
HETATM   19  N3  UNL     1      31.024  18.451   9.532  1.00  0.00    -0.371 N 
ATOM     20  H3  UNL     1      31.678  17.689   9.710  1.00  0.00     0.161 HD
BRANCH  19  21
HETATM   21  C4  UNL     1      31.694  19.616   9.170  1.00  0.00     0.141 C 
BRANCH  21  22
HETATM   22  C5  UNL     1      33.216  19.438   9.267  1.00  0.00     0.145 C 
BRANCH  22  23
HETATM   23  N4  UNL     1      33.612  18.872  10.526  1.00  0.00    -0.334 N 
HETATM   24  C6  UNL     1      34.405  19.538  11.500  1.00  0.00     0.283 C 
HETATM   25  O1  UNL     1      34.838  20.704  11.338  1.00  0.00    -0.630 OA
HETATM   26  O2  UNL     1      34.754  18.920  12.714  1.00  0.00    -0.630 OA
ATOM     27  H4  UNL     1      33.302  17.924  10.738  1.00  0.00     0.165 HD
ENDBRANCH  22  23
ENDBRANCH  21  22
ENDBRANCH  19  21
ENDBRANCH   2  19
BRANCH   1  28
HETATM   28  C2  UNL     1      30.146  16.720   7.743  1.00  0.00     0.176 C 
BRANCH  28  29
HETATM   29  C1  UNL     1      30.937  15.553   8.229  1.00  0.00     0.073 C 
HETATM   30  N1  UNL     1      31.879  15.026   7.504  1.00  0.00    -0.410 N 
ATOM     31  H12 UNL     1      32.068  15.430   6.586  1.00  0.00     0.155 HD
ATOM     32  H11 UNL     1      32.419  14.227   7.837  1.00  0.00     0.155 HD
ENDBRANCH  28  29
ENDBRANCH   1  28
BRANCH  12  33
HETATM   33  N9  UNL     1      25.215  17.129  10.996  1.00  0.00    -0.383 N 
ATOM     34  H92 UNL     1      25.032  16.522  11.795  1.00  0.00     0.157 HD
ATOM     35  H91 UNL     1      24.761  18.043  10.982  1.00  0.00     0.157 HD
ENDBRANCH  12  33
BRANCH  15  36
HETATM   36  N11 UNL     1      25.858  14.591   7.279  1.00  0.00    -0.234 N 
ATOM     37 2H11 UNL     1      25.065  14.014   7.558  1.00  0.00     0.174 HD
ATOM     38 1H11 UNL     1      26.297  14.526   6.360  1.00  0.00     0.174 HD
ENDBRANCH  15  36
TORSDOF 8
ENDMDL
MODEL 4
REMARK VINA RESULT: -6.513405326      3.027      5.446
REMARK  8 active torsions:
REMARK  status: ('A' for Active; 'I' for Inactive)
REMARK    1  A    between atoms: C1_4  and  C2_5 
REMARK    2  A    between atoms: C2_5  and  N2_6 
REMARK    3  A    between atoms: C3_7  and  N3_8 
REMARK    4  A    between atoms: N3_8  and  C4_10 
REMARK    5  A    between atoms: C4_10  and  C5_11 
REMARK    6  A    between atoms: C5_11  and  N4_12 
REMARK       I    between atoms: N4_12  and  C6_14 
REMARK    7  A    between atoms: C9_26  and  N9_27 
REMARK    8  A    between atoms: C10_32  and  N11_33 
ROOT
HETATM    1  N2  UNL     1      30.962  17.112   7.831  1.00  0.00    -0.309 N 
HETATM    2  C3  UNL     1      30.350  18.291   8.180  1.00  0.00     0.153 A 
HETATM    3  C7  UNL     1      30.976  19.463   7.826  1.00  0.00     0.189 A 
HETATM    4  N5  UNL     1      30.597  20.760   8.044  1.00  0.00    -0.265 N 
ATOM      5  H5  UNL     1      29.757  21.087   8.523  1.00  0.00     0.190 HD
HETATM    6  N6  UNL     1      31.546  21.494   7.505  1.00  0.00    -0.226 N 
ATOM      7  H6  UNL     1      31.568  22.514   7.494  1.00  0.00     0.210 HD
HETATM    8  N7  UNL     1      32.462  20.708   6.983  1.00  0.00    -0.219 N 
ATOM      9  H7  UNL     1      33.303  21.032   6.505  1.00  0.00     0.210 HD
HETATM   10  N8  UNL     1      32.141  19.443   7.164  1.00  0.00    -0.212 N 
HETATM   11  C8  UNL     1      32.732  18.270   6.827  1.00  0.00     0.148 A 
HETATM   12  C9  UNL     1      33.935  18.234   6.150  1.00  0.00     0.147 A 
HETATM   13  N10 UNL     1      34.467  16.998   5.853  1.00  0.00    -0.175 N 
ATOM     14  H10 UNL     1      35.355  16.941   5.354  1.00  0.00     0.186 HD
HETATM   15  C10 UNL     1      33.845  15.877   6.206  1.00  0.00     0.679 A 
HETATM   16  N12 UNL     1      32.671  15.866   6.866  1.00  0.00    -0.174 N 
ATOM     17  H12 UNL     1      32.217  14.990   7.123  1.00  0.00     0.186 HD
HETATM   18  C11 UNL     1      32.123  17.050   7.172  1.00  0.00     0.158 A 
ENDROOT
BRANCH   2  19
HETATM   19  N3  UNL     1      29.269  18.248   8.796  1.00  0.00    -0.371 N 
ATOM     20  H3  UNL     1      28.548  17.782   8.244  1.00  0.00     0.161 HD
BRANCH  19  21
HETATM   21  C4  UNL     1      28.772  18.660  10.029  1.00  0.00     0.141 C 
BRANCH  21  22
HETATM   22  C5  UNL     1      27.652  17.730  10.518  1.00  0.00     0.145 C 
BRANCH  22  23
HETATM   23  N4  UNL     1      26.496  18.462  10.954  1.00  0.00    -0.334 N 
HETATM   24  C6  UNL     1      25.379  18.778  10.135  1.00  0.00     0.283 C 
HETATM   25  O1  UNL     1      25.306  18.438   8.929  1.00  0.00    -0.630 OA
HETATM   26  O2  UNL     1      24.279  19.499  10.633  1.00  0.00    -0.630 OA
ATOM     27  H4  UNL     1      26.475  18.778  11.924  1.00  0.00     0.165 HD
ENDBRANCH  22  23
ENDBRANCH  21  22
ENDBRANCH  19  21
ENDBRANCH   2  19
BRANCH   1  28
HETATM   28  C2  UNL     1      30.298  15.890   8.206  1.00  0.00     0.176 C 
BRANCH  28  29
HETATM   29  C1  UNL     1      30.724  15.522   9.587  1.00  0.00     0.073 C 
HETATM   30  N1  UNL     1      29.878  15.045  10.452  1.00  0.00    -0.410 N 
ATOM     31  H12 UNL     1      28.906  14.927  10.164  1.00  0.00     0.155 HD
ATOM     32  H11 UNL     1      30.170  14.794  11.396  1.00  0.00     0.155 HD
ENDBRANCH  28  29
ENDBRANCH   1  28
BRANCH  12  33
HETATM   33  N9  UNL     1      34.531  19.268   5.811  1.00  0.00    -0.383 N 
ATOM     34  H92 UNL     1      34.183  19.830   5.035  1.00  0.00     0.157 HD
ATOM     35  H91 UNL     1      35.374  19.588   6.288  1.00  0.00     0.157 HD
ENDBRANCH  12  33
BRANCH  15  36
HETATM   36  N11 UNL     1      34.364  14.725   5.916  1.00  0.00    -0.234 N 
ATOM     37 2H11 UNL     1      34.052  14.283   5.052  1.00  0.00     0.174 HD
ATOM     38 1H11 UNL     1      35.052  14.302   6.540  1.00  0.00     0.174 HD
ENDBRANCH  15  36
TORSDOF 8
ENDMDL
MODEL 5
REMARK VINA RESULT: -6.494086376      3.921      6.550
REMARK  8 active torsions:
REMARK  status: ('A' for Active; 'I' for Inactive)
REMARK    1  A    between atoms: C1_4  and  C2_5 
REMARK    2  A    between atoms: C2_5  and  N2_6 
REMARK    3  A    between atoms: C3_7  and  N3_8 
REMARK    4  A    between atoms: N3_8  and  C4_10 
REMARK    5  A    between atoms: C4_10  and  C5_11 
REMARK    6  A    between atoms: C5_11  and  N4_12 
REMARK       I    between atoms: N4_12  and  C6_14 
REMARK    7  A    between atoms: C9_26  and  N9_27 
REMARK    8  A    between atoms: C10_32  and  N11_33 
ROOT
HETATM    1  N2  UNL     1      29.350  18.224   9.312  1.00  0.00    -0.309 N 
HETATM    2  C3  UNL     1      29.257  17.196   8.405  1.00  0.00     0.153 A 
HETATM    3  C7  UNL     1      28.076  16.494   8.356  1.00  0.00     0.189 A 
HETATM    4  N5  UNL     1      27.715  15.439   7.562  1.00  0.00    -0.265 N 
ATOM      5  H5  UNL     1      28.282  14.980   6.849  1.00  0.00     0.190 HD
HETATM    6  N6  UNL     1      26.483  15.145   7.915  1.00  0.00    -0.226 N 
ATOM      7  H6  UNL     1      25.916  14.398   7.511  1.00  0.00     0.210 HD
HETATM    8  N7  UNL     1      26.095  15.962   8.870  1.00  0.00    -0.219 N 
ATOM      9  H7  UNL     1      25.179  15.942   9.316  1.00  0.00     0.210 HD
HETATM   10  N8  UNL     1      27.058  16.812   9.168  1.00  0.00    -0.212 N 
HETATM   11  C8  UNL     1      27.165  17.830  10.058  1.00  0.00     0.148 A 
HETATM   12  C9  UNL     1      26.127  18.164  10.904  1.00  0.00     0.147 A 
HETATM   13  N10 UNL     1      26.326  19.208  11.781  1.00  0.00    -0.175 N 
ATOM     14  H10 UNL     1      25.576  19.476  12.418  1.00  0.00     0.186 HD
HETATM   15  C10 UNL     1      27.477  19.872  11.812  1.00  0.00     0.679 A 
HETATM   16  N12 UNL     1      28.514  19.581  11.005  1.00  0.00    -0.174 N 
ATOM     17  H12 UNL     1      29.386  20.109  11.051  1.00  0.00     0.186 HD
HETATM   18  C11 UNL     1      28.358  18.570  10.138  1.00  0.00     0.158 A 
ENDROOT
BRANCH   2  19
HETATM   19  N3  UNL     1      30.236  16.947   7.677  1.00  0.00    -0.371 N 
ATOM     20  H3  UNL     1      30.262  17.567   6.868  1.00  0.00     0.161 HD
BRANCH  19  21
HETATM   21  C4  UNL     1      31.304  16.055   7.663  1.00  0.00     0.141 C 
BRANCH  21  22
HETATM   22  C5  UNL     1      32.561  16.700   7.062  1.00  0.00     0.145 C 
BRANCH  22  23
HETATM   23  N4  UNL     1      33.389  15.741   6.385  1.00  0.00    -0.334 N 
HETATM   24  C6  UNL     1      33.993  15.944   5.115  1.00  0.00     0.283 C 
HETATM   25  O1  UNL     1      33.850  17.004   4.459  1.00  0.00    -0.630 OA
HETATM   26  O2  UNL     1      34.793  14.956   4.513  1.00  0.00    -0.630 OA
ATOM     27  H4  UNL     1      33.555  14.848   6.850  1.00  0.00     0.165 HD
ENDBRANCH  22  23
ENDBRANCH  21  22
ENDBRANCH  19  21
ENDBRANCH   2  19
BRANCH   1  28
HETATM   28  C2  UNL     1      30.592  18.953   9.355  1.00  0.00     0.176 C 
BRANCH  28  29
HETATM   29  C1  UNL     1      30.542  20.038   8.334  1.00  0.00     0.073 C 
HETATM   30  N1  UNL     1      31.543  20.260   7.534  1.00  0.00    -0.410 N 
ATOM     31  H12 UNL     1      32.372  19.671   7.620  1.00  0.00     0.155 HD
ATOM     32  H11 UNL     1      31.509  21.003   6.836  1.00  0.00     0.155 HD
ENDBRANCH  28  29
ENDBRANCH   1  28
BRANCH  12  33
HETATM   33  N9  UNL     1      25.045  17.557  10.890  1.00  0.00    -0.383 N 
ATOM     34  H92 UNL     1      24.994  16.591  11.215  1.00  0.00     0.157 HD
ATOM     35  H91 UNL     1      24.184  17.992  10.561  1.00  0.00     0.157 HD
ENDBRANCH  12  33
BRANCH  15  36
HETATM   36  N11 UNL     1      27.641  20.851  12.646  1.00  0.00    -0.234 N 
ATOM     37 2H11 UNL     1      26.919  20.978  13.355  1.00  0.00     0.174 HD
ATOM     38 1H11 UNL     1      28.462  21.452  12.574  1.00  0.00     0.174 HD
ENDBRANCH  15  36
TORSDOF 8
ENDMDL
