MODEL 1
REMARK VINA RESULT: -7.761391126      0.000      0.000
REMARK  5 active torsions:
REMARK  status: ('A' for Active; 'I' for Inactive)
REMARK       I    between atoms: C2_2  and  N1_4 
REMARK    1  A    between atoms: N1_4  and  C3_6 
REMARK    2  A    between atoms: C3_6  and  C4_7 
REMARK    3  A    between atoms: C3_6  and  C6_20 
REMARK       I    between atoms: C4_7  and  N2_9 
REMARK       I    between atoms: N2_9  and  C5_11 
REMARK       I    between atoms: C5_11  and  N3_12 
REMARK       I    between atoms: C5_11  and  N4_16 
REMARK    4  A    between atoms: C7_23  and  C8_24 
REMARK    5  A    between atoms: C9_33  and  O3_34 
ROOT
HETATM    1  C3  UNL     1      24.827  15.309   7.011  1.00  0.00     0.193 C 
ENDROOT
BRANCH   1   2
HETATM    2  N1  UNL     1      26.172  15.393   7.481  1.00  0.00    -0.347 N 
HETATM    3  C2  UNL     1      26.647  15.593   8.762  1.00  0.00     0.214 C 
HETATM    4  C1  UNL     1      28.088  15.650   9.043  1.00  0.00     0.117 C 
HETATM    5  O1  UNL     1      25.836  15.729   9.702  1.00  0.00    -0.274 OA
ATOM      6  H1  UNL     1      26.889  15.291   6.763  1.00  0.00     0.163 HD
ENDBRANCH   1   2
BRANCH   1   7
HETATM    7  C4  UNL     1      24.739  15.977   5.695  1.00  0.00     0.244 C 
HETATM    8  O2  UNL     1      25.018  15.357   4.641  1.00  0.00    -0.271 OA
HETATM    9  N2  UNL     1      24.347  17.330   5.519  1.00  0.00    -0.310 N 
HETATM   10  C5  UNL     1      24.256  17.991   4.261  1.00  0.00     0.482 C 
ATOM     11  H2  UNL     1      24.113  17.868   6.354  1.00  0.00     0.166 HD
HETATM   12  N3  UNL     1      25.172  19.141   4.246  1.00  0.00    -0.033 N 
HETATM   13  N4  UNL     1      22.900  18.431   3.989  1.00  0.00    -0.033 N 
ATOM     14  H33 UNL     1      25.008  19.775   5.028  1.00  0.00     0.278 HD
ATOM     15  H32 UNL     1      26.130  18.874   4.473  1.00  0.00     0.278 HD
ATOM     16  H31 UNL     1      25.106  19.614   3.345  1.00  0.00     0.278 HD
ATOM     17  H43 UNL     1      22.237  17.658   4.053  1.00  0.00     0.278 HD
ATOM     18  H42 UNL     1      22.537  19.014   4.744  1.00  0.00     0.278 HD
ATOM     19  H41 UNL     1      22.834  18.904   3.088  1.00  0.00     0.278 HD
ENDBRANCH   1   7
BRANCH   1  20
HETATM   20  C6  UNL     1      24.199  13.983   6.970  1.00  0.00     0.120 C 
HETATM   21  S1  UNL     1      22.522  13.959   7.680  1.00  0.00    -0.087 SA
HETATM   22  S2  UNL     1      23.009  12.639   9.315  1.00  0.00    -0.082 SA
HETATM   23  C7  UNL     1      24.776  12.488   8.872  1.00  0.00     0.159 C 
HETATM   24  C9  UNL     1      24.945  12.825   7.467  1.00  0.00     0.157 C 
BRANCH  23  25
HETATM   25  C8  UNL     1      25.096  11.040   9.077  1.00  0.00     0.130 A 
HETATM   26  N5  UNL     1      26.317  10.478   9.046  1.00  0.00    -0.271 N 
HETATM   27  N6  UNL     1      26.242   9.178   9.267  1.00  0.00    -0.227 N 
ATOM     28  H5  UNL     1      27.185  10.986   8.875  1.00  0.00     0.190 HD
HETATM   29  N7  UNL     1      24.961   8.916   9.440  1.00  0.00    -0.227 N 
ATOM     30  H6  UNL     1      27.015   8.513   9.297  1.00  0.00     0.210 HD
HETATM   31  N8  UNL     1      24.252  10.027   9.330  1.00  0.00    -0.271 N 
ATOM     32  H7  UNL     1      24.574   7.992   9.631  1.00  0.00     0.210 HD
ATOM     33  H8  UNL     1      23.239  10.101   9.420  1.00  0.00     0.190 HD
ENDBRANCH  23  25
BRANCH  24  34
HETATM   34  O3  UNL     1      24.760  11.676   6.656  1.00  0.00    -0.393 OA
ATOM     35  H3  UNL     1      25.430  11.018   6.804  1.00  0.00     0.210 HD
ENDBRANCH  24  34
ENDBRANCH   1  20
TORSDOF 5
ENDMDL
MODEL 2
REMARK VINA RESULT: -7.672752023      4.085      6.771
REMARK  5 active torsions:
REMARK  status: ('A' for Active; 'I' for Inactive)
REMARK       I    between atoms: C2_2  and  N1_4 
REMARK    1  A    between atoms: N1_4  and  C3_6 
REMARK    2  A    between atoms: C3_6  and  C4_7 
REMARK    3  A    between atoms: C3_6  and  C6_20 
REMARK       I    between atoms: C4_7  and  N2_9 
REMARK       I    between atoms: N2_9  and  C5_11 
REMARK       I    between atoms: C5_11  and  N3_12 
REMARK       I    between atoms: C5_11  and  N4_16 
REMARK    4  A    between atoms: C7_23  and  C8_24 
REMARK    5  A    between atoms: C9_33  and  O3_34 
ROOT
HETATM    1  C3  UNL     1      26.198  15.904   8.046  1.00  0.00     0.193 C 
ENDROOT
BRANCH   1   2
HETATM    2  N1  UNL     1      26.454  16.304   6.700  1.00  0.00    -0.347 N 
HETATM    3  C2  UNL     1      25.980  17.395   5.999  1.00  0.00     0.214 C 
HETATM    4  C1  UNL     1      26.366  17.634   4.601  1.00  0.00     0.117 C 
HETATM    5  O1  UNL     1      25.205  18.196   6.563  1.00  0.00    -0.274 OA
ATOM      6  H1  UNL     1      27.081  15.692   6.178  1.00  0.00     0.163 HD
ENDBRANCH   1   2
BRANCH   1   7
HETATM    7  C4  UNL     1      25.451  14.629   8.030  1.00  0.00     0.244 C 
HETATM    8  O2  UNL     1      26.030  13.549   7.763  1.00  0.00    -0.271 OA
HETATM    9  N2  UNL     1      24.062  14.521   8.306  1.00  0.00    -0.310 N 
HETATM   10  C5  UNL     1      23.325  13.303   8.296  1.00  0.00     0.482 C 
ATOM     11  H2  UNL     1      23.555  15.379   8.527  1.00  0.00     0.166 HD
HETATM   12  N3  UNL     1      22.255  13.387   7.291  1.00  0.00    -0.033 N 
HETATM   13  N4  UNL     1      22.760  13.014   9.602  1.00  0.00    -0.033 N 
ATOM     14  H33 UNL     1      21.656  14.200   7.433  1.00  0.00     0.278 HD
ATOM     15  H32 UNL     1      22.613  13.629   6.366  1.00  0.00     0.278 HD
ATOM     16  H31 UNL     1      21.727  12.515   7.284  1.00  0.00     0.278 HD
ATOM     17  H43 UNL     1      23.478  13.010  10.326  1.00  0.00     0.278 HD
ATOM     18  H42 UNL     1      22.194  13.791   9.944  1.00  0.00     0.278 HD
ATOM     19  H41 UNL     1      22.232  12.141   9.595  1.00  0.00     0.278 HD
ENDBRANCH   1   7
BRANCH   1  20
HETATM   20  C6  UNL     1      27.339  15.834   8.967  1.00  0.00     0.120 C 
HETATM   21  S1  UNL     1      26.996  16.573  10.595  1.00  0.00    -0.087 SA
HETATM   22  S2  UNL     1      28.450  18.157  10.412  1.00  0.00    -0.082 SA
HETATM   23  C7  UNL     1      28.992  17.677   8.734  1.00  0.00     0.159 C 
HETATM   24  C9  UNL     1      28.656  16.280   8.506  1.00  0.00     0.157 C 
BRANCH  23  25
HETATM   25  C8  UNL     1      30.481  17.831   8.759  1.00  0.00     0.130 A 
HETATM   26  N5  UNL     1      31.229  18.212   9.811  1.00  0.00    -0.271 N 
HETATM   27  N6  UNL     1      32.509  18.244   9.491  1.00  0.00    -0.227 N 
ATOM     28  H5  UNL     1      30.857  18.444  10.732  1.00  0.00     0.190 HD
HETATM   29  N7  UNL     1      32.572  17.880   8.224  1.00  0.00    -0.227 N 
ATOM     30  H6  UNL     1      33.289  18.498  10.097  1.00  0.00     0.210 HD
HETATM   31  N8  UNL     1      31.359  17.626   7.764  1.00  0.00    -0.271 N 
ATOM     32  H7  UNL     1      33.432  17.805   7.680  1.00  0.00     0.210 HD
ATOM     33  H8  UNL     1      31.129  17.327   6.817  1.00  0.00     0.190 HD
ENDBRANCH  23  25
BRANCH  24  34
HETATM   34  O3  UNL     1      29.701  15.438   8.963  1.00  0.00    -0.393 OA
ATOM     35  H3  UNL     1      30.551  15.708   8.635  1.00  0.00     0.210 HD
ENDBRANCH  24  34
ENDBRANCH   1  20
TORSDOF 5
ENDMDL
MODEL 3
REMARK VINA RESULT: -7.205367857      4.301      6.969
REMARK  5 active torsions:
REMARK  status: ('A' for Active; 'I' for Inactive)
REMARK       I    between atoms: C2_2  and  N1_4 
REMARK    1  A    between atoms: N1_4  and  C3_6 
REMARK    2  A    between atoms: C3_6  and  C4_7 
REMARK    3  A    between atoms: C3_6  and  C6_20 
REMARK       I    between atoms: C4_7  and  N2_9 
REMARK       I    between atoms: N2_9  and  C5_11 
REMARK       I    between atoms: C5_11  and  N3_12 
REMARK       I    between atoms: C5_11  and  N4_16 
REMARK    4  A    between atoms: C7_23  and  C8_24 
REMARK    5  A    between atoms: C9_33  and  O3_34 
ROOT
HETATM    1  C3  UNL     1      26.587  16.225   8.113  1.00  0.00     0.193 C 
ENDROOT
BRANCH   1   2
HETATM    2  N1  UNL     1      26.861  16.617   6.768  1.00  0.00    -0.347 N 
HETATM    3  C2  UNL     1      26.203  17.526   5.964  1.00  0.00     0.214 C 
HETATM    4  C1  UNL     1      26.646  17.792   4.588  1.00  0.00     0.117 C 
HETATM    5  O1  UNL     1      25.209  18.135   6.413  1.00  0.00    -0.274 OA
ATOM      6  H1  UNL     1      27.663  16.156   6.337  1.00  0.00     0.163 HD
ENDBRANCH   1   2
BRANCH   1   7
HETATM    7  C4  UNL     1      25.870  14.933   8.096  1.00  0.00     0.244 C 
HETATM    8  O2  UNL     1      25.918  14.159   9.081  1.00  0.00    -0.271 OA
HETATM    9  N2  UNL     1      25.091  14.474   7.000  1.00  0.00    -0.310 N 
HETATM   10  C5  UNL     1      24.393  13.234   6.964  1.00  0.00     0.482 C 
ATOM     11  H2  UNL     1      25.029  15.076   6.179  1.00  0.00     0.166 HD
HETATM   12  N3  UNL     1      24.901  12.419   5.851  1.00  0.00    -0.033 N 
HETATM   13  N4  UNL     1      22.962  13.434   6.823  1.00  0.00    -0.033 N 
ATOM     14  H33 UNL     1      24.856  12.913   4.960  1.00  0.00     0.278 HD
ATOM     15  H32 UNL     1      25.912  12.291   5.896  1.00  0.00     0.278 HD
ATOM     16  H31 UNL     1      24.400  11.531   5.825  1.00  0.00     0.278 HD
ATOM     17  H43 UNL     1      22.598  14.047   7.553  1.00  0.00     0.278 HD
ATOM     18  H42 UNL     1      22.744  14.010   6.009  1.00  0.00     0.278 HD
ATOM     19  H41 UNL     1      22.461  12.546   6.798  1.00  0.00     0.278 HD
ENDBRANCH   1   7
BRANCH   1  20
HETATM   20  C6  UNL     1      27.711  16.190   9.057  1.00  0.00     0.120 C 
HETATM   21  S1  UNL     1      27.333  16.976  10.655  1.00  0.00    -0.087 SA
HETATM   22  S2  UNL     1      28.780  18.563  10.452  1.00  0.00    -0.082 SA
HETATM   23  C7  UNL     1      29.357  18.036   8.800  1.00  0.00     0.159 C 
HETATM   24  C9  UNL     1      29.033  16.630   8.608  1.00  0.00     0.157 C 
BRANCH  23  25
HETATM   25  C8  UNL     1      30.844  18.200   8.849  1.00  0.00     0.130 A 
HETATM   26  N5  UNL     1      31.574  18.579   9.914  1.00  0.00    -0.271 N 
HETATM   27  N6  UNL     1      32.859  18.622   9.613  1.00  0.00    -0.227 N 
ATOM     28  H5  UNL     1      31.186  18.803  10.830  1.00  0.00     0.190 HD
HETATM   29  N7  UNL     1      32.943  18.266   8.346  1.00  0.00    -0.227 N 
ATOM     30  H6  UNL     1      33.627  18.878  10.233  1.00  0.00     0.210 HD
HETATM   31  N8  UNL     1      31.739  18.007   7.866  1.00  0.00    -0.271 N 
ATOM     32  H7  UNL     1      33.811  18.200   7.814  1.00  0.00     0.210 HD
ATOM     33  H8  UNL     1      31.525  17.711   6.913  1.00  0.00     0.190 HD
ENDBRANCH  23  25
BRANCH  24  34
HETATM   34  O3  UNL     1      30.074  15.809   9.110  1.00  0.00    -0.393 OA
ATOM     35  H3  UNL     1      30.116  14.968   8.670  1.00  0.00     0.210 HD
ENDBRANCH  24  34
ENDBRANCH   1  20
TORSDOF 5
ENDMDL
MODEL 4
REMARK VINA RESULT: -7.148347279      3.750      5.836
REMARK  5 active torsions:
REMARK  status: ('A' for Active; 'I' for Inactive)
REMARK       I    between atoms: C2_2  and  N1_4 
REMARK    1  A    between atoms: N1_4  and  C3_6 
REMARK    2  A    between atoms: C3_6  and  C4_7 
REMARK    3  A    between atoms: C3_6  and  C6_20 
REMARK       I    between atoms: C4_7  and  N2_9 
REMARK       I    between atoms: N2_9  and  C5_11 
REMARK       I    between atoms: C5_11  and  N3_12 
REMARK       I    between atoms: C5_11  and  N4_16 
REMARK    4  A    between atoms: C7_23  and  C8_24 
REMARK    5  A    between atoms: C9_33  and  O3_34 
ROOT
HETATM    1  C3  UNL     1      26.611  16.269   6.765  1.00  0.00     0.193 C 
ENDROOT
BRANCH   1   2
HETATM    2  N1  UNL     1      25.504  15.690   7.454  1.00  0.00    -0.347 N 
HETATM    3  C2  UNL     1      25.172  14.361   7.630  1.00  0.00     0.214 C 
HETATM    4  C1  UNL     1      23.973  13.964   8.382  1.00  0.00     0.117 C 
HETATM    5  O1  UNL     1      25.906  13.477   7.140  1.00  0.00    -0.274 OA
ATOM      6  H1  UNL     1      24.861  16.357   7.881  1.00  0.00     0.163 HD
ENDBRANCH   1   2
BRANCH   1   7
HETATM    7  C4  UNL     1      26.112  17.342   5.880  1.00  0.00     0.244 C 
HETATM    8  O2  UNL     1      26.881  17.921   5.076  1.00  0.00    -0.271 OA
HETATM    9  N2  UNL     1      24.766  17.794   5.864  1.00  0.00    -0.310 N 
HETATM   10  C5  UNL     1      24.265  18.825   5.019  1.00  0.00     0.482 C 
ATOM     11  H2  UNL     1      24.109  17.348   6.506  1.00  0.00     0.166 HD
HETATM   12  N3  UNL     1      23.733  19.919   5.846  1.00  0.00    -0.033 N 
HETATM   13  N4  UNL     1      23.235  18.327   4.127  1.00  0.00    -0.033 N 
ATOM     14  H33 UNL     1      23.033  19.592   6.512  1.00  0.00     0.278 HD
ATOM     15  H32 UNL     1      24.419  20.267   6.514  1.00  0.00     0.278 HD
ATOM     16  H31 UNL     1      23.374  20.657   5.240  1.00  0.00     0.278 HD
ATOM     17  H43 UNL     1      23.565  17.528   3.586  1.00  0.00     0.278 HD
ATOM     18  H42 UNL     1      22.483  17.870   4.643  1.00  0.00     0.278 HD
ATOM     19  H41 UNL     1      22.877  19.066   3.521  1.00  0.00     0.278 HD
ENDBRANCH   1   7
BRANCH   1  20
HETATM   20  C6  UNL     1      27.748  16.736   7.569  1.00  0.00     0.120 C 
HETATM   21  S1  UNL     1      28.878  15.397   8.062  1.00  0.00    -0.087 SA
HETATM   22  S2  UNL     1      28.515  15.590  10.180  1.00  0.00    -0.082 SA
HETATM   23  C7  UNL     1      27.297  16.942  10.005  1.00  0.00     0.159 C 
HETATM   24  C9  UNL     1      27.496  17.601   8.723  1.00  0.00     0.157 C 
BRANCH  23  25
HETATM   25  C8  UNL     1      27.630  17.896  11.110  1.00  0.00     0.130 A 
HETATM   26  N5  UNL     1      28.779  17.941  11.810  1.00  0.00    -0.271 N 
HETATM   27  N6  UNL     1      28.742  18.904  12.712  1.00  0.00    -0.227 N 
ATOM     28  H5  UNL     1      29.571  17.316  11.663  1.00  0.00     0.190 HD
HETATM   29  N7  UNL     1      27.559  19.474  12.582  1.00  0.00    -0.227 N 
ATOM     30  H6  UNL     1      29.477  19.156  13.374  1.00  0.00     0.210 HD
HETATM   31  N8  UNL     1      26.873  18.880  11.620  1.00  0.00    -0.271 N 
ATOM     32  H7  UNL     1      27.224  20.259  13.141  1.00  0.00     0.210 HD
ATOM     33  H8  UNL     1      25.931  19.127  11.318  1.00  0.00     0.190 HD
ENDBRANCH  23  25
BRANCH  24  34
HETATM   34  O3  UNL     1      28.460  18.635   8.842  1.00  0.00    -0.393 OA
ATOM     35  H3  UNL     1      28.594  18.901   9.744  1.00  0.00     0.210 HD
ENDBRANCH  24  34
ENDBRANCH   1  20
TORSDOF 5
ENDMDL
MODEL 5
REMARK VINA RESULT: -7.143384834      1.197      1.316
REMARK  5 active torsions:
REMARK  status: ('A' for Active; 'I' for Inactive)
REMARK       I    between atoms: C2_2  and  N1_4 
REMARK    1  A    between atoms: N1_4  and  C3_6 
REMARK    2  A    between atoms: C3_6  and  C4_7 
REMARK    3  A    between atoms: C3_6  and  C6_20 
REMARK       I    between atoms: C4_7  and  N2_9 
REMARK       I    between atoms: N2_9  and  C5_11 
REMARK       I    between atoms: C5_11  and  N3_12 
REMARK       I    between atoms: C5_11  and  N4_16 
REMARK    4  A    between atoms: C7_23  and  C8_24 
REMARK    5  A    between atoms: C9_33  and  O3_34 
ROOT
HETATM    1  C3  UNL     1      25.489  15.331   7.638  1.00  0.00     0.193 C 
ENDROOT
BRANCH   1   2
HETATM    2  N1  UNL     1      26.733  15.268   8.334  1.00  0.00    -0.347 N 
HETATM    3  C2  UNL     1      27.056  15.703   9.604  1.00  0.00     0.214 C 
HETATM    4  C1  UNL     1      28.413  15.544  10.146  1.00  0.00     0.117 C 
HETATM    5  O1  UNL     1      26.177  16.243  10.308  1.00  0.00    -0.274 OA
ATOM      6  H1  UNL     1      27.499  14.836   7.816  1.00  0.00     0.163 HD
ENDBRANCH   1   2
BRANCH   1   7
HETATM    7  C4  UNL     1      25.671  16.133   6.410  1.00  0.00     0.244 C 
HETATM    8  O2  UNL     1      26.591  16.981   6.327  1.00  0.00    -0.271 OA
HETATM    9  N2  UNL     1      24.849  16.015   5.258  1.00  0.00    -0.310 N 
HETATM   10  C5  UNL     1      25.008  16.777   4.066  1.00  0.00     0.482 C 
ATOM     11  H2  UNL     1      24.088  15.335   5.287  1.00  0.00     0.166 HD
HETATM   12  N3  UNL     1      23.786  17.557   3.818  1.00  0.00    -0.033 N 
HETATM   13  N4  UNL     1      25.296  15.926   2.926  1.00  0.00    -0.033 N 
ATOM     14  H33 UNL     1      22.953  16.970   3.792  1.00  0.00     0.278 HD
ATOM     15  H32 UNL     1      23.531  18.138   4.616  1.00  0.00     0.278 HD
ATOM     16  H31 UNL     1      23.901  18.103   2.963  1.00  0.00     0.278 HD
ATOM     17  H43 UNL     1      26.106  15.332   3.100  1.00  0.00     0.278 HD
ATOM     18  H42 UNL     1      24.588  15.200   2.813  1.00  0.00     0.278 HD
ATOM     19  H41 UNL     1      25.411  16.472   2.072  1.00  0.00     0.278 HD
ENDBRANCH   1   7
BRANCH   1  20
HETATM   20  C6  UNL     1      24.805  14.066   7.343  1.00  0.00     0.120 C 
HETATM   21  S1  UNL     1      23.021  14.112   7.703  1.00  0.00    -0.087 SA
HETATM   22  S2  UNL     1      23.087  12.623   9.264  1.00  0.00    -0.082 SA
HETATM   23  C7  UNL     1      24.896  12.374   9.164  1.00  0.00     0.159 C 
HETATM   24  C9  UNL     1      25.366  12.815   7.859  1.00  0.00     0.157 C 
BRANCH  23  25
HETATM   25  C8  UNL     1      25.081  10.894   9.283  1.00  0.00     0.130 A 
HETATM   26  N5  UNL     1      26.252  10.231   9.295  1.00  0.00    -0.271 N 
HETATM   27  N6  UNL     1      26.056   8.931   9.414  1.00  0.00    -0.227 N 
ATOM     28  H5  UNL     1      27.168  10.674   9.223  1.00  0.00     0.190 HD
HETATM   29  N7  UNL     1      24.748   8.769   9.478  1.00  0.00    -0.227 N 
ATOM     30  H6  UNL     1      26.769   8.202   9.448  1.00  0.00     0.210 HD
HETATM   31  N8  UNL     1      24.142   9.942   9.401  1.00  0.00    -0.271 N 
ATOM     32  H7  UNL     1      24.275   7.871   9.573  1.00  0.00     0.210 HD
ATOM     33  H8  UNL     1      23.134  10.096   9.426  1.00  0.00     0.190 HD
ENDBRANCH  23  25
BRANCH  24  34
HETATM   34  O3  UNL     1      25.282  11.758   6.919  1.00  0.00    -0.393 OA
ATOM     35  H3  UNL     1      25.712  10.968   7.225  1.00  0.00     0.210 HD
ENDBRANCH  24  34
ENDBRANCH   1  20
TORSDOF 5
ENDMDL
