MODEL 1
REMARK VINA RESULT: -10.280113789      0.000      0.000
REMARK  7 active torsions:
REMARK  status: ('A' for Active; 'I' for Inactive)
REMARK       I    between atoms: N1_2  and  C2_4 
REMARK    1  A    between atoms: C2_4  and  C3_6 
REMARK    2  A    between atoms: C4_11  and  C5_12 
REMARK    3  A    between atoms: C11_18  and  N4_19 
REMARK    4  A    between atoms: C19_28  and  C20_29 
REMARK       I    between atoms: C20_29  and  N5_31 
REMARK    5  A    between atoms: N5_31  and  C21_33 
REMARK    6  A    between atoms: C21_33  and  C22_34 
REMARK    7  A    between atoms: C22_34  and  C24_36 
ROOT
HETATM    1  C3  UNL     1      16.363  23.545  18.432  1.00  0.00     0.133 A 
HETATM    2  N2  UNL     1      16.737  24.692  19.016  1.00  0.00    -0.294 N 
ATOM      3  H2  UNL     1      16.379  25.047  19.901  1.00  0.00     0.187 HD
HETATM    4  N3  UNL     1      17.615  25.270  18.285  1.00  0.00    -0.302 N 
ATOM      5  H3  UNL     1      18.049  26.162  18.525  1.00  0.00     0.186 HD
HETATM    6  C4  UNL     1      17.911  24.569  17.148  1.00  0.00     0.052 A 
HETATM    7  C19 UNL     1      17.098  23.468  17.259  1.00  0.00     0.090 A 
ENDROOT
BRANCH   6   8
HETATM    8  C5  UNL     1      18.900  25.007  16.160  1.00  0.00     0.006 C 
HETATM    9  C6  UNL     1      18.313  25.287  14.793  1.00  0.00     0.020 C 
HETATM   10  C7  UNL     1      19.410  25.892  13.931  1.00  0.00    -0.013 C 
HETATM   11  C8  UNL     1      19.773  27.277  14.429  1.00  0.00     0.011 C 
HETATM   12  C17 UNL     1      20.641  25.031  13.867  1.00  0.00     0.011 C 
HETATM   13  C9  UNL     1      20.351  27.059  15.825  1.00  0.00     0.010 C 
HETATM   14  C10 UNL     1      19.310  26.433  16.644  1.00  0.00     0.022 C 
HETATM   15  C11 UNL     1      21.606  26.233  15.709  1.00  0.00     0.087 C 
HETATM   16  C16 UNL     1      21.245  24.872  15.285  1.00  0.00     0.010 C 
HETATM   17  C18 UNL     1      20.131  24.188  16.051  1.00  0.00     0.022 C 
BRANCH  15  18
HETATM   18  N4  UNL     1      22.482  26.468  16.752  1.00  0.00    -0.406 N 
HETATM   19  C12 UNL     1      22.451  25.799  17.975  1.00  0.00     0.127 C 
HETATM   20  C13 UNL     1      23.796  25.847  18.720  1.00  0.00     0.093 C 
HETATM   21  S1  UNL     1      25.036  26.203  17.409  1.00  0.00    -0.166 SA
HETATM   22  C14 UNL     1      24.521  27.846  16.761  1.00  0.00     0.093 C 
HETATM   23  C15 UNL     1      23.004  27.811  16.783  1.00  0.00     0.127 C 
ENDBRANCH  15  18
ENDBRANCH   6   8
BRANCH   7  24
HETATM   24  C20 UNL     1      16.914  22.424  16.248  1.00  0.00     0.259 C 
HETATM   25  O2  UNL     1      17.468  21.340  16.435  1.00  0.00    -0.267 OA
HETATM   26  N5  UNL     1      16.130  22.647  15.094  1.00  0.00    -0.336 N 
ATOM     27  H5  UNL     1      15.731  23.585  15.064  1.00  0.00     0.168 HD
BRANCH  26  28
HETATM   28  C21 UNL     1      15.778  21.876  13.986  1.00  0.00     0.070 C 
BRANCH  28  29
HETATM   29  C22 UNL     1      14.376  21.853  13.571  1.00  0.00     0.051 C 
HETATM   30  C23 UNL     1      13.957  21.075  12.391  1.00  0.00     0.017 C 
BRANCH  29  31
HETATM   31  C24 UNL     1      13.511  21.392  14.753  1.00  0.00     0.194 C 
HETATM   32  C25 UNL     1      12.101  21.091  14.321  1.00  0.00     0.034 C 
HETATM   33  C26 UNL     1      11.275  20.977  15.609  1.00  0.00     0.004 C 
HETATM   34  C27 UNL     1      11.881  19.972  16.540  1.00  0.00     0.027 C 
HETATM   35  C28 UNL     1      13.369  20.141  16.710  1.00  0.00     0.232 C 
HETATM   36  N6  UNL     1      14.050  20.255  15.430  1.00  0.00    -0.070 N 
ATOM     37  H62 UNL     1      13.997  19.401  14.875  1.00  0.00     0.277 HD
ATOM     38  H61 UNL     1      15.064  20.293  15.522  1.00  0.00     0.277 HD
ENDBRANCH  29  31
ENDBRANCH  28  29
ENDBRANCH  26  28
ENDBRANCH   7  24
BRANCH   1  39
HETATM   39  C2  UNL     1      15.387  22.581  18.981  1.00  0.00     0.270 C 
HETATM   40  N1  UNL     1      15.917  21.360  19.505  1.00  0.00    -0.360 N 
HETATM   41  C1  UNL     1      15.039  20.341  20.069  1.00  0.00     0.149 C 
ATOM     42  H1  UNL     1      16.925  21.200  19.484  1.00  0.00     0.162 HD
HETATM   43  O1  UNL     1      14.161  22.752  19.017  1.00  0.00    -0.266 OA
ENDBRANCH   1  39
TORSDOF 7
ENDMDL
MODEL 2
REMARK VINA RESULT: -9.446566400      2.968      6.655
REMARK  7 active torsions:
REMARK  status: ('A' for Active; 'I' for Inactive)
REMARK       I    between atoms: N1_2  and  C2_4 
REMARK    1  A    between atoms: C2_4  and  C3_6 
REMARK    2  A    between atoms: C4_11  and  C5_12 
REMARK    3  A    between atoms: C11_18  and  N4_19 
REMARK    4  A    between atoms: C19_28  and  C20_29 
REMARK       I    between atoms: C20_29  and  N5_31 
REMARK    5  A    between atoms: N5_31  and  C21_33 
REMARK    6  A    between atoms: C21_33  and  C22_34 
REMARK    7  A    between atoms: C22_34  and  C24_36 
ROOT
HETATM    1  C3  UNL     1      13.043  19.553  13.702  1.00  0.00     0.133 A 
HETATM    2  N2  UNL     1      14.287  19.790  13.266  1.00  0.00    -0.294 N 
ATOM      3  H2  UNL     1      14.680  19.449  12.389  1.00  0.00     0.187 HD
HETATM    4  N3  UNL     1      14.905  20.512  14.124  1.00  0.00    -0.302 N 
ATOM      5  H3  UNL     1      15.871  20.821  14.009  1.00  0.00     0.186 HD
HETATM    6  C4  UNL     1      14.136  20.826  15.211  1.00  0.00     0.052 A 
HETATM    7  C19 UNL     1      12.948  20.201  14.925  1.00  0.00     0.090 A 
ENDROOT
BRANCH   6   8
HETATM    8  C5  UNL     1      14.604  21.659  16.322  1.00  0.00     0.006 C 
HETATM    9  C6  UNL     1      13.963  21.321  17.651  1.00  0.00     0.020 C 
HETATM   10  C7  UNL     1      14.663  22.136  18.726  1.00  0.00    -0.013 C 
HETATM   11  C8  UNL     1      16.089  21.656  18.912  1.00  0.00     0.011 C 
HETATM   12  C17 UNL     1      14.652  23.612  18.437  1.00  0.00     0.011 C 
HETATM   13  C9  UNL     1      16.784  21.950  17.585  1.00  0.00     0.010 C 
HETATM   14  C10 UNL     1      16.081  21.202  16.539  1.00  0.00     0.022 C 
HETATM   15  C11 UNL     1      16.791  23.440  17.358  1.00  0.00     0.087 C 
HETATM   16  C16 UNL     1      15.414  23.894  17.118  1.00  0.00     0.010 C 
HETATM   17  C18 UNL     1      14.607  23.123  16.092  1.00  0.00     0.022 C 
BRANCH  15  18
HETATM   18  N4  UNL     1      17.846  23.840  16.559  1.00  0.00    -0.406 N 
HETATM   19  C12 UNL     1      17.732  24.171  15.209  1.00  0.00     0.127 C 
HETATM   20  C13 UNL     1      18.880  25.065  14.710  1.00  0.00     0.093 C 
HETATM   21  S1  UNL     1      19.555  25.839  16.236  1.00  0.00    -0.166 SA
HETATM   22  C14 UNL     1      20.147  24.404  17.224  1.00  0.00     0.093 C 
HETATM   23  C15 UNL     1      19.122  23.313  16.972  1.00  0.00     0.127 C 
ENDBRANCH  15  18
ENDBRANCH   6   8
BRANCH   7  24
HETATM   24  C20 UNL     1      11.787  20.103  15.812  1.00  0.00     0.259 C 
HETATM   25  O2  UNL     1      10.896  20.946  15.687  1.00  0.00    -0.267 OA
HETATM   26  N5  UNL     1      11.685  19.081  16.781  1.00  0.00    -0.336 N 
ATOM     27  H5  UNL     1      12.489  18.453  16.778  1.00  0.00     0.168 HD
BRANCH  26  28
HETATM   28  C21 UNL     1      10.735  18.734  17.742  1.00  0.00     0.070 C 
BRANCH  28  29
HETATM   29  C22 UNL     1      11.082  17.711  18.727  1.00  0.00     0.051 C 
HETATM   30  C23 UNL     1      11.181  16.294  18.333  1.00  0.00     0.017 C 
BRANCH  29  31
HETATM   31  C24 UNL     1      12.410  18.093  19.399  1.00  0.00     0.194 C 
HETATM   32  C25 UNL     1      12.325  17.973  20.897  1.00  0.00     0.034 C 
HETATM   33  C26 UNL     1      13.564  18.689  21.452  1.00  0.00     0.004 C 
HETATM   34  C27 UNL     1      14.814  18.135  20.841  1.00  0.00     0.027 C 
HETATM   35  C28 UNL     1      14.735  17.998  19.342  1.00  0.00     0.232 C 
HETATM   36  N6  UNL     1      13.516  17.322  18.926  1.00  0.00    -0.070 N 
ATOM     37  H62 UNL     1      13.480  16.349  19.228  1.00  0.00     0.277 HD
ATOM     38  H61 UNL     1      13.480  17.152  17.921  1.00  0.00     0.277 HD
ENDBRANCH  29  31
ENDBRANCH  28  29
ENDBRANCH  26  28
ENDBRANCH   7  24
BRANCH   1  39
HETATM   39  C2  UNL     1      12.012  18.779  12.979  1.00  0.00     0.270 C 
HETATM   40  N1  UNL     1      12.404  17.495  12.487  1.00  0.00    -0.360 N 
HETATM   41  C1  UNL     1      11.462  16.651  11.759  1.00  0.00     0.149 C 
ATOM     42  H1  UNL     1      13.355  17.164  12.646  1.00  0.00     0.162 HD
HETATM   43  O1  UNL     1      10.852  19.159  12.773  1.00  0.00    -0.266 OA
ENDBRANCH   1  39
TORSDOF 7
ENDMDL
MODEL 3
REMARK VINA RESULT: -9.427984356      1.031      1.316
REMARK  7 active torsions:
REMARK  status: ('A' for Active; 'I' for Inactive)
REMARK       I    between atoms: N1_2  and  C2_4 
REMARK    1  A    between atoms: C2_4  and  C3_6 
REMARK    2  A    between atoms: C4_11  and  C5_12 
REMARK    3  A    between atoms: C11_18  and  N4_19 
REMARK    4  A    between atoms: C19_28  and  C20_29 
REMARK       I    between atoms: C20_29  and  N5_31 
REMARK    5  A    between atoms: N5_31  and  C21_33 
REMARK    6  A    between atoms: C21_33  and  C22_34 
REMARK    7  A    between atoms: C22_34  and  C24_36 
ROOT
HETATM    1  C3  UNL     1      16.509  23.525  18.617  1.00  0.00     0.133 A 
HETATM    2  N2  UNL     1      17.011  24.594  19.249  1.00  0.00    -0.294 N 
ATOM      3  H2  UNL     1      16.750  24.902  20.186  1.00  0.00     0.187 HD
HETATM    4  N3  UNL     1      17.870  25.168  18.492  1.00  0.00    -0.302 N 
ATOM      5  H3  UNL     1      18.385  26.007  18.760  1.00  0.00     0.186 HD
HETATM    6  C4  UNL     1      18.023  24.540  17.286  1.00  0.00     0.052 A 
HETATM    7  C19 UNL     1      17.142  23.492  17.384  1.00  0.00     0.090 A 
ENDROOT
BRANCH   6   8
HETATM    8  C5  UNL     1      18.961  24.987  16.253  1.00  0.00     0.006 C 
HETATM    9  C6  UNL     1      18.310  25.254  14.913  1.00  0.00     0.020 C 
HETATM   10  C7  UNL     1      19.359  25.870  14.001  1.00  0.00    -0.013 C 
HETATM   11  C8  UNL     1      19.725  27.262  14.477  1.00  0.00     0.011 C 
HETATM   12  C17 UNL     1      20.597  25.025  13.885  1.00  0.00     0.011 C 
HETATM   13  C9  UNL     1      20.368  27.057  15.847  1.00  0.00     0.010 C 
HETATM   14  C10 UNL     1      19.373  26.420  16.714  1.00  0.00     0.022 C 
HETATM   15  C11 UNL     1      21.628  26.247  15.678  1.00  0.00     0.087 C 
HETATM   16  C16 UNL     1      21.266  24.880  15.275  1.00  0.00     0.010 C 
HETATM   17  C18 UNL     1      20.196  24.184  16.093  1.00  0.00     0.022 C 
BRANCH  15  18
HETATM   18  N4  UNL     1      22.546  26.498  16.680  1.00  0.00    -0.406 N 
HETATM   19  C12 UNL     1      22.536  25.884  17.932  1.00  0.00     0.127 C 
HETATM   20  C13 UNL     1      23.907  25.919  18.630  1.00  0.00     0.093 C 
HETATM   21  S1  UNL     1      25.111  26.177  17.263  1.00  0.00    -0.166 SA
HETATM   22  C14 UNL     1      24.627  27.807  16.561  1.00  0.00     0.093 C 
HETATM   23  C15 UNL     1      23.111  27.823  16.634  1.00  0.00     0.127 C 
ENDBRANCH  15  18
ENDBRANCH   6   8
BRANCH   7  24
HETATM   24  C20 UNL     1      16.803  22.546  16.318  1.00  0.00     0.259 C 
HETATM   25  O2  UNL     1      17.571  21.602  16.123  1.00  0.00    -0.267 OA
HETATM   26  N5  UNL     1      15.638  22.705  15.535  1.00  0.00    -0.336 N 
ATOM     27  H5  UNL     1      15.094  23.526  15.801  1.00  0.00     0.168 HD
BRANCH  26  28
HETATM   28  C21 UNL     1      15.062  21.995  14.482  1.00  0.00     0.070 C 
BRANCH  28  29
HETATM   29  C22 UNL     1      13.606  21.864  14.444  1.00  0.00     0.051 C 
HETATM   30  C23 UNL     1      12.792  22.780  13.624  1.00  0.00     0.017 C 
BRANCH  29  31
HETATM   31  C24 UNL     1      13.243  20.431  14.024  1.00  0.00     0.194 C 
HETATM   32  C25 UNL     1      11.753  20.246  13.925  1.00  0.00     0.034 C 
HETATM   33  C26 UNL     1      11.517  18.732  13.838  1.00  0.00     0.004 C 
HETATM   34  C27 UNL     1      12.306  18.136  12.714  1.00  0.00     0.027 C 
HETATM   35  C28 UNL     1      13.743  18.593  12.687  1.00  0.00     0.232 C 
HETATM   36  N6  UNL     1      13.851  20.039  12.792  1.00  0.00    -0.070 N 
ATOM     37  H62 UNL     1      13.461  20.526  11.985  1.00  0.00     0.277 HD
ATOM     38  H61 UNL     1      14.810  20.373  12.699  1.00  0.00     0.277 HD
ENDBRANCH  29  31
ENDBRANCH  28  29
ENDBRANCH  26  28
ENDBRANCH   7  24
BRANCH   1  39
HETATM   39  C2  UNL     1      15.510  22.588  19.173  1.00  0.00     0.270 C 
HETATM   40  N1  UNL     1      16.016  21.382  19.751  1.00  0.00    -0.360 N 
HETATM   41  C1  UNL     1      15.114  20.390  20.327  1.00  0.00     0.149 C 
ATOM     42  H1  UNL     1      17.022  21.211  19.760  1.00  0.00     0.162 HD
HETATM   43  O1  UNL     1      14.285  22.772  19.174  1.00  0.00    -0.266 OA
ENDBRANCH   1  39
TORSDOF 7
ENDMDL
MODEL 4
REMARK VINA RESULT: -9.332090553      3.344      8.569
REMARK  7 active torsions:
REMARK  status: ('A' for Active; 'I' for Inactive)
REMARK       I    between atoms: N1_2  and  C2_4 
REMARK    1  A    between atoms: C2_4  and  C3_6 
REMARK    2  A    between atoms: C4_11  and  C5_12 
REMARK    3  A    between atoms: C11_18  and  N4_19 
REMARK    4  A    between atoms: C19_28  and  C20_29 
REMARK       I    between atoms: C20_29  and  N5_31 
REMARK    5  A    between atoms: N5_31  and  C21_33 
REMARK    6  A    between atoms: C21_33  and  C22_34 
REMARK    7  A    between atoms: C22_34  and  C24_36 
ROOT
HETATM    1  C3  UNL     1      19.600  24.734  19.458  1.00  0.00     0.133 A 
HETATM    2  N2  UNL     1      18.731  24.683  20.476  1.00  0.00    -0.294 N 
ATOM      3  H2  UNL     1      18.912  25.012  21.423  1.00  0.00     0.187 HD
HETATM    4  N3  UNL     1      17.637  24.155  20.070  1.00  0.00    -0.302 N 
ATOM      5  H3  UNL     1      16.825  24.011  20.671  1.00  0.00     0.186 HD
HETATM    6  C4  UNL     1      17.670  23.805  18.749  1.00  0.00     0.052 A 
HETATM    7  C19 UNL     1      18.936  24.181  18.374  1.00  0.00     0.090 A 
ENDROOT
BRANCH   6   8
HETATM    8  C5  UNL     1      16.536  23.205  18.041  1.00  0.00     0.006 C 
HETATM    9  C6  UNL     1      16.382  23.689  16.615  1.00  0.00     0.020 C 
HETATM   10  C7  UNL     1      15.289  22.861  15.958  1.00  0.00    -0.013 C 
HETATM   11  C8  UNL     1      15.744  21.427  15.776  1.00  0.00     0.011 C 
HETATM   12  C17 UNL     1      13.995  22.896  16.724  1.00  0.00     0.011 C 
HETATM   13  C9  UNL     1      15.942  20.890  17.192  1.00  0.00     0.010 C 
HETATM   14  C10 UNL     1      16.963  21.716  17.842  1.00  0.00     0.022 C 
HETATM   15  C11 UNL     1      14.614  20.898  17.906  1.00  0.00     0.087 C 
HETATM   16  C16 UNL     1      14.204  22.291  18.135  1.00  0.00     0.010 C 
HETATM   17  C18 UNL     1      15.234  23.218  18.749  1.00  0.00     0.022 C 
BRANCH  15  18
HETATM   18  N4  UNL     1      14.553  19.942  18.902  1.00  0.00    -0.406 N 
HETATM   19  C12 UNL     1      14.953  20.150  20.221  1.00  0.00     0.127 C 
HETATM   20  C13 UNL     1      14.306  19.162  21.208  1.00  0.00     0.093 C 
HETATM   21  S1  UNL     1      12.807  18.554  20.333  1.00  0.00    -0.166 SA
HETATM   22  C14 UNL     1      13.485  17.726  18.836  1.00  0.00     0.093 C 
HETATM   23  C15 UNL     1      14.661  18.589  18.417  1.00  0.00     0.127 C 
ENDBRANCH  15  18
ENDBRANCH   6   8
BRANCH   7  24
HETATM   24  C20 UNL     1      19.563  23.929  17.074  1.00  0.00     0.259 C 
HETATM   25  O2  UNL     1      20.038  22.810  16.872  1.00  0.00    -0.267 OA
HETATM   26  N5  UNL     1      19.627  24.933  16.081  1.00  0.00    -0.336 N 
ATOM     27  H5  UNL     1      19.198  25.809  16.378  1.00  0.00     0.168 HD
BRANCH  26  28
HETATM   28  C21 UNL     1      20.142  24.997  14.787  1.00  0.00     0.070 C 
BRANCH  28  29
HETATM   29  C22 UNL     1      20.590  26.293  14.279  1.00  0.00     0.051 C 
HETATM   30  C23 UNL     1      19.676  27.450  14.267  1.00  0.00     0.017 C 
BRANCH  29  31
HETATM   31  C24 UNL     1      21.856  26.719  15.040  1.00  0.00     0.194 C 
HETATM   32  C25 UNL     1      21.534  27.681  16.151  1.00  0.00     0.034 C 
HETATM   33  C26 UNL     1      22.874  28.279  16.598  1.00  0.00     0.004 C 
HETATM   34  C27 UNL     1      23.844  27.196  16.959  1.00  0.00     0.027 C 
HETATM   35  C28 UNL     1      23.910  26.092  15.935  1.00  0.00     0.232 C 
HETATM   36  N6  UNL     1      22.586  25.612  15.571  1.00  0.00    -0.070 N 
ATOM     37  H62 UNL     1      22.104  25.153  16.345  1.00  0.00     0.277 HD
ATOM     38  H61 UNL     1      22.614  24.814  14.938  1.00  0.00     0.277 HD
ENDBRANCH  29  31
ENDBRANCH  28  29
ENDBRANCH  26  28
ENDBRANCH   7  24
BRANCH   1  39
HETATM   39  C2  UNL     1      20.964  25.299  19.520  1.00  0.00     0.270 C 
HETATM   40  N1  UNL     1      22.037  24.367  19.684  1.00  0.00    -0.360 N 
HETATM   41  C1  UNL     1      23.421  24.822  19.758  1.00  0.00     0.149 C 
ATOM     42  H1  UNL     1      21.831  23.370  19.750  1.00  0.00     0.162 HD
HETATM   43  O1  UNL     1      21.240  26.504  19.443  1.00  0.00    -0.266 OA
ENDBRANCH   1  39
TORSDOF 7
ENDMDL
MODEL 5
REMARK VINA RESULT: -9.238249055      2.450      5.679
REMARK  7 active torsions:
REMARK  status: ('A' for Active; 'I' for Inactive)
REMARK       I    between atoms: N1_2  and  C2_4 
REMARK    1  A    between atoms: C2_4  and  C3_6 
REMARK    2  A    between atoms: C4_11  and  C5_12 
REMARK    3  A    between atoms: C11_18  and  N4_19 
REMARK    4  A    between atoms: C19_28  and  C20_29 
REMARK       I    between atoms: C20_29  and  N5_31 
REMARK    5  A    between atoms: N5_31  and  C21_33 
REMARK    6  A    between atoms: C21_33  and  C22_34 
REMARK    7  A    between atoms: C22_34  and  C24_36 
ROOT
HETATM    1  C3  UNL     1      13.745  20.818  14.557  1.00  0.00     0.133 A 
HETATM    2  N2  UNL     1      14.830  21.194  13.868  1.00  0.00    -0.294 N 
ATOM      3  H2  UNL     1      14.943  21.119  12.857  1.00  0.00     0.187 HD
HETATM    4  N3  UNL     1      15.704  21.662  14.679  1.00  0.00    -0.302 N 
ATOM      5  H3  UNL     1      16.615  22.012  14.384  1.00  0.00     0.186 HD
HETATM    6  C4  UNL     1      15.287  21.644  15.982  1.00  0.00     0.052 A 
HETATM    7  C19 UNL     1      14.031  21.097  15.884  1.00  0.00     0.090 A 
ENDROOT
BRANCH   6   8
HETATM    8  C5  UNL     1      16.093  22.145  17.097  1.00  0.00     0.006 C 
HETATM    9  C6  UNL     1      16.182  21.187  18.265  1.00  0.00     0.020 C 
HETATM   10  C7  UNL     1      17.180  21.757  19.261  1.00  0.00    -0.013 C 
HETATM   11  C8  UNL     1      18.583  21.718  18.689  1.00  0.00     0.011 C 
HETATM   12  C17 UNL     1      16.838  23.158  19.687  1.00  0.00     0.011 C 
HETATM   13  C9  UNL     1      18.547  22.654  17.483  1.00  0.00     0.010 C 
HETATM   14  C10 UNL     1      17.552  22.131  16.543  1.00  0.00     0.022 C 
HETATM   15  C11 UNL     1      18.250  24.052  17.961  1.00  0.00     0.087 C 
HETATM   16  C16 UNL     1      16.867  24.102  18.459  1.00  0.00     0.010 C 
HETATM   17  C18 UNL     1      15.793  23.521  17.562  1.00  0.00     0.022 C 
BRANCH  15  18
HETATM   18  N4  UNL     1      18.757  25.013  17.107  1.00  0.00    -0.406 N 
HETATM   19  C12 UNL     1      19.693  25.980  17.473  1.00  0.00     0.127 C 
HETATM   20  C13 UNL     1      20.469  26.550  16.273  1.00  0.00     0.093 C 
HETATM   21  S1  UNL     1      20.294  25.270  14.963  1.00  0.00    -0.166 SA
HETATM   22  C14 UNL     1      18.479  25.197  14.668  1.00  0.00     0.093 C 
HETATM   23  C15 UNL     1      17.859  25.379  16.041  1.00  0.00     0.127 C 
ENDBRANCH  15  18
ENDBRANCH   6   8
BRANCH   7  24
HETATM   24  C20 UNL     1      13.159  20.732  17.002  1.00  0.00     0.259 C 
HETATM   25  O2  UNL     1      13.526  21.031  18.140  1.00  0.00    -0.267 OA
HETATM   26  N5  UNL     1      11.935  20.057  16.791  1.00  0.00    -0.336 N 
ATOM     27  H5  UNL     1      11.754  19.870  15.805  1.00  0.00     0.168 HD
BRANCH  26  28
HETATM   28  C21 UNL     1      10.920  19.589  17.624  1.00  0.00     0.070 C 
BRANCH  28  29
HETATM   29  C22 UNL     1      11.090  18.285  18.265  1.00  0.00     0.051 C 
HETATM   30  C23 UNL     1      11.085  17.049  17.461  1.00  0.00     0.017 C 
BRANCH  29  31
HETATM   31  C24 UNL     1      12.392  18.294  19.080  1.00  0.00     0.194 C 
HETATM   32  C25 UNL     1      12.124  18.118  20.550  1.00  0.00     0.034 C 
HETATM   33  C26 UNL     1      13.431  18.479  21.269  1.00  0.00     0.004 C 
HETATM   34  C27 UNL     1      14.572  17.671  20.731  1.00  0.00     0.027 C 
HETATM   35  C28 UNL     1      14.621  17.640  19.225  1.00  0.00     0.232 C 
HETATM   36  N6  UNL     1      13.328  17.305  18.649  1.00  0.00    -0.070 N 
ATOM     37  H62 UNL     1      13.030  16.354  18.870  1.00  0.00     0.277 HD
ATOM     38  H61 UNL     1      13.360  17.204  17.635  1.00  0.00     0.277 HD
ENDBRANCH  29  31
ENDBRANCH  28  29
ENDBRANCH  26  28
ENDBRANCH   7  24
BRANCH   1  39
HETATM   39  C2  UNL     1      12.510  20.253  13.973  1.00  0.00     0.270 C 
HETATM   40  N1  UNL     1      12.594  18.919  13.465  1.00  0.00    -0.360 N 
HETATM   41  C1  UNL     1      11.432  18.269  12.867  1.00  0.00     0.149 C 
ATOM     42  H1  UNL     1      13.479  18.414  13.520  1.00  0.00     0.162 HD
HETATM   43  O1  UNL     1      11.424  20.845  13.894  1.00  0.00    -0.266 OA
ENDBRANCH   1  39
TORSDOF 7
ENDMDL
