MODEL 1
REMARK VINA RESULT: -10.821014267      0.000      0.000
REMARK  10 active torsions:
REMARK  status: ('A' for Active; 'I' for Inactive)
REMARK    1  A    between atoms: C14_20  and  C15_21 
REMARK    2  A    between atoms: C16_22  and  C17_23 
REMARK    3  A    between atoms: C17_23  and  O3_24 
REMARK    4  A    between atoms: N3_27  and  C19_28 
REMARK    5  A    between atoms: C19_28  and  C20_29 
REMARK    6  A    between atoms: C20_29  and  C21_30 
REMARK    7  A    between atoms: C21_30  and  C22_31 
REMARK    8  A    between atoms: C22_31  and  C23_32 
REMARK    9  A    between atoms: C23_32  and  C24_33 
REMARK   10  A    between atoms: N5_39  and  C28_42 
ROOT
HETATM    1  C15 UNL     1      15.406  23.206  14.651  1.00  0.00     0.028 A 
HETATM    2  C16 UNL     1      15.784  23.419  13.358  1.00  0.00    -0.006 A 
HETATM    3  C18 UNL     1      16.995  24.055  13.374  1.00  0.00     0.102 A 
HETATM    4  N3  UNL     1      17.372  24.242  14.641  1.00  0.00    -0.342 N 
HETATM    5  C25 UNL     1      16.487  23.772  15.512  1.00  0.00     0.124 A 
HETATM    6  N4  UNL     1      16.284  23.714  16.846  1.00  0.00    -0.267 N 
HETATM    7  C26 UNL     1      15.971  22.548  17.725  1.00  0.00     0.267 C 
HETATM    8  N5  UNL     1      14.720  23.347  17.345  1.00  0.00    -0.304 N 
HETATM    9  C27 UNL     1      15.595  24.401  17.928  1.00  0.00     0.329 C 
HETATM   10  O6  UNL     1      15.595  25.273  18.809  1.00  0.00    -0.246 OA
ENDROOT
BRANCH   4  11
HETATM   11  C19 UNL     1      18.627  24.888  15.082  1.00  0.00     0.130 C 
BRANCH  11  12
HETATM   12  C20 UNL     1      19.445  25.284  13.841  1.00  0.00     0.020 C 
BRANCH  12  13
HETATM   13  C21 UNL     1      20.837  24.863  14.135  1.00  0.00     0.002 C 
BRANCH  13  14
HETATM   14  C22 UNL     1      21.655  25.539  15.139  1.00  0.00     0.010 C 
BRANCH  14  15
HETATM   15  C23 UNL     1      21.966  26.971  15.042  1.00  0.00     0.113 C 
BRANCH  15  16
HETATM   16  C24 UNL     1      21.087  27.897  15.757  1.00  0.00     0.172 C 
HETATM   17  O4  UNL     1      20.179  28.591  15.245  1.00  0.00    -0.648 OA
HETATM   18  O5  UNL     1      21.243  28.054  17.163  1.00  0.00    -0.648 OA
ENDBRANCH  15  16
ENDBRANCH  14  15
ENDBRANCH  13  14
ENDBRANCH  12  13
ENDBRANCH  11  12
ENDBRANCH   4  11
BRANCH   2  19
HETATM   19  C17 UNL     1      14.974  23.006  12.181  1.00  0.00     0.205 C 
BRANCH  19  20
HETATM   20  O3  UNL     1      15.466  21.788  11.713  1.00  0.00    -0.396 OA
ATOM     21  H3  UNL     1      15.218  21.695  10.801  1.00  0.00     0.209 HD
ENDBRANCH  19  20
ENDBRANCH   2  19
BRANCH   1  22
HETATM   22  C14 UNL     1      14.269  22.501  15.162  1.00  0.00     0.195 C 
HETATM   23  O2  UNL     1      14.332  21.224  15.649  1.00  0.00    -0.336 OA
HETATM   24  C12 UNL     1      12.987  20.882  15.896  1.00  0.00     0.108 A 
HETATM   25  C11 UNL     1      12.224  21.498  14.890  1.00  0.00     0.073 A 
HETATM   26  C13 UNL     1      12.295  20.139  16.831  1.00  0.00     0.045 A 
HETATM   27  N2  UNL     1      10.886  21.386  14.821  1.00  0.00    -0.321 N 
HETATM   28  C28 UNL     1      13.195  22.174  14.037  1.00  0.00     0.177 C 
HETATM   29  C10 UNL     1      10.243  20.674  15.723  1.00  0.00     0.273 A 
ATOM     30  H2  UNL     1      10.371  21.850  14.072  1.00  0.00     0.169 HD
HETATM   31  C9  UNL     1      10.902  20.028  16.753  1.00  0.00     0.115 A 
HETATM   32  O1  UNL     1       8.966  20.535  15.701  1.00  0.00    -0.266 OA
HETATM   33  N1  UNL     1      10.459  19.270  17.764  1.00  0.00    -0.350 N 
HETATM   34  C7  UNL     1      11.497  18.870  18.514  1.00  0.00     0.045 A 
ATOM     35  H1  UNL     1       9.482  19.033  17.937  1.00  0.00     0.166 HD
HETATM   36  C6  UNL     1      12.667  19.408  17.943  1.00  0.00     0.012 A 
HETATM   37  C8  UNL     1      11.565  18.090  19.648  1.00  0.00     0.037 A 
HETATM   38  C4  UNL     1      13.882  19.156  18.511  1.00  0.00    -0.048 A 
HETATM   39  C3  UNL     1      13.934  18.355  19.671  1.00  0.00     0.014 A 
HETATM   40  C5  UNL     1      15.146  19.672  17.964  1.00  0.00     0.049 C 
HETATM   41  C2  UNL     1      12.777  17.845  20.206  1.00  0.00    -0.059 A 
HETATM   42  C1  UNL     1      12.832  17.000  21.430  1.00  0.00     0.048 C 
ENDBRANCH   1  22
TORSDOF 10
ENDMDL
MODEL 2
REMARK VINA RESULT: -9.937826877      1.800      2.348
REMARK  10 active torsions:
REMARK  status: ('A' for Active; 'I' for Inactive)
REMARK    1  A    between atoms: C14_20  and  C15_21 
REMARK    2  A    between atoms: C16_22  and  C17_23 
REMARK    3  A    between atoms: C17_23  and  O3_24 
REMARK    4  A    between atoms: N3_27  and  C19_28 
REMARK    5  A    between atoms: C19_28  and  C20_29 
REMARK    6  A    between atoms: C20_29  and  C21_30 
REMARK    7  A    between atoms: C21_30  and  C22_31 
REMARK    8  A    between atoms: C22_31  and  C23_32 
REMARK    9  A    between atoms: C23_32  and  C24_33 
REMARK   10  A    between atoms: N5_39  and  C28_42 
ROOT
HETATM    1  C15 UNL     1      15.340  23.199  14.586  1.00  0.00     0.028 A 
HETATM    2  C16 UNL     1      15.696  23.423  13.289  1.00  0.00    -0.006 A 
HETATM    3  C18 UNL     1      16.910  24.054  13.289  1.00  0.00     0.102 A 
HETATM    4  N3  UNL     1      17.310  24.228  14.551  1.00  0.00    -0.342 N 
HETATM    5  C25 UNL     1      16.439  23.752  15.432  1.00  0.00     0.124 A 
HETATM    6  N4  UNL     1      16.260  23.683  16.770  1.00  0.00    -0.267 N 
HETATM    7  C26 UNL     1      15.958  22.510  17.643  1.00  0.00     0.267 C 
HETATM    8  N5  UNL     1      14.703  23.317  17.293  1.00  0.00    -0.304 N 
HETATM    9  C27 UNL     1      15.593  24.363  17.870  1.00  0.00     0.329 C 
HETATM   10  O6  UNL     1      15.612  25.226  18.759  1.00  0.00    -0.246 OA
ENDROOT
BRANCH   4  11
HETATM   11  C19 UNL     1      18.576  24.865  14.974  1.00  0.00     0.130 C 
BRANCH  11  12
HETATM   12  C20 UNL     1      19.364  23.874  15.845  1.00  0.00     0.020 C 
BRANCH  12  13
HETATM   13  C21 UNL     1      20.021  24.700  16.888  1.00  0.00     0.002 C 
BRANCH  13  14
HETATM   14  C22 UNL     1      19.395  24.955  18.183  1.00  0.00     0.010 C 
BRANCH  14  15
HETATM   15  C23 UNL     1      19.772  24.197  19.384  1.00  0.00     0.113 C 
BRANCH  15  16
HETATM   16  C24 UNL     1      18.824  23.191  19.864  1.00  0.00     0.172 C 
HETATM   17  O4  UNL     1      17.869  23.396  20.647  1.00  0.00    -0.648 OA
HETATM   18  O5  UNL     1      18.964  21.843  19.426  1.00  0.00    -0.648 OA
ENDBRANCH  15  16
ENDBRANCH  14  15
ENDBRANCH  13  14
ENDBRANCH  12  13
ENDBRANCH  11  12
ENDBRANCH   4  11
BRANCH   2  19
HETATM   19  C17 UNL     1      14.862  23.024  12.122  1.00  0.00     0.205 C 
BRANCH  19  20
HETATM   20  O3  UNL     1      15.379  21.841  11.597  1.00  0.00    -0.396 OA
ATOM     21  H3  UNL     1      16.299  21.975  11.406  1.00  0.00     0.209 HD
ENDBRANCH  19  20
ENDBRANCH   2  19
BRANCH   1  22
HETATM   22  C14 UNL     1      14.210  22.493  15.110  1.00  0.00     0.195 C 
HETATM   23  O2  UNL     1      14.280  21.219  15.602  1.00  0.00    -0.336 OA
HETATM   24  C12 UNL     1      12.939  20.875  15.863  1.00  0.00     0.108 A 
HETATM   25  C11 UNL     1      12.164  21.485  14.863  1.00  0.00     0.073 A 
HETATM   26  C13 UNL     1      12.257  20.134  16.808  1.00  0.00     0.045 A 
HETATM   27  N2  UNL     1      10.826  21.370  14.807  1.00  0.00    -0.321 N 
HETATM   28  C28 UNL     1      13.125  22.160  13.997  1.00  0.00     0.177 C 
HETATM   29  C10 UNL     1      10.193  20.661  15.718  1.00  0.00     0.273 A 
ATOM     30  H2  UNL     1      10.302  21.831  14.062  1.00  0.00     0.169 HD
HETATM   31  C9  UNL     1      10.864  20.020  16.744  1.00  0.00     0.115 A 
HETATM   32  O1  UNL     1       8.917  20.519  15.709  1.00  0.00    -0.266 OA
HETATM   33  N1  UNL     1      10.432  19.264  17.762  1.00  0.00    -0.350 N 
HETATM   34  C7  UNL     1      11.478  18.870  18.503  1.00  0.00     0.045 A 
ATOM     35  H1  UNL     1       9.457  19.026  17.946  1.00  0.00     0.166 HD
HETATM   36  C6  UNL     1      12.641  19.408  17.919  1.00  0.00     0.012 A 
HETATM   37  C8  UNL     1      11.559  18.094  19.639  1.00  0.00     0.037 A 
HETATM   38  C4  UNL     1      13.863  19.160  18.476  1.00  0.00    -0.048 A 
HETATM   39  C3  UNL     1      13.928  18.364  19.639  1.00  0.00     0.014 A 
HETATM   40  C5  UNL     1      15.120  19.678  17.915  1.00  0.00     0.049 C 
HETATM   41  C2  UNL     1      12.777  17.854  20.187  1.00  0.00    -0.059 A 
HETATM   42  C1  UNL     1      12.846  17.014  21.414  1.00  0.00     0.048 C 
ENDBRANCH   1  22
TORSDOF 10
ENDMDL
MODEL 3
REMARK VINA RESULT: -9.674985971      1.132      1.338
REMARK  10 active torsions:
REMARK  status: ('A' for Active; 'I' for Inactive)
REMARK    1  A    between atoms: C14_20  and  C15_21 
REMARK    2  A    between atoms: C16_22  and  C17_23 
REMARK    3  A    between atoms: C17_23  and  O3_24 
REMARK    4  A    between atoms: N3_27  and  C19_28 
REMARK    5  A    between atoms: C19_28  and  C20_29 
REMARK    6  A    between atoms: C20_29  and  C21_30 
REMARK    7  A    between atoms: C21_30  and  C22_31 
REMARK    8  A    between atoms: C22_31  and  C23_32 
REMARK    9  A    between atoms: C23_32  and  C24_33 
REMARK   10  A    between atoms: N5_39  and  C28_42 
ROOT
HETATM    1  C15 UNL     1      15.290  23.176  14.528  1.00  0.00     0.028 A 
HETATM    2  C16 UNL     1      15.628  23.394  13.225  1.00  0.00    -0.006 A 
HETATM    3  C18 UNL     1      16.842  24.025  13.205  1.00  0.00     0.102 A 
HETATM    4  N3  UNL     1      17.260  24.203  14.460  1.00  0.00    -0.342 N 
HETATM    5  C25 UNL     1      16.401  23.733  15.356  1.00  0.00     0.124 A 
HETATM    6  N4  UNL     1      16.240  23.669  16.697  1.00  0.00    -0.267 N 
HETATM    7  C26 UNL     1      15.950  22.500  17.579  1.00  0.00     0.267 C 
HETATM    8  N5  UNL     1      14.691  23.307  17.243  1.00  0.00    -0.304 N 
HETATM    9  C27 UNL     1      15.589  24.354  17.803  1.00  0.00     0.329 C 
HETATM   10  O6  UNL     1      15.621  25.222  18.688  1.00  0.00    -0.246 OA
ENDROOT
BRANCH   4  11
HETATM   11  C19 UNL     1      18.531  24.842  14.864  1.00  0.00     0.130 C 
BRANCH  11  12
HETATM   12  C20 UNL     1      18.613  26.236  14.220  1.00  0.00     0.020 C 
BRANCH  12  13
HETATM   13  C21 UNL     1      19.840  26.857  14.778  1.00  0.00     0.002 C 
BRANCH  13  14
HETATM   14  C22 UNL     1      20.562  26.269  15.904  1.00  0.00     0.010 C 
BRANCH  14  15
HETATM   15  C23 UNL     1      20.441  26.812  17.264  1.00  0.00     0.113 C 
BRANCH  15  16
HETATM   16  C24 UNL     1      20.251  25.853  18.353  1.00  0.00     0.172 C 
HETATM   17  O4  UNL     1      21.102  25.544  19.216  1.00  0.00    -0.648 OA
HETATM   18  O5  UNL     1      18.998  25.188  18.478  1.00  0.00    -0.648 OA
ENDBRANCH  15  16
ENDBRANCH  14  15
ENDBRANCH  13  14
ENDBRANCH  12  13
ENDBRANCH  11  12
ENDBRANCH   4  11
BRANCH   2  19
HETATM   19  C17 UNL     1      14.778  22.991  12.072  1.00  0.00     0.205 C 
BRANCH  19  20
HETATM   20  O3  UNL     1      15.285  21.803  11.546  1.00  0.00    -0.396 OA
ATOM     21  H3  UNL     1      14.567  21.190  11.446  1.00  0.00     0.209 HD
ENDBRANCH  19  20
ENDBRANCH   2  19
BRANCH   1  22
HETATM   22  C14 UNL     1      14.166  22.473  15.071  1.00  0.00     0.195 C 
HETATM   23  O2  UNL     1      14.244  21.201  15.568  1.00  0.00    -0.336 OA
HETATM   24  C12 UNL     1      12.906  20.859  15.850  1.00  0.00     0.108 A 
HETATM   25  C11 UNL     1      12.118  21.464  14.856  1.00  0.00     0.073 A 
HETATM   26  C13 UNL     1      12.237  20.124  16.808  1.00  0.00     0.045 A 
HETATM   27  N2  UNL     1      10.779  21.349  14.819  1.00  0.00    -0.321 N 
HETATM   28  C28 UNL     1      13.067  22.134  13.975  1.00  0.00     0.177 C 
HETATM   29  C10 UNL     1      10.159  20.644  15.743  1.00  0.00     0.273 A 
ATOM     30  H2  UNL     1      10.246  21.805  14.079  1.00  0.00     0.169 HD
HETATM   31  C9  UNL     1      10.843  20.009  16.762  1.00  0.00     0.115 A 
HETATM   32  O1  UNL     1       8.882  20.503  15.751  1.00  0.00    -0.266 OA
HETATM   33  N1  UNL     1      10.424  19.259  17.791  1.00  0.00    -0.350 N 
HETATM   34  C7  UNL     1      11.481  18.869  18.520  1.00  0.00     0.045 A 
ATOM     35  H1  UNL     1       9.452  19.022  17.989  1.00  0.00     0.166 HD
HETATM   36  C6  UNL     1      12.636  19.403  17.917  1.00  0.00     0.012 A 
HETATM   37  C8  UNL     1      11.577  18.099  19.659  1.00  0.00     0.037 A 
HETATM   38  C4  UNL     1      13.865  19.159  18.460  1.00  0.00    -0.048 A 
HETATM   39  C3  UNL     1      13.945  18.369  19.625  1.00  0.00     0.014 A 
HETATM   40  C5  UNL     1      15.114  19.673  17.879  1.00  0.00     0.049 C 
HETATM   41  C2  UNL     1      12.802  17.862  20.191  1.00  0.00    -0.059 A 
HETATM   42  C1  UNL     1      12.887  17.029  21.422  1.00  0.00     0.048 C 
ENDBRANCH   1  22
TORSDOF 10
ENDMDL
MODEL 4
REMARK VINA RESULT: -9.052695979      2.897     10.336
REMARK  10 active torsions:
REMARK  status: ('A' for Active; 'I' for Inactive)
REMARK    1  A    between atoms: C14_20  and  C15_21 
REMARK    2  A    between atoms: C16_22  and  C17_23 
REMARK    3  A    between atoms: C17_23  and  O3_24 
REMARK    4  A    between atoms: N3_27  and  C19_28 
REMARK    5  A    between atoms: C19_28  and  C20_29 
REMARK    6  A    between atoms: C20_29  and  C21_30 
REMARK    7  A    between atoms: C21_30  and  C22_31 
REMARK    8  A    between atoms: C22_31  and  C23_32 
REMARK    9  A    between atoms: C23_32  and  C24_33 
REMARK   10  A    between atoms: N5_39  and  C28_42 
ROOT
HETATM    1  C15 UNL     1      17.501  23.292  18.709  1.00  0.00     0.028 A 
HETATM    2  C16 UNL     1      17.460  23.105  20.059  1.00  0.00    -0.006 A 
HETATM    3  C18 UNL     1      16.606  22.066  20.314  1.00  0.00     0.102 A 
HETATM    4  N3  UNL     1      16.119  21.610  19.157  1.00  0.00    -0.342 N 
HETATM    5  C25 UNL     1      16.585  22.276  18.108  1.00  0.00     0.124 A 
HETATM    6  N4  UNL     1      16.435  22.322  16.766  1.00  0.00    -0.267 N 
HETATM    7  C26 UNL     1      17.458  22.282  15.679  1.00  0.00     0.267 C 
HETATM    8  N5  UNL     1      17.003  23.709  16.002  1.00  0.00    -0.304 N 
HETATM    9  C27 UNL     1      15.709  23.029  15.722  1.00  0.00     0.329 C 
HETATM   10  O6  UNL     1      14.707  23.127  14.999  1.00  0.00    -0.246 OA
ENDROOT
BRANCH   4  11
HETATM   11  C19 UNL     1      15.169  20.486  19.005  1.00  0.00     0.130 C 
BRANCH  11  12
HETATM   12  C20 UNL     1      14.759  19.990  20.401  1.00  0.00     0.020 C 
BRANCH  12  13
HETATM   13  C21 UNL     1      14.490  18.539  20.240  1.00  0.00     0.002 C 
BRANCH  13  14
HETATM   14  C22 UNL     1      14.031  17.972  18.975  1.00  0.00     0.010 C 
BRANCH  14  15
HETATM   15  C23 UNL     1      12.651  17.501  18.797  1.00  0.00     0.113 C 
BRANCH  15  16
HETATM   16  C24 UNL     1      11.578  18.384  19.258  1.00  0.00     0.172 C 
HETATM   17  O4  UNL     1      11.130  18.447  20.424  1.00  0.00    -0.648 OA
HETATM   18  O5  UNL     1      10.961  19.267  18.327  1.00  0.00    -0.648 OA
ENDBRANCH  15  16
ENDBRANCH  14  15
ENDBRANCH  13  14
ENDBRANCH  12  13
ENDBRANCH  11  12
ENDBRANCH   4  11
BRANCH   2  19
HETATM   19  C17 UNL     1      18.233  23.924  21.031  1.00  0.00     0.205 C 
BRANCH  19  20
HETATM   20  O3  UNL     1      17.742  25.229  20.995  1.00  0.00    -0.396 OA
ATOM     21  H3  UNL     1      17.947  25.648  21.822  1.00  0.00     0.209 HD
ENDBRANCH  19  20
ENDBRANCH   2  19
BRANCH   1  22
HETATM   22  C14 UNL     1      18.309  24.189  17.939  1.00  0.00     0.195 C 
HETATM   23  O2  UNL     1      19.241  25.024  18.491  1.00  0.00    -0.336 OA
HETATM   24  C12 UNL     1      19.680  25.814  17.410  1.00  0.00     0.108 A 
HETATM   25  C11 UNL     1      18.564  26.022  16.583  1.00  0.00     0.073 A 
HETATM   26  C13 UNL     1      20.868  26.387  17.001  1.00  0.00     0.045 A 
HETATM   27  N2  UNL     1      18.623  26.737  15.446  1.00  0.00    -0.321 N 
HETATM   28  C28 UNL     1      17.460  25.349  17.259  1.00  0.00     0.177 C 
HETATM   29  C10 UNL     1      19.765  27.275  15.072  1.00  0.00     0.273 A 
ATOM     30  H2  UNL     1      17.786  26.863  14.876  1.00  0.00     0.169 HD
HETATM   31  C9  UNL     1      20.922  27.130  15.816  1.00  0.00     0.115 A 
HETATM   32  O1  UNL     1      19.874  27.968  13.996  1.00  0.00    -0.266 OA
HETATM   33  N1  UNL     1      22.170  27.577  15.627  1.00  0.00    -0.350 N 
HETATM   34  C7  UNL     1      22.952  27.163  16.636  1.00  0.00     0.045 A 
ATOM     35  H1  UNL     1      22.479  28.144  14.837  1.00  0.00     0.166 HD
HETATM   36  C6  UNL     1      22.150  26.411  17.516  1.00  0.00     0.012 A 
HETATM   37  C8  UNL     1      24.291  27.354  16.898  1.00  0.00     0.037 A 
HETATM   38  C4  UNL     1      22.698  25.864  18.641  1.00  0.00    -0.048 A 
HETATM   39  C3  UNL     1      24.070  26.069  18.894  1.00  0.00     0.014 A 
HETATM   40  C5  UNL     1      21.920  25.078  19.610  1.00  0.00     0.049 C 
HETATM   41  C2  UNL     1      24.827  26.807  18.018  1.00  0.00    -0.059 A 
HETATM   42  C1  UNL     1      26.275  27.023  18.286  1.00  0.00     0.048 C 
ENDBRANCH   1  22
TORSDOF 10
ENDMDL
MODEL 5
REMARK VINA RESULT: -9.006236874      1.269      1.489
REMARK  10 active torsions:
REMARK  status: ('A' for Active; 'I' for Inactive)
REMARK    1  A    between atoms: C14_20  and  C15_21 
REMARK    2  A    between atoms: C16_22  and  C17_23 
REMARK    3  A    between atoms: C17_23  and  O3_24 
REMARK    4  A    between atoms: N3_27  and  C19_28 
REMARK    5  A    between atoms: C19_28  and  C20_29 
REMARK    6  A    between atoms: C20_29  and  C21_30 
REMARK    7  A    between atoms: C21_30  and  C22_31 
REMARK    8  A    between atoms: C22_31  and  C23_32 
REMARK    9  A    between atoms: C23_32  and  C24_33 
REMARK   10  A    between atoms: N5_39  and  C28_42 
ROOT
HETATM    1  C15 UNL     1      15.872  23.703  14.709  1.00  0.00     0.028 A 
HETATM    2  C16 UNL     1      16.333  23.994  13.459  1.00  0.00    -0.006 A 
HETATM    3  C18 UNL     1      17.540  24.625  13.593  1.00  0.00     0.102 A 
HETATM    4  N3  UNL     1      17.834  24.731  14.891  1.00  0.00    -0.342 N 
HETATM    5  C25 UNL     1      16.894  24.211  15.672  1.00  0.00     0.124 A 
HETATM    6  N4  UNL     1      16.605  24.071  16.984  1.00  0.00    -0.267 N 
HETATM    7  C26 UNL     1      16.236  22.854  17.766  1.00  0.00     0.267 C 
HETATM    8  N5  UNL     1      15.012  23.679  17.356  1.00  0.00    -0.304 N 
HETATM    9  C27 UNL     1      15.846  24.692  18.059  1.00  0.00     0.329 C 
HETATM   10  O6  UNL     1      15.788  25.508  18.991  1.00  0.00    -0.246 OA
ENDROOT
BRANCH   4  11
HETATM   11  C19 UNL     1      19.057  25.345  15.451  1.00  0.00     0.130 C 
BRANCH  11  12
HETATM   12  C20 UNL     1      19.322  26.675  14.727  1.00  0.00     0.020 C 
BRANCH  12  13
HETATM   13  C21 UNL     1      20.397  27.340  15.504  1.00  0.00     0.002 C 
BRANCH  13  14
HETATM   14  C22 UNL     1      21.792  27.322  15.070  1.00  0.00     0.010 C 
BRANCH  14  15
HETATM   15  C23 UNL     1      22.739  26.312  15.563  1.00  0.00     0.113 C 
BRANCH  15  16
HETATM   16  C24 UNL     1      24.063  26.781  15.973  1.00  0.00     0.172 C 
HETATM   17  O4  UNL     1      24.381  27.969  16.208  1.00  0.00    -0.648 OA
HETATM   18  O5  UNL     1      25.115  25.834  16.131  1.00  0.00    -0.648 OA
ENDBRANCH  15  16
ENDBRANCH  14  15
ENDBRANCH  13  14
ENDBRANCH  12  13
ENDBRANCH  11  12
ENDBRANCH   4  11
BRANCH   2  19
HETATM   19  C17 UNL     1      15.601  23.658  12.208  1.00  0.00     0.205 C 
BRANCH  19  20
HETATM   20  O3  UNL     1      15.810  24.684  11.287  1.00  0.00    -0.396 OA
ATOM     21  H3  UNL     1      16.068  24.295  10.460  1.00  0.00     0.209 HD
ENDBRANCH  19  20
ENDBRANCH   2  19
BRANCH   1  22
HETATM   22  C14 UNL     1      14.704  22.971  15.100  1.00  0.00     0.195 C 
HETATM   23  O2  UNL     1      14.743  21.683  15.560  1.00  0.00    -0.336 OA
HETATM   24  C12 UNL     1      13.387  21.319  15.679  1.00  0.00     0.108 A 
HETATM   25  C11 UNL     1      12.706  21.950  14.624  1.00  0.00     0.073 A 
HETATM   26  C13 UNL     1      12.626  20.544  16.532  1.00  0.00     0.045 A 
HETATM   27  N2  UNL     1      11.381  21.823  14.434  1.00  0.00    -0.321 N 
HETATM   28  C28 UNL     1      13.739  22.659  13.877  1.00  0.00     0.177 C 
HETATM   29  C10 UNL     1      10.672  21.081  15.259  1.00  0.00     0.273 A 
ATOM     30  H2  UNL     1      10.928  22.299  13.654  1.00  0.00     0.169 HD
HETATM   31  C9  UNL     1      11.247  20.417  16.327  1.00  0.00     0.115 A 
HETATM   32  O1  UNL     1       9.404  20.927  15.120  1.00  0.00    -0.266 OA
HETATM   33  N1  UNL     1      10.727  19.629  17.277  1.00  0.00    -0.350 N 
HETATM   34  C7  UNL     1      11.701  19.224  18.107  1.00  0.00     0.045 A 
ATOM     35  H1  UNL     1       9.742  19.376  17.357  1.00  0.00     0.166 HD
HETATM   36  C6  UNL     1      12.908  19.790  17.654  1.00  0.00     0.012 A 
HETATM   37  C8  UNL     1      11.680  18.417  19.223  1.00  0.00     0.037 A 
HETATM   38  C4  UNL     1      14.072  19.539  18.322  1.00  0.00    -0.048 A 
HETATM   39  C3  UNL     1      14.034  18.711  19.463  1.00  0.00     0.014 A 
HETATM   40  C5  UNL     1      15.371  20.085  17.902  1.00  0.00     0.049 C 
HETATM   41  C2  UNL     1      12.842  18.174  19.881  1.00  0.00    -0.059 A 
HETATM   42  C1  UNL     1      12.801  17.299  21.085  1.00  0.00     0.048 C 
ENDBRANCH   1  22
TORSDOF 10
ENDMDL
