MODEL 1
REMARK VINA RESULT: -8.253744827      0.000      0.000
REMARK  11 active torsions:
REMARK  status: ('A' for Active; 'I' for Inactive)
REMARK       I    between atoms: C2_2  and  N1_4 
REMARK    1  A    between atoms: N1_4  and  C3_5 
REMARK    2  A    between atoms: N1_4  and  C31_41 
REMARK    3  A    between atoms: C3_5  and  C4_6 
REMARK    4  A    between atoms: C4_6  and  C5_7 
REMARK    5  A    between atoms: C5_7  and  C6_8 
REMARK    6  A    between atoms: C6_8  and  O2_9 
REMARK    7  A    between atoms: C6_8  and  N2_11 
REMARK    8  A    between atoms: N2_11  and  C7_14 
REMARK    9  A    between atoms: C15_23  and  O4_24 
REMARK   10  A    between atoms: C31_41  and  C32_42 
REMARK   11  A    between atoms: C32_42  and  C33_43 
ROOT
HETATM    1  C7  UNL     1      17.839  23.102  19.382  1.00  0.00     0.197 C 
HETATM    2  C8  UNL     1      18.660  23.303  20.607  1.00  0.00     0.039 C 
HETATM    3  C9  UNL     1      19.132  24.618  20.033  1.00  0.00     0.005 C 
HETATM    4  C10 UNL     1      20.660  24.628  20.072  1.00  0.00     0.023 C 
HETATM    5  C11 UNL     1      21.138  24.469  21.474  1.00  0.00     0.174 C 
HETATM    6  O3  UNL     1      22.499  24.449  21.574  1.00  0.00    -0.385 OA
HETATM    7  C12 UNL     1      23.179  24.578  20.368  1.00  0.00     0.131 C 
HETATM    8  C13 UNL     1      24.650  24.538  20.608  1.00  0.00     0.025 C 
HETATM    9  C14 UNL     1      25.408  23.718  19.577  1.00  0.00     0.039 C 
HETATM   10  C15 UNL     1      26.869  23.855  19.897  1.00  0.00     0.118 C 
HETATM   11  C16 UNL     1      27.138  24.312  21.308  1.00  0.00     0.032 C 
HETATM   12  C17 UNL     1      26.543  25.641  21.648  1.00  0.00     0.012 C 
HETATM   13  C18 UNL     1      25.298  25.870  20.778  1.00  0.00    -0.038 C 
HETATM   14  C19 UNL     1      25.776  26.516  19.522  1.00  0.00     0.015 C 
HETATM   15  C20 UNL     1      24.318  26.751  21.524  1.00  0.00     0.010 C 
HETATM   16  C21 UNL     1      23.094  26.992  20.718  1.00  0.00     0.009 C 
HETATM   17  C22 UNL     1      22.713  25.903  19.764  1.00  0.00     0.024 C 
HETATM   18  C23 UNL     1      21.247  25.850  19.455  1.00  0.00    -0.029 C 
HETATM   19  C24 UNL     1      20.558  27.068  20.068  1.00  0.00     0.016 C 
HETATM   20  C25 UNL     1      20.907  25.852  17.996  1.00  0.00    -0.010 C 
HETATM   21  C26 UNL     1      21.907  26.630  17.150  1.00  0.00     0.011 C 
HETATM   22  C27 UNL     1      20.763  24.501  17.397  1.00  0.00     0.006 C 
HETATM   23  C28 UNL     1      19.572  23.721  17.714  1.00  0.00     0.012 C 
HETATM   24  C29 UNL     1      18.592  24.262  18.698  1.00  0.00    -0.011 C 
HETATM   25  C30 UNL     1      17.549  25.203  18.125  1.00  0.00     0.018 C 
ENDROOT
BRANCH   1  26
HETATM   26  N2  UNL     1      18.014  21.848  18.699  1.00  0.00    -0.044 N 
ATOM     27  H22 UNL     1      18.340  21.121  19.336  1.00  0.00     0.280 HD
ATOM     28  H21 UNL     1      18.814  21.878  18.067  1.00  0.00     0.280 HD
BRANCH  26  29
HETATM   29  C6  UNL     1      16.801  21.435  17.998  1.00  0.00     0.319 C 
BRANCH  29  30
HETATM   30  C5  UNL     1      15.574  22.106  18.471  1.00  0.00     0.062 C 
BRANCH  30  31
HETATM   31  C4  UNL     1      14.377  21.264  18.683  1.00  0.00     0.024 C 
BRANCH  31  32
HETATM   32  C3  UNL     1      14.222  20.138  17.732  1.00  0.00     0.126 C 
BRANCH  32  33
HETATM   33  N1  UNL     1      12.834  20.045  17.231  1.00  0.00    -0.352 N 
HETATM   34  C2  UNL     1      12.527  20.518  15.945  1.00  0.00     0.215 C 
HETATM   35  C1  UNL     1      13.586  21.216  15.156  1.00  0.00     0.117 C 
HETATM   36  O1  UNL     1      11.382  20.391  15.400  1.00  0.00    -0.274 OA
BRANCH  33  37
HETATM   37  C31 UNL     1      11.854  19.528  18.118  1.00  0.00     0.136 C 
BRANCH  37  38
HETATM   38  C32 UNL     1      12.142  18.332  18.911  1.00  0.00     0.133 C 
BRANCH  38  39
HETATM   39  C33 UNL     1      12.471  18.362  20.307  1.00  0.00     0.174 C 
HETATM   40  O5  UNL     1      11.695  18.531  21.258  1.00  0.00    -0.648 OA
HETATM   41  O6  UNL     1      13.830  18.187  20.732  1.00  0.00    -0.648 OA
ENDBRANCH  38  39
ENDBRANCH  37  38
ENDBRANCH  33  37
ENDBRANCH  32  33
ENDBRANCH  31  32
ENDBRANCH  30  31
ENDBRANCH  29  30
BRANCH  29  42
HETATM   42  O2  UNL     1      16.965  21.609  16.628  1.00  0.00    -0.370 OA
ATOM     43  H2  UNL     1      17.843  21.912  16.427  1.00  0.00     0.212 HD
ENDBRANCH  29  42
ENDBRANCH  26  29
ENDBRANCH   1  26
BRANCH  10  44
HETATM   44  O4  UNL     1      27.419  22.554  19.800  1.00  0.00    -0.396 OA
ATOM     45  H4  UNL     1      26.692  21.972  19.613  1.00  0.00     0.210 HD
ENDBRANCH  10  44
TORSDOF 11
ENDMDL
MODEL 2
REMARK VINA RESULT: -8.247665207      0.938      2.429
REMARK  11 active torsions:
REMARK  status: ('A' for Active; 'I' for Inactive)
REMARK       I    between atoms: C2_2  and  N1_4 
REMARK    1  A    between atoms: N1_4  and  C3_5 
REMARK    2  A    between atoms: N1_4  and  C31_41 
REMARK    3  A    between atoms: C3_5  and  C4_6 
REMARK    4  A    between atoms: C4_6  and  C5_7 
REMARK    5  A    between atoms: C5_7  and  C6_8 
REMARK    6  A    between atoms: C6_8  and  O2_9 
REMARK    7  A    between atoms: C6_8  and  N2_11 
REMARK    8  A    between atoms: N2_11  and  C7_14 
REMARK    9  A    between atoms: C15_23  and  O4_24 
REMARK   10  A    between atoms: C31_41  and  C32_42 
REMARK   11  A    between atoms: C32_42  and  C33_43 
ROOT
HETATM    1  C7  UNL     1      18.100  22.952  19.529  1.00  0.00     0.197 C 
HETATM    2  C8  UNL     1      18.978  23.093  20.723  1.00  0.00     0.039 C 
HETATM    3  C9  UNL     1      19.306  24.498  20.272  1.00  0.00     0.005 C 
HETATM    4  C10 UNL     1      20.828  24.635  20.229  1.00  0.00     0.023 C 
HETATM    5  C11 UNL     1      21.404  24.371  21.577  1.00  0.00     0.174 C 
HETATM    6  O3  UNL     1      22.766  24.458  21.602  1.00  0.00    -0.385 OA
HETATM    7  C12 UNL     1      23.356  24.772  20.382  1.00  0.00     0.131 C 
HETATM    8  C13 UNL     1      24.838  24.834  20.536  1.00  0.00     0.025 C 
HETATM    9  C14 UNL     1      25.593  24.195  19.383  1.00  0.00     0.039 C 
HETATM   10  C15 UNL     1      27.055  24.423  19.636  1.00  0.00     0.118 C 
HETATM   11  C16 UNL     1      27.375  24.751  21.071  1.00  0.00     0.032 C 
HETATM   12  C17 UNL     1      26.699  25.981  21.587  1.00  0.00     0.012 C 
HETATM   13  C18 UNL     1      25.387  26.192  20.816  1.00  0.00    -0.038 C 
HETATM   14  C19 UNL     1      25.731  27.005  19.615  1.00  0.00     0.015 C 
HETATM   15  C20 UNL     1      24.389  26.902  21.706  1.00  0.00     0.010 C 
HETATM   16  C21 UNL     1      23.101  27.120  20.999  1.00  0.00     0.009 C 
HETATM   17  C22 UNL     1      22.749  26.108  19.953  1.00  0.00     0.024 C 
HETATM   18  C23 UNL     1      21.276  25.961  19.720  1.00  0.00    -0.029 C 
HETATM   19  C24 UNL     1      20.531  27.044  20.499  1.00  0.00     0.016 C 
HETATM   20  C25 UNL     1      20.845  26.087  18.291  1.00  0.00    -0.010 C 
HETATM   21  C26 UNL     1      21.724  27.033  17.482  1.00  0.00     0.011 C 
HETATM   22  C27 UNL     1      20.772  24.799  17.555  1.00  0.00     0.006 C 
HETATM   23  C28 UNL     1      19.670  23.890  17.849  1.00  0.00     0.012 C 
HETATM   24  C29 UNL     1      18.713  24.238  18.938  1.00  0.00    -0.011 C 
HETATM   25  C30 UNL     1      17.565  25.140  18.529  1.00  0.00     0.018 C 
ENDROOT
BRANCH   1  26
HETATM   26  N2  UNL     1      18.331  21.796  18.704  1.00  0.00    -0.044 N 
ATOM     27  H22 UNL     1      18.834  21.071  19.216  1.00  0.00     0.280 HD
ATOM     28  H21 UNL     1      19.022  21.990  17.980  1.00  0.00     0.280 HD
BRANCH  26  29
HETATM   29  C6  UNL     1      17.092  21.280  18.130  1.00  0.00     0.319 C 
BRANCH  29  30
HETATM   30  C5  UNL     1      15.873  21.704  18.847  1.00  0.00     0.062 C 
BRANCH  30  31
HETATM   31  C4  UNL     1      15.067  20.651  19.502  1.00  0.00     0.024 C 
BRANCH  31  32
HETATM   32  C3  UNL     1      14.683  19.517  18.627  1.00  0.00     0.126 C 
BRANCH  32  33
HETATM   33  N1  UNL     1      13.224  19.497  18.386  1.00  0.00    -0.352 N 
HETATM   34  C2  UNL     1      12.399  18.686  19.181  1.00  0.00     0.215 C 
HETATM   35  C1  UNL     1      13.029  17.767  20.178  1.00  0.00     0.117 C 
HETATM   36  O1  UNL     1      11.127  18.681  19.106  1.00  0.00    -0.274 OA
BRANCH  33  37
HETATM   37  C31 UNL     1      12.732  20.269  17.301  1.00  0.00     0.136 C 
BRANCH  37  38
HETATM   38  C32 UNL     1      13.629  20.657  16.211  1.00  0.00     0.133 C 
BRANCH  38  39
HETATM   39  C33 UNL     1      13.661  21.970  15.636  1.00  0.00     0.174 C 
HETATM   40  O5  UNL     1      14.460  22.882  15.889  1.00  0.00    -0.648 OA
HETATM   41  O6  UNL     1      12.691  22.349  14.648  1.00  0.00    -0.648 OA
ENDBRANCH  38  39
ENDBRANCH  37  38
ENDBRANCH  33  37
ENDBRANCH  32  33
ENDBRANCH  31  32
ENDBRANCH  30  31
ENDBRANCH  29  30
BRANCH  29  42
HETATM   42  O2  UNL     1      17.019  21.619  16.783  1.00  0.00    -0.370 OA
ATOM     43  H2  UNL     1      17.888  21.712  16.409  1.00  0.00     0.212 HD
ENDBRANCH  29  42
ENDBRANCH  26  29
ENDBRANCH   1  26
BRANCH  10  44
HETATM   44  O4  UNL     1      27.700  23.192  19.367  1.00  0.00    -0.396 OA
ATOM     45  H4  UNL     1      28.271  23.024  20.107  1.00  0.00     0.210 HD
ENDBRANCH  10  44
TORSDOF 11
ENDMDL
MODEL 3
REMARK VINA RESULT: -8.211357793      1.224      2.196
REMARK  11 active torsions:
REMARK  status: ('A' for Active; 'I' for Inactive)
REMARK       I    between atoms: C2_2  and  N1_4 
REMARK    1  A    between atoms: N1_4  and  C3_5 
REMARK    2  A    between atoms: N1_4  and  C31_41 
REMARK    3  A    between atoms: C3_5  and  C4_6 
REMARK    4  A    between atoms: C4_6  and  C5_7 
REMARK    5  A    between atoms: C5_7  and  C6_8 
REMARK    6  A    between atoms: C6_8  and  O2_9 
REMARK    7  A    between atoms: C6_8  and  N2_11 
REMARK    8  A    between atoms: N2_11  and  C7_14 
REMARK    9  A    between atoms: C15_23  and  O4_24 
REMARK   10  A    between atoms: C31_41  and  C32_42 
REMARK   11  A    between atoms: C32_42  and  C33_43 
ROOT
HETATM    1  C7  UNL     1      17.823  22.961  19.342  1.00  0.00     0.197 C 
HETATM    2  C8  UNL     1      18.661  23.133  20.560  1.00  0.00     0.039 C 
HETATM    3  C9  UNL     1      19.062  24.497  20.049  1.00  0.00     0.005 C 
HETATM    4  C10 UNL     1      20.589  24.573  20.058  1.00  0.00     0.023 C 
HETATM    5  C11 UNL     1      21.104  24.362  21.440  1.00  0.00     0.174 C 
HETATM    6  O3  UNL     1      22.466  24.398  21.513  1.00  0.00    -0.385 OA
HETATM    7  C12 UNL     1      23.114  24.622  20.303  1.00  0.00     0.131 C 
HETATM    8  C13 UNL     1      24.590  24.635  20.511  1.00  0.00     0.025 C 
HETATM    9  C14 UNL     1      25.361  23.905  19.424  1.00  0.00     0.039 C 
HETATM   10  C15 UNL     1      26.820  24.091  19.723  1.00  0.00     0.118 C 
HETATM   11  C16 UNL     1      27.100  24.484  21.150  1.00  0.00     0.032 C 
HETATM   12  C17 UNL     1      26.455  25.765  21.573  1.00  0.00     0.012 C 
HETATM   13  C18 UNL     1      25.183  25.984  20.741  1.00  0.00    -0.038 C 
HETATM   14  C19 UNL     1      25.604  26.716  19.512  1.00  0.00     0.015 C 
HETATM   15  C20 UNL     1      24.182  26.779  21.551  1.00  0.00     0.010 C 
HETATM   16  C21 UNL     1      22.931  27.007  20.784  1.00  0.00     0.009 C 
HETATM   17  C22 UNL     1      22.578  25.954  19.780  1.00  0.00     0.024 C 
HETATM   18  C23 UNL     1      21.109  25.852  19.497  1.00  0.00    -0.029 C 
HETATM   19  C24 UNL     1      20.380  27.003  20.187  1.00  0.00     0.016 C 
HETATM   20  C25 UNL     1      20.737  25.915  18.048  1.00  0.00    -0.010 C 
HETATM   21  C26 UNL     1      21.683  26.782  17.225  1.00  0.00     0.011 C 
HETATM   22  C27 UNL     1      20.639  24.593  17.379  1.00  0.00     0.006 C 
HETATM   23  C28 UNL     1      19.491  23.745  17.677  1.00  0.00     0.012 C 
HETATM   24  C29 UNL     1      18.510  24.189  18.707  1.00  0.00    -0.011 C 
HETATM   25  C30 UNL     1      17.415  25.110  18.206  1.00  0.00     0.018 C 
ENDROOT
BRANCH   1  26
HETATM   26  N2  UNL     1      18.038  21.754  18.589  1.00  0.00    -0.044 N 
ATOM     27  H22 UNL     1      18.559  21.066  19.133  1.00  0.00     0.280 HD
ATOM     28  H21 UNL     1      18.707  21.902  17.834  1.00  0.00     0.280 HD
BRANCH  26  29
HETATM   29  C6  UNL     1      16.786  21.195  18.086  1.00  0.00     0.319 C 
BRANCH  29  30
HETATM   30  C5  UNL     1      15.581  21.710  18.765  1.00  0.00     0.062 C 
BRANCH  30  31
HETATM   31  C4  UNL     1      14.316  20.971  18.560  1.00  0.00     0.024 C 
BRANCH  31  32
HETATM   32  C3  UNL     1      14.401  19.506  18.775  1.00  0.00     0.126 C 
BRANCH  32  33
HETATM   33  N1  UNL     1      13.227  19.005  19.521  1.00  0.00    -0.352 N 
HETATM   34  C2  UNL     1      13.325  18.786  20.905  1.00  0.00     0.215 C 
HETATM   35  C1  UNL     1      14.651  18.950  21.573  1.00  0.00     0.117 C 
HETATM   36  O1  UNL     1      12.340  18.449  21.639  1.00  0.00    -0.274 OA
BRANCH  33  37
HETATM   37  C31 UNL     1      12.058  18.709  18.774  1.00  0.00     0.136 C 
BRANCH  37  38
HETATM   38  C32 UNL     1      11.553  17.336  18.714  1.00  0.00     0.133 C 
BRANCH  38  39
HETATM   39  C33 UNL     1      10.909  16.775  17.563  1.00  0.00     0.174 C 
HETATM   40  O5  UNL     1      10.603  17.359  16.513  1.00  0.00    -0.648 OA
HETATM   41  O6  UNL     1      10.543  15.387  17.544  1.00  0.00    -0.648 OA
ENDBRANCH  38  39
ENDBRANCH  37  38
ENDBRANCH  33  37
ENDBRANCH  32  33
ENDBRANCH  31  32
ENDBRANCH  30  31
ENDBRANCH  29  30
BRANCH  29  42
HETATM   42  O2  UNL     1      16.703  21.389  16.711  1.00  0.00    -0.370 OA
ATOM     43  H2  UNL     1      16.943  20.599  16.241  1.00  0.00     0.212 HD
ENDBRANCH  29  42
ENDBRANCH  26  29
ENDBRANCH   1  26
BRANCH  10  44
HETATM   44  O4  UNL     1      27.425  22.823  19.545  1.00  0.00    -0.396 OA
ATOM     45  H4  UNL     1      27.867  22.623  20.361  1.00  0.00     0.210 HD
ENDBRANCH  10  44
TORSDOF 11
ENDMDL
MODEL 4
REMARK VINA RESULT: -8.145489404      1.795      2.461
REMARK  11 active torsions:
REMARK  status: ('A' for Active; 'I' for Inactive)
REMARK       I    between atoms: C2_2  and  N1_4 
REMARK    1  A    between atoms: N1_4  and  C3_5 
REMARK    2  A    between atoms: N1_4  and  C31_41 
REMARK    3  A    between atoms: C3_5  and  C4_6 
REMARK    4  A    between atoms: C4_6  and  C5_7 
REMARK    5  A    between atoms: C5_7  and  C6_8 
REMARK    6  A    between atoms: C6_8  and  O2_9 
REMARK    7  A    between atoms: C6_8  and  N2_11 
REMARK    8  A    between atoms: N2_11  and  C7_14 
REMARK    9  A    between atoms: C15_23  and  O4_24 
REMARK   10  A    between atoms: C31_41  and  C32_42 
REMARK   11  A    between atoms: C32_42  and  C33_43 
ROOT
HETATM    1  C7  UNL     1      17.922  23.222  19.942  1.00  0.00     0.197 C 
HETATM    2  C8  UNL     1      18.833  23.477  21.092  1.00  0.00     0.039 C 
HETATM    3  C9  UNL     1      19.287  24.745  20.406  1.00  0.00     0.005 C 
HETATM    4  C10 UNL     1      20.814  24.720  20.336  1.00  0.00     0.023 C 
HETATM    5  C11 UNL     1      21.389  24.635  21.708  1.00  0.00     0.174 C 
HETATM    6  O3  UNL     1      22.753  24.589  21.713  1.00  0.00    -0.385 OA
HETATM    7  C12 UNL     1      23.347  24.630  20.456  1.00  0.00     0.131 C 
HETATM    8  C13 UNL     1      24.830  24.570  20.593  1.00  0.00     0.025 C 
HETATM    9  C14 UNL     1      25.496  23.671  19.564  1.00  0.00     0.039 C 
HETATM   10  C15 UNL     1      26.978  23.793  19.771  1.00  0.00     0.118 C 
HETATM   11  C16 UNL     1      27.357  24.327  21.128  1.00  0.00     0.032 C 
HETATM   12  C17 UNL     1      26.814  25.688  21.427  1.00  0.00     0.012 C 
HETATM   13  C18 UNL     1      25.514  25.894  20.635  1.00  0.00    -0.038 C 
HETATM   14  C19 UNL     1      25.912  26.452  19.311  1.00  0.00     0.015 C 
HETATM   15  C20 UNL     1      24.608  26.840  21.392  1.00  0.00     0.010 C 
HETATM   16  C21 UNL     1      23.334  27.062  20.662  1.00  0.00     0.009 C 
HETATM   17  C22 UNL     1      22.864  25.927  19.806  1.00  0.00     0.024 C 
HETATM   18  C23 UNL     1      21.379  25.889  19.605  1.00  0.00    -0.029 C 
HETATM   19  C24 UNL     1      20.759  27.157  20.189  1.00  0.00     0.016 C 
HETATM   20  C25 UNL     1      20.935  25.812  18.177  1.00  0.00    -0.010 C 
HETATM   21  C26 UNL     1      21.886  26.514  17.216  1.00  0.00     0.011 C 
HETATM   22  C27 UNL     1      20.722  24.431  17.674  1.00  0.00     0.006 C 
HETATM   23  C28 UNL     1      19.542  23.700  18.122  1.00  0.00     0.012 C 
HETATM   24  C29 UNL     1      18.646  24.322  19.137  1.00  0.00    -0.011 C 
HETATM   25  C30 UNL     1      17.583  25.251  18.583  1.00  0.00     0.018 C 
ENDROOT
BRANCH   1  26
HETATM   26  N2  UNL     1      18.023  21.926  19.327  1.00  0.00    -0.044 N 
ATOM     27  H22 UNL     1      18.661  21.320  19.843  1.00  0.00     0.280 HD
ATOM     28  H21 UNL     1      18.528  21.974  18.442  1.00  0.00     0.280 HD
BRANCH  26  29
HETATM   29  C6  UNL     1      16.715  21.300  19.158  1.00  0.00     0.319 C 
BRANCH  29  30
HETATM   30  C5  UNL     1      15.577  22.218  19.359  1.00  0.00     0.062 C 
BRANCH  30  31
HETATM   31  C4  UNL     1      14.530  22.242  18.314  1.00  0.00     0.024 C 
BRANCH  31  32
HETATM   32  C3  UNL     1      14.696  23.293  17.281  1.00  0.00     0.126 C 
BRANCH  32  33
HETATM   33  N1  UNL     1      14.644  22.719  15.919  1.00  0.00    -0.352 N 
HETATM   34  C2  UNL     1      15.807  22.688  15.134  1.00  0.00     0.215 C 
HETATM   35  C1  UNL     1      17.047  23.346  15.647  1.00  0.00     0.117 C 
HETATM   36  O1  UNL     1      15.875  22.127  13.992  1.00  0.00    -0.274 OA
BRANCH  33  37
HETATM   37  C31 UNL     1      13.381  22.276  15.446  1.00  0.00     0.136 C 
BRANCH  37  38
HETATM   38  C32 UNL     1      13.219  20.904  14.963  1.00  0.00     0.133 C 
BRANCH  38  39
HETATM   39  C33 UNL     1      11.963  20.212  14.939  1.00  0.00     0.174 C 
HETATM   40  O5  UNL     1      11.386  19.738  13.950  1.00  0.00    -0.648 OA
HETATM   41  O6  UNL     1      11.229  20.005  16.154  1.00  0.00    -0.648 OA
ENDBRANCH  38  39
ENDBRANCH  37  38
ENDBRANCH  33  37
ENDBRANCH  32  33
ENDBRANCH  31  32
ENDBRANCH  30  31
ENDBRANCH  29  30
BRANCH  29  42
HETATM   42  O2  UNL     1      16.644  20.686  17.911  1.00  0.00    -0.370 OA
ATOM     43  H2  UNL     1      15.763  20.733  17.559  1.00  0.00     0.212 HD
ENDBRANCH  29  42
ENDBRANCH  26  29
ENDBRANCH   1  26
BRANCH  10  44
HETATM   44  O4  UNL     1      27.495  22.476  19.715  1.00  0.00    -0.396 OA
ATOM     45  H4  UNL     1      26.749  21.904  19.580  1.00  0.00     0.210 HD
ENDBRANCH  10  44
TORSDOF 11
ENDMDL
MODEL 5
REMARK VINA RESULT: -8.135663156      1.501      2.265
REMARK  11 active torsions:
REMARK  status: ('A' for Active; 'I' for Inactive)
REMARK       I    between atoms: C2_2  and  N1_4 
REMARK    1  A    between atoms: N1_4  and  C3_5 
REMARK    2  A    between atoms: N1_4  and  C31_41 
REMARK    3  A    between atoms: C3_5  and  C4_6 
REMARK    4  A    between atoms: C4_6  and  C5_7 
REMARK    5  A    between atoms: C5_7  and  C6_8 
REMARK    6  A    between atoms: C6_8  and  O2_9 
REMARK    7  A    between atoms: C6_8  and  N2_11 
REMARK    8  A    between atoms: N2_11  and  C7_14 
REMARK    9  A    between atoms: C15_23  and  O4_24 
REMARK   10  A    between atoms: C31_41  and  C32_42 
REMARK   11  A    between atoms: C32_42  and  C33_43 
ROOT
HETATM    1  C7  UNL     1      17.262  23.724  17.452  1.00  0.00     0.197 C 
HETATM    2  C8  UNL     1      17.753  24.039  18.822  1.00  0.00     0.039 C 
HETATM    3  C9  UNL     1      18.574  25.162  18.231  1.00  0.00     0.005 C 
HETATM    4  C10 UNL     1      20.017  24.990  18.705  1.00  0.00     0.023 C 
HETATM    5  C11 UNL     1      20.075  25.028  20.194  1.00  0.00     0.174 C 
HETATM    6  O3  UNL     1      21.338  24.858  20.683  1.00  0.00    -0.385 OA
HETATM    7  C12 UNL     1      22.323  24.685  19.717  1.00  0.00     0.131 C 
HETATM    8  C13 UNL     1      23.651  24.508  20.372  1.00  0.00     0.025 C 
HETATM    9  C14 UNL     1      24.504  23.429  19.726  1.00  0.00     0.039 C 
HETATM   10  C15 UNL     1      25.830  23.440  20.430  1.00  0.00     0.118 C 
HETATM   11  C16 UNL     1      25.792  24.106  21.781  1.00  0.00     0.032 C 
HETATM   12  C17 UNL     1      25.361  25.538  21.749  1.00  0.00     0.012 C 
HETATM   13  C18 UNL     1      24.446  25.758  20.536  1.00  0.00    -0.038 C 
HETATM   14  C19 UNL     1      25.339  26.104  19.393  1.00  0.00     0.015 C 
HETATM   15  C20 UNL     1      23.467  26.872  20.839  1.00  0.00     0.010 C 
HETATM   16  C21 UNL     1      22.557  27.114  19.690  1.00  0.00     0.009 C 
HETATM   17  C22 UNL     1      22.263  25.927  18.828  1.00  0.00     0.024 C 
HETATM   18  C23 UNL     1      20.943  26.000  18.121  1.00  0.00    -0.029 C 
HETATM   19  C24 UNL     1      20.332  27.383  18.335  1.00  0.00     0.016 C 
HETATM   20  C25 UNL     1      21.004  25.782  16.640  1.00  0.00    -0.010 C 
HETATM   21  C26 UNL     1      22.307  26.266  16.018  1.00  0.00     0.011 C 
HETATM   22  C27 UNL     1      20.797  24.374  16.217  1.00  0.00     0.006 C 
HETATM   23  C28 UNL     1      19.451  23.816  16.284  1.00  0.00     0.012 C 
HETATM   24  C29 UNL     1      18.353  24.641  16.860  1.00  0.00    -0.011 C 
HETATM   25  C30 UNL     1      17.671  25.585  15.888  1.00  0.00     0.018 C 
ENDROOT
BRANCH   1  26
HETATM   26  N2  UNL     1      17.397  22.356  17.028  1.00  0.00    -0.044 N 
ATOM     27  H22 UNL     1      17.604  21.743  17.816  1.00  0.00     0.280 HD
ATOM     28  H21 UNL     1      18.251  22.218  16.488  1.00  0.00     0.280 HD
BRANCH  26  29
HETATM   29  C6  UNL     1      16.223  21.895  16.292  1.00  0.00     0.319 C 
BRANCH  29  30
HETATM   30  C5  UNL     1      14.942  22.150  16.980  1.00  0.00     0.062 C 
BRANCH  30  31
HETATM   31  C4  UNL     1      14.256  20.991  17.591  1.00  0.00     0.024 C 
BRANCH  31  32
HETATM   32  C3  UNL     1      15.120  19.815  17.855  1.00  0.00     0.126 C 
BRANCH  32  33
HETATM   33  N1  UNL     1      14.765  19.165  19.135  1.00  0.00    -0.352 N 
HETATM   34  C2  UNL     1      14.931  19.867  20.339  1.00  0.00     0.215 C 
HETATM   35  C1  UNL     1      15.577  21.214  20.312  1.00  0.00     0.117 C 
HETATM   36  O1  UNL     1      14.562  19.420  21.474  1.00  0.00    -0.274 OA
BRANCH  33  37
HETATM   37  C31 UNL     1      14.323  17.818  19.080  1.00  0.00     0.136 C 
BRANCH  37  38
HETATM   38  C32 UNL     1      12.896  17.518  18.960  1.00  0.00     0.133 C 
BRANCH  38  39
HETATM   39  C33 UNL     1      11.856  18.420  19.360  1.00  0.00     0.174 C 
HETATM   40  O5  UNL     1      11.208  19.189  18.636  1.00  0.00    -0.648 OA
HETATM   41  O6  UNL     1      11.463  18.504  20.738  1.00  0.00    -0.648 OA
ENDBRANCH  38  39
ENDBRANCH  37  38
ENDBRANCH  33  37
ENDBRANCH  32  33
ENDBRANCH  31  32
ENDBRANCH  30  31
ENDBRANCH  29  30
BRANCH  29  42
HETATM   42  O2  UNL     1      16.220  22.450  15.015  1.00  0.00    -0.370 OA
ATOM     43  H2  UNL     1      17.088  22.752  14.775  1.00  0.00     0.212 HD
ENDBRANCH  29  42
ENDBRANCH  26  29
ENDBRANCH   1  26
BRANCH  10  44
HETATM   44  O4  UNL     1      26.160  22.085  20.675  1.00  0.00    -0.396 OA
ATOM     45  H4  UNL     1      26.798  22.091  21.379  1.00  0.00     0.210 HD
ENDBRANCH  10  44
TORSDOF 11
ENDMDL
