MODEL 1
REMARK VINA RESULT: -8.342782700      0.000      0.000
REMARK  10 active torsions:
REMARK  status: ('A' for Active; 'I' for Inactive)
REMARK    1  A    between atoms: O1_2  and  C2_3 
REMARK    2  A    between atoms: C3_6  and  N2_7 
REMARK    3  A    between atoms: C6_10  and  C7_11 
REMARK    4  A    between atoms: C7_11  and  O2_12 
REMARK    5  A    between atoms: C9_17  and  N4_18 
REMARK    6  A    between atoms: C11_20  and  C12_21 
REMARK    7  A    between atoms: C12_21  and  N5_22 
REMARK    8  A    between atoms: C17_30  and  C18_31 
REMARK    9  A    between atoms: C18_31  and  C19_33 
REMARK   10  A    between atoms: C19_33  and  C20_34 
ROOT
HETATM    1  C2  UNL     1      16.051 -12.580  20.096  1.00  0.00     0.170 A 
HETATM    2  N1  UNL     1      14.890 -12.276  20.625  1.00  0.00    -0.170 N 
ATOM      3  H1  UNL     1      14.315 -11.588  20.139  1.00  0.00     0.186 HD
HETATM    4  C3  UNL     1      14.401 -12.804  21.760  1.00  0.00     0.683 A 
HETATM    5  N3  UNL     1      15.190 -13.703  22.370  1.00  0.00    -0.176 N 
ATOM      6  H3  UNL     1      14.860 -14.128  23.236  1.00  0.00     0.186 HD
HETATM    7  C9  UNL     1      16.429 -14.082  21.882  1.00  0.00     0.132 A 
HETATM    8  C17 UNL     1      16.872 -13.516  20.724  1.00  0.00     0.071 A 
ENDROOT
BRANCH   7   9
HETATM    9  N4  UNL     1      17.189 -14.935  22.747  1.00  0.00    -0.365 N 
HETATM   10  C10 UNL     1      17.470 -16.291  22.930  1.00  0.00     0.131 C 
HETATM   11  C11 UNL     1      18.903 -16.281  23.491  1.00  0.00     0.038 C 
HETATM   12  C13 UNL     1      18.816 -15.188  24.494  1.00  0.00    -0.025 C 
HETATM   13  C14 UNL     1      18.251 -15.600  25.839  1.00  0.00     0.017 C 
HETATM   14  C15 UNL     1      20.171 -14.474  24.710  1.00  0.00     0.017 C 
HETATM   15  C16 UNL     1      17.938 -14.201  23.825  1.00  0.00     0.133 C 
BRANCH  11  16
HETATM   16  C12 UNL     1      19.183 -17.631  24.056  1.00  0.00     0.236 C 
BRANCH  16  17
HETATM   17  N5  UNL     1      20.578 -18.012  23.946  1.00  0.00    -0.079 N 
ATOM     18  H53 UNL     1      20.670 -18.945  23.544  1.00  0.00     0.274 HD
ATOM     19  H52 UNL     1      21.047 -17.470  23.221  1.00  0.00     0.274 HD
ATOM     20  H51 UNL     1      21.078 -17.946  24.833  1.00  0.00     0.274 HD
ENDBRANCH  16  17
ENDBRANCH  11  16
ENDBRANCH   7   9
BRANCH   8  21
HETATM   21  C18 UNL     1      18.199 -13.773  20.176  1.00  0.00     0.216 C 
HETATM   22  F1  UNL     1      18.659 -15.050  20.368  1.00  0.00    -0.244 F 
BRANCH  21  23
HETATM   23  C19 UNL     1      19.237 -12.781  20.622  1.00  0.00     0.113 C 
BRANCH  23  24
HETATM   24  C20 UNL     1      20.540 -13.059  19.922  1.00  0.00     0.356 C 
HETATM   25  F2  UNL     1      21.480 -12.062  20.245  1.00  0.00    -0.214 F 
HETATM   26  F3  UNL     1      20.375 -12.954  18.527  1.00  0.00    -0.214 F 
ENDBRANCH  23  24
ENDBRANCH  21  23
ENDBRANCH   8  21
BRANCH   4  27
HETATM   27  N2  UNL     1      13.157 -12.445  22.321  1.00  0.00    -0.217 N 
HETATM   28  C4  UNL     1      12.116 -13.301  22.834  1.00  0.00     0.141 C 
HETATM   29  C5  UNL     1      10.866 -12.447  22.732  1.00  0.00     0.029 C 
HETATM   30  C6  UNL     1      11.383 -11.046  23.017  1.00  0.00     0.029 C 
HETATM   31  C8  UNL     1      12.758 -11.039  22.452  1.00  0.00     0.148 C 
BRANCH  30  32
HETATM   32  C7  UNL     1      11.361 -10.842  24.496  1.00  0.00     0.170 C 
BRANCH  32  33
HETATM   33  O2  UNL     1      10.450 -11.664  25.120  1.00  0.00    -0.400 OA
ATOM     34  H2  UNL     1       9.590 -11.265  25.179  1.00  0.00     0.209 HD
ENDBRANCH  32  33
ENDBRANCH  30  32
ENDBRANCH   4  27
BRANCH   1  35
HETATM   35  O1  UNL     1      16.551 -12.036  18.921  1.00  0.00    -0.340 OA
HETATM   36  C1  UNL     1      15.906 -12.416  17.725  1.00  0.00     0.211 C 
ENDBRANCH   1  35
TORSDOF 10
ENDMDL
MODEL 2
REMARK VINA RESULT: -8.236126911      1.260      1.916
REMARK  10 active torsions:
REMARK  status: ('A' for Active; 'I' for Inactive)
REMARK    1  A    between atoms: O1_2  and  C2_3 
REMARK    2  A    between atoms: C3_6  and  N2_7 
REMARK    3  A    between atoms: C6_10  and  C7_11 
REMARK    4  A    between atoms: C7_11  and  O2_12 
REMARK    5  A    between atoms: C9_17  and  N4_18 
REMARK    6  A    between atoms: C11_20  and  C12_21 
REMARK    7  A    between atoms: C12_21  and  N5_22 
REMARK    8  A    between atoms: C17_30  and  C18_31 
REMARK    9  A    between atoms: C18_31  and  C19_33 
REMARK   10  A    between atoms: C19_33  and  C20_34 
ROOT
HETATM    1  C2  UNL     1      16.721 -13.512  20.225  1.00  0.00     0.170 A 
HETATM    2  N1  UNL     1      15.524 -13.096  20.564  1.00  0.00    -0.170 N 
ATOM      3  H1  UNL     1      15.011 -12.533  19.886  1.00  0.00     0.186 HD
HETATM    4  C3  UNL     1      14.924 -13.355  21.738  1.00  0.00     0.683 A 
HETATM    5  N3  UNL     1      15.636 -14.095  22.603  1.00  0.00    -0.176 N 
ATOM      6  H3  UNL     1      15.220 -14.314  23.509  1.00  0.00     0.186 HD
HETATM    7  C9  UNL     1      16.905 -14.575  22.329  1.00  0.00     0.132 A 
HETATM    8  C17 UNL     1      17.462 -14.285  21.120  1.00  0.00     0.071 A 
ENDROOT
BRANCH   7   9
HETATM    9  N4  UNL     1      17.565 -15.214  23.429  1.00  0.00    -0.365 N 
HETATM   10  C10 UNL     1      18.415 -14.898  24.491  1.00  0.00     0.131 C 
HETATM   11  C11 UNL     1      17.998 -15.897  25.585  1.00  0.00     0.038 C 
HETATM   12  C13 UNL     1      17.886 -17.156  24.803  1.00  0.00    -0.025 C 
HETATM   13  C14 UNL     1      19.194 -17.888  24.580  1.00  0.00     0.017 C 
HETATM   14  C15 UNL     1      16.853 -18.137  25.405  1.00  0.00     0.017 C 
HETATM   15  C16 UNL     1      17.307 -16.693  23.521  1.00  0.00     0.133 C 
BRANCH  11  16
HETATM   16  C12 UNL     1      19.059 -15.901  26.630  1.00  0.00     0.236 C 
BRANCH  16  17
HETATM   17  N5  UNL     1      19.971 -14.779  26.513  1.00  0.00    -0.079 N 
ATOM     18  H53 UNL     1      19.555 -14.026  25.965  1.00  0.00     0.274 HD
ATOM     19  H52 UNL     1      20.073 -14.298  27.406  1.00  0.00     0.274 HD
ATOM     20  H51 UNL     1      20.881 -15.046  26.136  1.00  0.00     0.274 HD
ENDBRANCH  16  17
ENDBRANCH  11  16
ENDBRANCH   7   9
BRANCH   8  21
HETATM   21  C18 UNL     1      18.826 -14.659  20.767  1.00  0.00     0.216 C 
HETATM   22  F1  UNL     1      19.177 -15.937  21.119  1.00  0.00    -0.244 F 
BRANCH  21  23
HETATM   23  C19 UNL     1      19.864 -13.689  21.261  1.00  0.00     0.113 C 
BRANCH  23  24
HETATM   24  C20 UNL     1      20.282 -12.776  20.140  1.00  0.00     0.356 C 
HETATM   25  F2  UNL     1      20.462 -13.519  18.958  1.00  0.00    -0.214 F 
HETATM   26  F3  UNL     1      21.550 -12.224  20.410  1.00  0.00    -0.214 F 
ENDBRANCH  23  24
ENDBRANCH  21  23
ENDBRANCH   8  21
BRANCH   4  27
HETATM   27  N2  UNL     1      13.643 -12.878  22.088  1.00  0.00    -0.217 N 
HETATM   28  C4  UNL     1      12.502 -13.618  22.566  1.00  0.00     0.141 C 
HETATM   29  C5  UNL     1      11.322 -12.737  22.202  1.00  0.00     0.029 C 
HETATM   30  C6  UNL     1      11.877 -11.332  22.374  1.00  0.00     0.029 C 
HETATM   31  C8  UNL     1      13.309 -11.453  21.991  1.00  0.00     0.148 C 
BRANCH  30  32
HETATM   32  C7  UNL     1      11.688 -10.937  23.801  1.00  0.00     0.170 C 
BRANCH  32  33
HETATM   33  O2  UNL     1      10.385 -11.096  24.215  1.00  0.00    -0.400 OA
ATOM     34  H2  UNL     1      10.191 -11.994  24.453  1.00  0.00     0.209 HD
ENDBRANCH  32  33
ENDBRANCH  30  32
ENDBRANCH   4  27
BRANCH   1  35
HETATM   35  O1  UNL     1      17.336 -13.246  19.010  1.00  0.00    -0.340 OA
HETATM   36  C1  UNL     1      16.500 -12.806  17.962  1.00  0.00     0.211 C 
ENDBRANCH   1  35
TORSDOF 10
ENDMDL
MODEL 3
REMARK VINA RESULT: -7.755460224      1.102      1.148
REMARK  10 active torsions:
REMARK  status: ('A' for Active; 'I' for Inactive)
REMARK    1  A    between atoms: O1_2  and  C2_3 
REMARK    2  A    between atoms: C3_6  and  N2_7 
REMARK    3  A    between atoms: C6_10  and  C7_11 
REMARK    4  A    between atoms: C7_11  and  O2_12 
REMARK    5  A    between atoms: C9_17  and  N4_18 
REMARK    6  A    between atoms: C11_20  and  C12_21 
REMARK    7  A    between atoms: C12_21  and  N5_22 
REMARK    8  A    between atoms: C17_30  and  C18_31 
REMARK    9  A    between atoms: C18_31  and  C19_33 
REMARK   10  A    between atoms: C19_33  and  C20_34 
ROOT
HETATM    1  C2  UNL     1      16.883 -13.565  20.333  1.00  0.00     0.170 A 
HETATM    2  N1  UNL     1      15.681 -13.150  20.651  1.00  0.00    -0.170 N 
ATOM      3  H1  UNL     1      15.221 -12.501  20.013  1.00  0.00     0.186 HD
HETATM    4  C3  UNL     1      15.009 -13.516  21.756  1.00  0.00     0.683 A 
HETATM    5  N3  UNL     1      15.650 -14.368  22.570  1.00  0.00    -0.176 N 
ATOM      6  H3  UNL     1      15.179 -14.672  23.422  1.00  0.00     0.186 HD
HETATM    7  C9  UNL     1      16.920 -14.857  22.313  1.00  0.00     0.132 A 
HETATM    8  C17 UNL     1      17.552 -14.454  21.175  1.00  0.00     0.071 A 
ENDROOT
BRANCH   7   9
HETATM    9  N4  UNL     1      17.500 -15.632  23.369  1.00  0.00    -0.365 N 
HETATM   10  C10 UNL     1      17.819 -16.959  23.667  1.00  0.00     0.131 C 
HETATM   11  C11 UNL     1      19.067 -16.829  24.559  1.00  0.00     0.038 C 
HETATM   12  C13 UNL     1      18.663 -15.725  25.467  1.00  0.00    -0.025 C 
HETATM   13  C14 UNL     1      17.814 -16.149  26.650  1.00  0.00     0.017 C 
HETATM   14  C15 UNL     1      19.872 -14.907  25.979  1.00  0.00     0.017 C 
HETATM   15  C16 UNL     1      17.911 -14.820  24.567  1.00  0.00     0.133 C 
BRANCH  11  16
HETATM   16  C12 UNL     1      19.290 -18.141  25.227  1.00  0.00     0.236 C 
BRANCH  16  17
HETATM   17  N5  UNL     1      20.297 -18.949  24.565  1.00  0.00    -0.079 N 
ATOM     18  H53 UNL     1      20.060 -19.941  24.617  1.00  0.00     0.274 HD
ATOM     19  H52 UNL     1      20.259 -18.822  23.554  1.00  0.00     0.274 HD
ATOM     20  H51 UNL     1      21.238 -18.779  24.919  1.00  0.00     0.274 HD
ENDBRANCH  16  17
ENDBRANCH  11  16
ENDBRANCH   7   9
BRANCH   8  21
HETATM   21  C18 UNL     1      18.924 -14.831  20.856  1.00  0.00     0.216 C 
HETATM   22  F1  UNL     1      19.202 -16.164  21.019  1.00  0.00    -0.244 F 
BRANCH  21  23
HETATM   23  C19 UNL     1      19.958 -14.002  21.566  1.00  0.00     0.113 C 
BRANCH  23  24
HETATM   24  C20 UNL     1      20.615 -13.063  20.591  1.00  0.00     0.356 C 
HETATM   25  F2  UNL     1      19.898 -11.854  20.531  1.00  0.00    -0.214 F 
HETATM   26  F3  UNL     1      20.540 -13.587  19.285  1.00  0.00    -0.214 F 
ENDBRANCH  23  24
ENDBRANCH  21  23
ENDBRANCH   8  21
BRANCH   4  27
HETATM   27  N2  UNL     1      13.722 -13.039  22.087  1.00  0.00    -0.217 N 
HETATM   28  C4  UNL     1      12.565 -13.784  22.519  1.00  0.00     0.141 C 
HETATM   29  C5  UNL     1      11.400 -12.885  22.149  1.00  0.00     0.029 C 
HETATM   30  C6  UNL     1      11.961 -11.489  22.372  1.00  0.00     0.029 C 
HETATM   31  C8  UNL     1      13.401 -11.610  22.021  1.00  0.00     0.148 C 
BRANCH  30  32
HETATM   32  C7  UNL     1      11.739 -11.130  23.804  1.00  0.00     0.170 C 
BRANCH  32  33
HETATM   33  O2  UNL     1      10.403 -11.094  24.130  1.00  0.00    -0.400 OA
ATOM     34  H2  UNL     1       9.929 -10.445  23.624  1.00  0.00     0.209 HD
ENDBRANCH  32  33
ENDBRANCH  30  32
ENDBRANCH   4  27
BRANCH   1  35
HETATM   35  O1  UNL     1      17.573 -13.189  19.189  1.00  0.00    -0.340 OA
HETATM   36  C1  UNL     1      16.791 -12.851  18.063  1.00  0.00     0.211 C 
ENDBRANCH   1  35
TORSDOF 10
ENDMDL
MODEL 4
REMARK VINA RESULT: -7.572101424      3.092      6.672
REMARK  10 active torsions:
REMARK  status: ('A' for Active; 'I' for Inactive)
REMARK    1  A    between atoms: O1_2  and  C2_3 
REMARK    2  A    between atoms: C3_6  and  N2_7 
REMARK    3  A    between atoms: C6_10  and  C7_11 
REMARK    4  A    between atoms: C7_11  and  O2_12 
REMARK    5  A    between atoms: C9_17  and  N4_18 
REMARK    6  A    between atoms: C11_20  and  C12_21 
REMARK    7  A    between atoms: C12_21  and  N5_22 
REMARK    8  A    between atoms: C17_30  and  C18_31 
REMARK    9  A    between atoms: C18_31  and  C19_33 
REMARK   10  A    between atoms: C19_33  and  C20_34 
ROOT
HETATM    1  C2  UNL     1      19.360 -14.939  22.864  1.00  0.00     0.170 A 
HETATM    2  N1  UNL     1      19.099 -16.052  23.507  1.00  0.00    -0.170 N 
ATOM      3  H1  UNL     1      19.878 -16.528  23.961  1.00  0.00     0.186 HD
HETATM    4  C3  UNL     1      17.881 -16.611  23.612  1.00  0.00     0.683 A 
HETATM    5  N3  UNL     1      16.885 -15.955  22.998  1.00  0.00    -0.176 N 
ATOM      6  H3  UNL     1      15.944 -16.345  23.050  1.00  0.00     0.186 HD
HETATM    7  C9  UNL     1      17.070 -14.776  22.296  1.00  0.00     0.132 A 
HETATM    8  C17 UNL     1      18.326 -14.252  22.227  1.00  0.00     0.071 A 
ENDROOT
BRANCH   7   9
HETATM    9  N4  UNL     1      15.920 -14.306  21.582  1.00  0.00    -0.365 N 
HETATM   10  C10 UNL     1      14.869 -13.398  21.731  1.00  0.00     0.131 C 
HETATM   11  C11 UNL     1      14.592 -12.940  20.288  1.00  0.00     0.038 C 
HETATM   12  C13 UNL     1      14.629 -14.235  19.560  1.00  0.00    -0.025 C 
HETATM   13  C14 UNL     1      13.337 -15.027  19.598  1.00  0.00     0.017 C 
HETATM   14  C15 UNL     1      15.081 -14.074  18.089  1.00  0.00     0.017 C 
HETATM   15  C16 UNL     1      15.722 -14.963  20.244  1.00  0.00     0.133 C 
BRANCH  11  16
HETATM   16  C12 UNL     1      13.272 -12.250  20.273  1.00  0.00     0.236 C 
BRANCH  16  17
HETATM   17  N5  UNL     1      13.118 -11.349  19.146  1.00  0.00    -0.079 N 
ATOM     18  H53 UNL     1      14.027 -11.031  18.807  1.00  0.00     0.274 HD
ATOM     19  H52 UNL     1      12.799 -11.853  18.319  1.00  0.00     0.274 HD
ATOM     20  H51 UNL     1      12.508 -10.558  19.351  1.00  0.00     0.274 HD
ENDBRANCH  16  17
ENDBRANCH  11  16
ENDBRANCH   7   9
BRANCH   8  21
HETATM   21  C18 UNL     1      18.647 -13.070  21.436  1.00  0.00     0.216 C 
HETATM   22  F1  UNL     1      17.806 -12.004  21.635  1.00  0.00    -0.244 F 
BRANCH  21  23
HETATM   23  C19 UNL     1      18.783 -13.347  19.965  1.00  0.00     0.113 C 
BRANCH  23  24
HETATM   24  C20 UNL     1      20.235 -13.303  19.571  1.00  0.00     0.356 C 
HETATM   25  F2  UNL     1      20.923 -12.375  20.375  1.00  0.00    -0.214 F 
HETATM   26  F3  UNL     1      20.368 -12.806  18.259  1.00  0.00    -0.214 F 
ENDBRANCH  23  24
ENDBRANCH  21  23
ENDBRANCH   8  21
BRANCH   4  27
HETATM   27  N2  UNL     1      17.630 -17.822  24.294  1.00  0.00    -0.217 N 
HETATM   28  C4  UNL     1      17.960 -19.168  23.897  1.00  0.00     0.141 C 
HETATM   29  C5  UNL     1      16.967 -20.023  24.662  1.00  0.00     0.029 C 
HETATM   30  C6  UNL     1      16.802 -19.267  25.971  1.00  0.00     0.029 C 
HETATM   31  C8  UNL     1      16.946 -17.837  25.591  1.00  0.00     0.148 C 
BRANCH  30  32
HETATM   32  C7  UNL     1      17.870 -19.732  26.905  1.00  0.00     0.170 C 
BRANCH  32  33
HETATM   33  O2  UNL     1      18.155 -18.797  27.874  1.00  0.00    -0.400 OA
ATOM     34  H2  UNL     1      19.026 -18.910  28.236  1.00  0.00     0.209 HD
ENDBRANCH  32  33
ENDBRANCH  30  32
ENDBRANCH   4  27
BRANCH   1  35
HETATM   35  O1  UNL     1      20.617 -14.361  22.760  1.00  0.00    -0.340 OA
HETATM   36  C1  UNL     1      21.526 -14.637  23.804  1.00  0.00     0.211 C 
ENDBRANCH   1  35
TORSDOF 10
ENDMDL
MODEL 5
REMARK VINA RESULT: -7.507800276      2.864      6.789
REMARK  10 active torsions:
REMARK  status: ('A' for Active; 'I' for Inactive)
REMARK    1  A    between atoms: O1_2  and  C2_3 
REMARK    2  A    between atoms: C3_6  and  N2_7 
REMARK    3  A    between atoms: C6_10  and  C7_11 
REMARK    4  A    between atoms: C7_11  and  O2_12 
REMARK    5  A    between atoms: C9_17  and  N4_18 
REMARK    6  A    between atoms: C11_20  and  C12_21 
REMARK    7  A    between atoms: C12_21  and  N5_22 
REMARK    8  A    between atoms: C17_30  and  C18_31 
REMARK    9  A    between atoms: C18_31  and  C19_33 
REMARK   10  A    between atoms: C19_33  and  C20_34 
ROOT
HETATM    1  C2  UNL     1      18.698 -13.947  20.891  1.00  0.00     0.170 A 
HETATM    2  N1  UNL     1      19.057 -14.413  22.063  1.00  0.00    -0.170 N 
ATOM      3  H1  UNL     1      20.017 -14.742  22.166  1.00  0.00     0.186 HD
HETATM    4  C3  UNL     1      18.254 -14.490  23.138  1.00  0.00     0.683 A 
HETATM    5  N3  UNL     1      16.999 -14.050  22.959  1.00  0.00    -0.176 N 
ATOM      6  H3  UNL     1      16.354 -14.092  23.748  1.00  0.00     0.186 HD
HETATM    7  C9  UNL     1      16.535 -13.543  21.757  1.00  0.00     0.132 A 
HETATM    8  C17 UNL     1      17.395 -13.485  20.702  1.00  0.00     0.071 A 
ENDROOT
BRANCH   7   9
HETATM    9  N4  UNL     1      15.130 -13.267  21.715  1.00  0.00    -0.365 N 
HETATM   10  C10 UNL     1      13.908 -13.943  21.758  1.00  0.00     0.131 C 
HETATM   11  C11 UNL     1      12.972 -12.933  22.447  1.00  0.00     0.038 C 
HETATM   12  C13 UNL     1      13.334 -11.675  21.745  1.00  0.00    -0.025 C 
HETATM   13  C14 UNL     1      12.642 -11.466  20.412  1.00  0.00     0.017 C 
HETATM   14  C15 UNL     1      13.121 -10.423  22.628  1.00  0.00     0.017 C 
HETATM   15  C16 UNL     1      14.798 -11.807  21.572  1.00  0.00     0.133 C 
BRANCH  11  16
HETATM   16  C12 UNL     1      11.571 -13.390  22.233  1.00  0.00     0.236 C 
BRANCH  16  17
HETATM   17  N5  UNL     1      10.645 -12.854  23.214  1.00  0.00    -0.079 N 
ATOM     18  H53 UNL     1      10.208 -13.604  23.750  1.00  0.00     0.274 HD
ATOM     19  H52 UNL     1      11.146 -12.382  23.966  1.00  0.00     0.274 HD
ATOM     20  H51 UNL     1       9.942 -12.242  22.802  1.00  0.00     0.274 HD
ENDBRANCH  16  17
ENDBRANCH  11  16
ENDBRANCH   7   9
BRANCH   8  21
HETATM   21  C18 UNL     1      16.984 -13.059  19.369  1.00  0.00     0.216 C 
HETATM   22  F1  UNL     1      16.419 -11.811  19.318  1.00  0.00    -0.244 F 
BRANCH  21  23
HETATM   23  C19 UNL     1      16.100 -14.051  18.665  1.00  0.00     0.113 C 
BRANCH  23  24
HETATM   24  C20 UNL     1      14.926 -13.340  18.049  1.00  0.00     0.356 C 
HETATM   25  F2  UNL     1      13.726 -13.951  18.459  1.00  0.00    -0.214 F 
HETATM   26  F3  UNL     1      14.944 -13.495  16.649  1.00  0.00    -0.214 F 
ENDBRANCH  23  24
ENDBRANCH  21  23
ENDBRANCH   8  21
BRANCH   4  27
HETATM   27  N2  UNL     1      18.659 -15.016  24.385  1.00  0.00    -0.217 N 
HETATM   28  C4  UNL     1      18.244 -16.238  25.028  1.00  0.00     0.141 C 
HETATM   29  C5  UNL     1      18.513 -15.979  26.498  1.00  0.00     0.029 C 
HETATM   30  C6  UNL     1      19.764 -15.116  26.471  1.00  0.00     0.029 C 
HETATM   31  C8  UNL     1      19.630 -14.311  25.228  1.00  0.00     0.148 C 
BRANCH  30  32
HETATM   32  C7  UNL     1      20.947 -16.027  26.449  1.00  0.00     0.170 C 
BRANCH  32  33
HETATM   33  O2  UNL     1      22.122 -15.358  26.710  1.00  0.00    -0.400 OA
ATOM     34  H2  UNL     1      21.970 -14.507  27.104  1.00  0.00     0.209 HD
ENDBRANCH  32  33
ENDBRANCH  30  32
ENDBRANCH   4  27
BRANCH   1  35
HETATM   35  O1  UNL     1      19.530 -13.865  19.784  1.00  0.00    -0.340 OA
HETATM   36  C1  UNL     1      20.578 -12.923  19.851  1.00  0.00     0.211 C 
ENDBRANCH   1  35
TORSDOF 10
ENDMDL
