MODEL 1
REMARK VINA RESULT: -6.789583461      0.000      0.000
REMARK  9 active torsions:
REMARK  status: ('A' for Active; 'I' for Inactive)
REMARK    1  A    between atoms: C2_2  and  C3_4 
REMARK    2  A    between atoms: C4_5  and  C5_6 
REMARK    3  A    between atoms: C12_16  and  O2_17 
REMARK    4  A    between atoms: O2_17  and  C13_18 
REMARK    5  A    between atoms: N3_20  and  C15_21 
REMARK    6  A    between atoms: C15_21  and  C17_23 
REMARK    7  A    between atoms: C17_23  and  O3_24 
REMARK    8  A    between atoms: C19_27  and  O4_28 
REMARK    9  A    between atoms: O4_28  and  C20_29 
ROOT
HETATM    1  C3  UNL     1      18.464 -16.017  23.016  1.00  0.00     0.024 A 
HETATM    2  C4  UNL     1      19.786 -15.568  22.922  1.00  0.00     0.009 A 
HETATM    3  C10 UNL     1      20.097 -14.543  22.038  1.00  0.00     0.044 A 
HETATM    4  C11 UNL     1      19.115 -13.935  21.225  1.00  0.00     0.083 A 
HETATM    5  N2  UNL     1      19.414 -12.811  20.422  1.00  0.00    -0.099 NA
HETATM    6  C12 UNL     1      17.836 -14.385  21.319  1.00  0.00     0.127 A 
HETATM    7  C19 UNL     1      17.564 -15.412  22.203  1.00  0.00     0.120 A 
ENDROOT
BRANCH   6   8
HETATM    8  O2  UNL     1      16.868 -13.863  20.580  1.00  0.00    -0.338 OA
BRANCH   8   9
HETATM    9  C13 UNL     1      15.874 -13.057  20.293  1.00  0.00     0.185 A 
HETATM   10  C14 UNL     1      14.514 -13.705  20.531  1.00  0.00     0.307 A 
HETATM   11  N3  UNL     1      14.087 -12.667  21.427  1.00  0.00     0.100 N 
HETATM   12  C18 UNL     1      15.341 -12.041  21.323  1.00  0.00     0.307 A 
BRANCH  11  13
HETATM   13  C15 UNL     1      12.885 -12.020  21.068  1.00  0.00     0.242 C 
HETATM   14  C16 UNL     1      11.652 -12.438  21.847  1.00  0.00     0.045 C 
BRANCH  13  15
HETATM   15  C17 UNL     1      13.002 -10.492  21.140  1.00  0.00     0.199 C 
BRANCH  15  16
HETATM   16  O3  UNL     1      12.416  -9.916  19.999  1.00  0.00    -0.399 OA
ATOM     17  H3  UNL     1      13.094  -9.590  19.419  1.00  0.00     0.209 HD
ENDBRANCH  15  16
ENDBRANCH  13  15
ENDBRANCH  11  13
ENDBRANCH   8   9
ENDBRANCH   6   8
BRANCH   7  18
HETATM   18  O4  UNL     1      16.197 -15.916  22.233  1.00  0.00    -0.286 OA
BRANCH  18  19
HETATM   19  C20 UNL     1      16.030 -16.798  21.080  1.00  0.00     0.505 C 
HETATM   20  F2  UNL     1      14.878 -17.477  21.050  1.00  0.00    -0.184 F 
HETATM   21  F3  UNL     1      17.080 -17.680  20.836  1.00  0.00    -0.184 F 
ENDBRANCH  18  19
ENDBRANCH   7  18
BRANCH   1  22
HETATM   22  C2  UNL     1      18.187 -17.004  24.042  1.00  0.00     0.203 C 
HETATM   23  C1  UNL     1      17.796 -16.178  25.351  1.00  0.00     0.050 C 
HETATM   24  F1  UNL     1      16.914 -17.645  23.874  1.00  0.00    -0.245 F 
ENDBRANCH   1  22
BRANCH   2  25
HETATM   25  C5  UNL     1      20.839 -16.116  23.770  1.00  0.00     0.074 C 
HETATM   26  C6  UNL     1      21.426 -14.863  24.494  1.00  0.00     0.181 C 
HETATM   27  N1  UNL     1      22.733 -15.059  24.961  1.00  0.00    -0.409 N 
HETATM   28  C7  UNL     1      23.735 -14.270  24.287  1.00  0.00     0.143 C 
HETATM   29  C8  UNL     1      23.126 -16.406  25.184  1.00  0.00     0.143 C 
HETATM   30  C9  UNL     1      22.675 -17.428  24.220  1.00  0.00     0.195 C 
HETATM   31  O1  UNL     1      21.662 -17.061  23.392  1.00  0.00    -0.351 OA
ENDBRANCH   2  25
TORSDOF 9
ENDMDL
MODEL 2
REMARK VINA RESULT: -6.708870403      1.359      1.545
REMARK  9 active torsions:
REMARK  status: ('A' for Active; 'I' for Inactive)
REMARK    1  A    between atoms: C2_2  and  C3_4 
REMARK    2  A    between atoms: C4_5  and  C5_6 
REMARK    3  A    between atoms: C12_16  and  O2_17 
REMARK    4  A    between atoms: O2_17  and  C13_18 
REMARK    5  A    between atoms: N3_20  and  C15_21 
REMARK    6  A    between atoms: C15_21  and  C17_23 
REMARK    7  A    between atoms: C17_23  and  O3_24 
REMARK    8  A    between atoms: C19_27  and  O4_28 
REMARK    9  A    between atoms: O4_28  and  C20_29 
ROOT
HETATM    1  C3  UNL     1      17.950 -16.457  22.972  1.00  0.00     0.024 A 
HETATM    2  C4  UNL     1      18.944 -15.523  23.282  1.00  0.00     0.009 A 
HETATM    3  C10 UNL     1      18.845 -14.230  22.784  1.00  0.00     0.044 A 
HETATM    4  C11 UNL     1      17.765 -13.825  21.968  1.00  0.00     0.083 A 
HETATM    5  N2  UNL     1      17.606 -12.479  21.569  1.00  0.00    -0.099 NA
HETATM    6  C12 UNL     1      16.810 -14.744  21.666  1.00  0.00     0.127 A 
HETATM    7  C19 UNL     1      16.945 -16.022  22.172  1.00  0.00     0.120 A 
ENDROOT
BRANCH   6   8
HETATM    8  O2  UNL     1      15.774 -14.432  20.900  1.00  0.00    -0.338 OA
BRANCH   8   9
HETATM    9  C13 UNL     1      14.581 -13.966  20.621  1.00  0.00     0.185 A 
HETATM   10  C14 UNL     1      13.788 -13.613  21.875  1.00  0.00     0.307 A 
HETATM   11  N3  UNL     1      13.574 -12.257  21.454  1.00  0.00     0.100 N 
HETATM   12  C18 UNL     1      14.354 -12.474  20.306  1.00  0.00     0.307 A 
BRANCH  11  13
HETATM   13  C15 UNL     1      12.223 -11.854  21.387  1.00  0.00     0.242 C 
HETATM   14  C16 UNL     1      11.321 -12.383  22.486  1.00  0.00     0.045 C 
BRANCH  13  15
HETATM   15  C17 UNL     1      12.072 -10.328  21.337  1.00  0.00     0.199 C 
BRANCH  15  16
HETATM   16  O3  UNL     1      12.311  -9.870  20.029  1.00  0.00    -0.399 OA
ATOM     17  H3  UNL     1      13.185  -9.502  19.973  1.00  0.00     0.209 HD
ENDBRANCH  15  16
ENDBRANCH  13  15
ENDBRANCH  11  13
ENDBRANCH   8   9
ENDBRANCH   6   8
BRANCH   7  18
HETATM   18  O4  UNL     1      15.940 -17.002  21.777  1.00  0.00    -0.286 OA
BRANCH  18  19
HETATM   19  C20 UNL     1      16.195 -17.353  20.383  1.00  0.00     0.505 C 
HETATM   20  F2  UNL     1      15.150 -17.203  19.561  1.00  0.00    -0.184 F 
HETATM   21  F3  UNL     1      16.760 -18.607  20.168  1.00  0.00    -0.184 F 
ENDBRANCH  18  19
ENDBRANCH   7  18
BRANCH   1  22
HETATM   22  C2  UNL     1      18.051 -17.750  23.621  1.00  0.00     0.203 C 
HETATM   23  C1  UNL     1      16.901 -17.776  24.727  1.00  0.00     0.050 C 
HETATM   24  F1  UNL     1      17.527 -18.820  22.822  1.00  0.00    -0.245 F 
ENDBRANCH   1  22
BRANCH   2  25
HETATM   25  C5  UNL     1      20.059 -15.859  24.162  1.00  0.00     0.074 C 
HETATM   26  C6  UNL     1      19.598 -15.344  25.563  1.00  0.00     0.181 C 
HETATM   27  N1  UNL     1      20.665 -15.105  26.439  1.00  0.00    -0.409 N 
HETATM   28  C7  UNL     1      20.867 -13.716  26.772  1.00  0.00     0.143 C 
HETATM   29  C8  UNL     1      21.871 -15.806  26.168  1.00  0.00     0.143 C 
HETATM   30  C9  UNL     1      22.278 -15.965  24.759  1.00  0.00     0.195 C 
HETATM   31  O1  UNL     1      21.317 -15.723  23.829  1.00  0.00    -0.351 OA
ENDBRANCH   2  25
TORSDOF 9
ENDMDL
MODEL 3
REMARK VINA RESULT: -6.642726964      3.554      7.953
REMARK  9 active torsions:
REMARK  status: ('A' for Active; 'I' for Inactive)
REMARK    1  A    between atoms: C2_2  and  C3_4 
REMARK    2  A    between atoms: C4_5  and  C5_6 
REMARK    3  A    between atoms: C12_16  and  O2_17 
REMARK    4  A    between atoms: O2_17  and  C13_18 
REMARK    5  A    between atoms: N3_20  and  C15_21 
REMARK    6  A    between atoms: C15_21  and  C17_23 
REMARK    7  A    between atoms: C17_23  and  O3_24 
REMARK    8  A    between atoms: C19_27  and  O4_28 
REMARK    9  A    between atoms: O4_28  and  C20_29 
ROOT
HETATM    1  C3  UNL     1      15.126 -13.634  19.155  1.00  0.00     0.024 A 
HETATM    2  C4  UNL     1      15.918 -13.052  18.160  1.00  0.00     0.009 A 
HETATM    3  C10 UNL     1      17.274 -12.855  18.395  1.00  0.00     0.044 A 
HETATM    4  C11 UNL     1      17.880 -13.227  19.615  1.00  0.00     0.083 A 
HETATM    5  N2  UNL     1      19.279 -13.140  19.800  1.00  0.00    -0.099 NA
HETATM    6  C12 UNL     1      17.098 -13.783  20.577  1.00  0.00     0.127 A 
HETATM    7  C19 UNL     1      15.754 -13.956  20.312  1.00  0.00     0.120 A 
ENDROOT
BRANCH   6   8
HETATM    8  O2  UNL     1      17.603 -14.149  21.747  1.00  0.00    -0.338 OA
BRANCH   8   9
HETATM    9  C13 UNL     1      18.264 -14.906  22.589  1.00  0.00     0.185 A 
HETATM   10  C14 UNL     1      19.619 -14.313  22.963  1.00  0.00     0.307 A 
HETATM   11  N3  UNL     1      19.327 -14.329  24.369  1.00  0.00     0.100 N 
HETATM   12  C18 UNL     1      18.032 -14.808  24.110  1.00  0.00     0.307 A 
BRANCH  11  13
HETATM   13  C15 UNL     1      20.251 -15.038  25.167  1.00  0.00     0.242 C 
HETATM   14  C16 UNL     1      21.668 -15.114  24.627  1.00  0.00     0.045 C 
BRANCH  13  15
HETATM   15  C17 UNL     1      20.315 -14.501  26.602  1.00  0.00     0.199 C 
BRANCH  15  16
HETATM   16  O3  UNL     1      20.788 -13.178  26.594  1.00  0.00    -0.399 OA
ATOM     17  H3  UNL     1      20.231 -12.634  27.140  1.00  0.00     0.209 HD
ENDBRANCH  15  16
ENDBRANCH  13  15
ENDBRANCH  11  13
ENDBRANCH   8   9
ENDBRANCH   6   8
BRANCH   7  18
HETATM   18  O4  UNL     1      14.929 -14.495  21.387  1.00  0.00    -0.286 OA
BRANCH  18  19
HETATM   19  C20 UNL     1      14.538 -13.377  22.240  1.00  0.00     0.505 C 
HETATM   20  F2  UNL     1      13.265 -13.400  22.654  1.00  0.00    -0.184 F 
HETATM   21  F3  UNL     1      14.827 -12.107  21.746  1.00  0.00    -0.184 F 
ENDBRANCH  18  19
ENDBRANCH   7  18
BRANCH   1  22
HETATM   22  C2  UNL     1      13.749 -13.920  18.800  1.00  0.00     0.203 C 
HETATM   23  C1  UNL     1      13.575 -15.499  18.957  1.00  0.00     0.050 C 
HETATM   24  F1  UNL     1      12.818 -13.555  19.829  1.00  0.00    -0.245 F 
ENDBRANCH   1  22
BRANCH   2  25
HETATM   25  C5  UNL     1      15.366 -12.693  16.857  1.00  0.00     0.074 C 
HETATM   26  C6  UNL     1      15.702 -13.924  15.957  1.00  0.00     0.181 C 
HETATM   27  N1  UNL     1      15.722 -13.617  14.590  1.00  0.00    -0.409 N 
HETATM   28  C7  UNL     1      17.024 -13.698  13.976  1.00  0.00     0.143 C 
HETATM   29  C8  UNL     1      14.975 -12.476  14.190  1.00  0.00     0.143 C 
HETATM   30  C9  UNL     1      14.996 -11.291  15.071  1.00  0.00     0.195 C 
HETATM   31  O1  UNL     1      15.450 -11.496  16.336  1.00  0.00    -0.351 OA
ENDBRANCH   2  25
TORSDOF 9
ENDMDL
MODEL 4
REMARK VINA RESULT: -6.604518100      3.305      7.915
REMARK  9 active torsions:
REMARK  status: ('A' for Active; 'I' for Inactive)
REMARK    1  A    between atoms: C2_2  and  C3_4 
REMARK    2  A    between atoms: C4_5  and  C5_6 
REMARK    3  A    between atoms: C12_16  and  O2_17 
REMARK    4  A    between atoms: O2_17  and  C13_18 
REMARK    5  A    between atoms: N3_20  and  C15_21 
REMARK    6  A    between atoms: C15_21  and  C17_23 
REMARK    7  A    between atoms: C17_23  and  O3_24 
REMARK    8  A    between atoms: C19_27  and  O4_28 
REMARK    9  A    between atoms: O4_28  and  C20_29 
ROOT
HETATM    1  C3  UNL     1      16.754 -14.250  20.299  1.00  0.00     0.024 A 
HETATM    2  C4  UNL     1      16.076 -15.463  20.456  1.00  0.00     0.009 A 
HETATM    3  C10 UNL     1      16.671 -16.488  21.181  1.00  0.00     0.044 A 
HETATM    4  C11 UNL     1      17.948 -16.343  21.768  1.00  0.00     0.083 A 
HETATM    5  N2  UNL     1      18.492 -17.342  22.607  1.00  0.00    -0.099 NA
HETATM    6  C12 UNL     1      18.601 -15.163  21.600  1.00  0.00     0.127 A 
HETATM    7  C19 UNL     1      17.982 -14.169  20.867  1.00  0.00     0.120 A 
ENDROOT
BRANCH   6   8
HETATM    8  O2  UNL     1      19.804 -14.964  22.119  1.00  0.00    -0.338 OA
BRANCH   8   9
HETATM    9  C13 UNL     1      20.681 -14.685  23.053  1.00  0.00     0.185 A 
HETATM   10  C14 UNL     1      20.021 -14.298  24.373  1.00  0.00     0.307 A 
HETATM   11  N3  UNL     1      20.707 -15.323  25.108  1.00  0.00     0.100 N 
HETATM   12  C18 UNL     1      21.304 -15.793  23.926  1.00  0.00     0.307 A 
BRANCH  11  13
HETATM   13  C15 UNL     1      21.464 -14.868  26.209  1.00  0.00     0.242 C 
HETATM   14  C16 UNL     1      20.789 -13.836  27.093  1.00  0.00     0.045 C 
BRANCH  13  15
HETATM   15  C17 UNL     1      21.946 -16.020  27.101  1.00  0.00     0.199 C 
BRANCH  15  16
HETATM   16  O3  UNL     1      23.074 -16.628  26.523  1.00  0.00    -0.399 OA
ATOM     17  H3  UNL     1      23.792 -16.007  26.491  1.00  0.00     0.209 HD
ENDBRANCH  15  16
ENDBRANCH  13  15
ENDBRANCH  11  13
ENDBRANCH   8   9
ENDBRANCH   6   8
BRANCH   7  18
HETATM   18  O4  UNL     1      18.735 -12.939  20.650  1.00  0.00    -0.286 OA
BRANCH  18  19
HETATM   19  C20 UNL     1      19.856 -13.261  19.771  1.00  0.00     0.505 C 
HETATM   20  F2  UNL     1      21.037 -12.762  20.154  1.00  0.00    -0.184 F 
HETATM   21  F3  UNL     1      19.666 -12.981  18.420  1.00  0.00    -0.184 F 
ENDBRANCH  18  19
ENDBRANCH   7  18
BRANCH   1  22
HETATM   22  C2  UNL     1      16.028 -13.184  19.636  1.00  0.00     0.203 C 
HETATM   23  C1  UNL     1      15.750 -12.080  20.755  1.00  0.00     0.050 C 
HETATM   24  F1  UNL     1      16.867 -12.363  18.810  1.00  0.00    -0.245 F 
ENDBRANCH   1  22
BRANCH   2  25
HETATM   25  C5  UNL     1      14.733 -15.661  19.921  1.00  0.00     0.074 C 
HETATM   26  C6  UNL     1      13.865 -15.949  21.187  1.00  0.00     0.181 C 
HETATM   27  N1  UNL     1      12.683 -16.644  20.898  1.00  0.00    -0.409 N 
HETATM   28  C7  UNL     1      12.635 -17.988  21.420  1.00  0.00     0.143 C 
HETATM   29  C8  UNL     1      12.198 -16.534  19.566  1.00  0.00     0.143 C 
HETATM   30  C9  UNL     1      13.183 -16.543  18.467  1.00  0.00     0.195 C 
HETATM   31  O1  UNL     1      14.477 -16.326  18.823  1.00  0.00    -0.351 OA
ENDBRANCH   2  25
TORSDOF 9
ENDMDL
MODEL 5
REMARK VINA RESULT: -6.553125123      3.151      7.813
REMARK  9 active torsions:
REMARK  status: ('A' for Active; 'I' for Inactive)
REMARK    1  A    between atoms: C2_2  and  C3_4 
REMARK    2  A    between atoms: C4_5  and  C5_6 
REMARK    3  A    between atoms: C12_16  and  O2_17 
REMARK    4  A    between atoms: O2_17  and  C13_18 
REMARK    5  A    between atoms: N3_20  and  C15_21 
REMARK    6  A    between atoms: C15_21  and  C17_23 
REMARK    7  A    between atoms: C17_23  and  O3_24 
REMARK    8  A    between atoms: C19_27  and  O4_28 
REMARK    9  A    between atoms: O4_28  and  C20_29 
ROOT
HETATM    1  C3  UNL     1      15.870 -14.613  20.626  1.00  0.00     0.024 A 
HETATM    2  C4  UNL     1      15.295 -15.886  20.684  1.00  0.00     0.009 A 
HETATM    3  C10 UNL     1      16.053 -16.957  21.142  1.00  0.00     0.044 A 
HETATM    4  C11 UNL     1      17.395 -16.799  21.553  1.00  0.00     0.083 A 
HETATM    5  N2  UNL     1      18.119 -17.865  22.133  1.00  0.00    -0.099 NA
HETATM    6  C12 UNL     1      17.946 -15.559  21.483  1.00  0.00     0.127 A 
HETATM    7  C19 UNL     1      17.165 -14.519  21.015  1.00  0.00     0.120 A 
ENDROOT
BRANCH   6   8
HETATM    8  O2  UNL     1      19.202 -15.343  21.847  1.00  0.00    -0.338 OA
BRANCH   8   9
HETATM    9  C13 UNL     1      20.177 -14.932  22.621  1.00  0.00     0.185 A 
HETATM   10  C14 UNL     1      19.689 -14.004  23.728  1.00  0.00     0.307 A 
HETATM   11  N3  UNL     1      20.238 -14.827  24.769  1.00  0.00     0.100 N 
HETATM   12  C18 UNL     1      20.660 -15.773  23.820  1.00  0.00     0.307 A 
BRANCH  11  13
HETATM   13  C15 UNL     1      21.137 -14.173  25.639  1.00  0.00     0.242 C 
HETATM   14  C16 UNL     1      20.700 -14.076  27.089  1.00  0.00     0.045 C 
BRANCH  13  15
HETATM   15  C17 UNL     1      22.539 -14.796  25.603  1.00  0.00     0.199 C 
BRANCH  15  16
HETATM   16  O3  UNL     1      23.452 -13.878  25.055  1.00  0.00    -0.399 OA
ATOM     17  H3  UNL     1      23.172 -13.629  24.182  1.00  0.00     0.209 HD
ENDBRANCH  15  16
ENDBRANCH  13  15
ENDBRANCH  11  13
ENDBRANCH   8   9
ENDBRANCH   6   8
BRANCH   7  18
HETATM   18  O4  UNL     1      17.804 -13.214  20.891  1.00  0.00    -0.286 OA
BRANCH  18  19
HETATM   19  C20 UNL     1      18.760 -13.298  19.790  1.00  0.00     0.505 C 
HETATM   20  F2  UNL     1      19.935 -12.700  20.015  1.00  0.00    -0.184 F 
HETATM   21  F3  UNL     1      18.283 -12.900  18.543  1.00  0.00    -0.184 F 
ENDBRANCH  18  19
ENDBRANCH   7  18
BRANCH   1  22
HETATM   22  C2  UNL     1      14.990 -13.521  20.255  1.00  0.00     0.203 C 
HETATM   23  C1  UNL     1      14.729 -12.694  21.594  1.00  0.00     0.050 C 
HETATM   24  F1  UNL     1      15.667 -12.471  19.549  1.00  0.00    -0.245 F 
ENDBRANCH   1  22
BRANCH   2  25
HETATM   25  C5  UNL     1      13.898 -16.109  20.325  1.00  0.00     0.074 C 
HETATM   26  C6  UNL     1      13.304 -16.838  21.572  1.00  0.00     0.181 C 
HETATM   27  N1  UNL     1      12.152 -17.580  21.278  1.00  0.00    -0.409 N 
HETATM   28  C7  UNL     1      12.314 -19.009  21.394  1.00  0.00     0.143 C 
HETATM   29  C8  UNL     1      11.424 -17.183  20.124  1.00  0.00     0.143 C 
HETATM   30  C9  UNL     1      12.189 -16.767  18.932  1.00  0.00     0.195 C 
HETATM   31  O1  UNL     1      13.503 -16.484  19.135  1.00  0.00    -0.351 OA
ENDBRANCH   2  25
TORSDOF 9
ENDMDL
