MODEL 1
REMARK VINA RESULT: -7.412079924      0.000      0.000
REMARK  4 active torsions:
REMARK  status: ('A' for Active; 'I' for Inactive)
REMARK    1  A    between atoms: N1_2  and  C3_4 
REMARK    2  A    between atoms: C6_7  and  N2_8 
REMARK    3  A    between atoms: C7_9  and  O1_10 
REMARK    4  A    between atoms: C10_14  and  O2_15 
ROOT
HETATM    1  N2  UNL     1       7.613  79.582  48.166  1.00  0.00    -0.303 N 
HETATM    2  C7  UNL     1       6.779  80.219  47.327  1.00  0.00     0.152 A 
HETATM    3  C8  UNL     1       7.498  80.849  46.348  1.00  0.00     0.009 A 
HETATM    4  C9  UNL     1       8.831  80.584  46.603  1.00  0.00     0.009 A 
HETATM    5  C10 UNL     1       8.877  79.799  47.732  1.00  0.00     0.152 A 
HETATM    6  C11 UNL     1       9.795  81.186  45.644  1.00  0.00     0.032 C 
HETATM    7  C12 UNL     1       9.465  82.681  45.635  1.00  0.00     0.016 C 
HETATM    8  C13 UNL     1       8.177  82.761  44.884  1.00  0.00     0.001 A 
HETATM    9  C14 UNL     1       7.202  81.691  45.161  1.00  0.00     0.033 A 
HETATM   10  C15 UNL     1       8.090  81.500  44.023  1.00  0.00     0.008 A 
HETATM   11  C16 UNL     1       9.378  80.784  44.260  1.00  0.00    -0.035 C 
HETATM   12  C17 UNL     1      10.364  81.284  43.208  1.00  0.00     0.016 C 
HETATM   13  C18 UNL     1       9.225  79.305  44.062  1.00  0.00     0.016 C 
ENDROOT
BRANCH   1  14
HETATM   14  C6  UNL     1       7.252  78.798  49.337  1.00  0.00     0.094 C 
HETATM   15  C5  UNL     1       7.446  79.597  50.611  1.00  0.00     0.028 C 
HETATM   16  C4  UNL     1       7.420  78.694  51.806  1.00  0.00     0.038 C 
HETATM   17  C3  UNL     1       6.698  77.413  51.492  1.00  0.00     0.222 C 
HETATM   18  C20 UNL     1       7.347  76.613  50.415  1.00  0.00     0.038 C 
HETATM   19  C19 UNL     1       8.017  77.511  49.376  1.00  0.00     0.028 C 
BRANCH  17  20
HETATM   20  N1  UNL     1       6.511  76.616  52.662  1.00  0.00     0.084 N 
HETATM   21  C1  UNL     1       6.208  75.225  52.387  1.00  0.00     0.309 C 
HETATM   22  C2  UNL     1       7.661  76.647  53.550  1.00  0.00     0.309 C 
ENDBRANCH  17  20
ENDBRANCH   1  14
BRANCH   2  23
HETATM   23  O1  UNL     1       5.374  80.249  47.416  1.00  0.00    -0.345 OA
ATOM     24  H1  UNL     1       4.764  80.148  46.694  1.00  0.00     0.219 HD
ENDBRANCH   2  23
BRANCH   5  25
HETATM   25  O2  UNL     1      10.054  79.327  48.299  1.00  0.00    -0.345 OA
ATOM     26  H2  UNL     1      10.924  79.700  48.213  1.00  0.00     0.219 HD
ENDBRANCH   5  25
TORSDOF 4
ENDMDL
MODEL 2
REMARK VINA RESULT: -7.365770966      2.335      7.460
REMARK  4 active torsions:
REMARK  status: ('A' for Active; 'I' for Inactive)
REMARK    1  A    between atoms: N1_2  and  C3_4 
REMARK    2  A    between atoms: C6_7  and  N2_8 
REMARK    3  A    between atoms: C7_9  and  O1_10 
REMARK    4  A    between atoms: C10_14  and  O2_15 
ROOT
HETATM    1  N2  UNL     1       8.564  81.081  46.647  1.00  0.00    -0.303 N 
HETATM    2  C7  UNL     1       8.928  81.835  47.697  1.00  0.00     0.152 A 
HETATM    3  C8  UNL     1       8.310  81.382  48.831  1.00  0.00     0.009 A 
HETATM    4  C9  UNL     1       7.533  80.302  48.454  1.00  0.00     0.009 A 
HETATM    5  C10 UNL     1       7.706  80.135  47.099  1.00  0.00     0.152 A 
HETATM    6  C11 UNL     1       6.766  79.655  49.551  1.00  0.00     0.032 C 
HETATM    7  C12 UNL     1       5.960  80.787  50.193  1.00  0.00     0.016 C 
HETATM    8  C13 UNL     1       6.982  81.577  50.942  1.00  0.00     0.001 A 
HETATM    9  C14 UNL     1       8.280  81.754  50.269  1.00  0.00     0.033 A 
HETATM   10  C15 UNL     1       8.162  80.640  51.199  1.00  0.00     0.008 A 
HETATM   11  C16 UNL     1       7.730  79.320  50.650  1.00  0.00    -0.035 C 
HETATM   12  C17 UNL     1       7.046  78.569  51.789  1.00  0.00     0.016 C 
HETATM   13  C18 UNL     1       8.907  78.499  50.215  1.00  0.00     0.016 C 
ENDROOT
BRANCH   1  14
HETATM   14  C6  UNL     1       8.993  81.231  45.266  1.00  0.00     0.094 C 
HETATM   15  C5  UNL     1       7.805  81.283  44.326  1.00  0.00     0.028 C 
HETATM   16  C4  UNL     1       8.247  81.079  42.909  1.00  0.00     0.038 C 
HETATM   17  C3  UNL     1       9.703  81.418  42.750  1.00  0.00     0.222 C 
HETATM   18  C20 UNL     1      10.606  80.558  43.565  1.00  0.00     0.038 C 
HETATM   19  C19 UNL     1       9.949  80.144  44.880  1.00  0.00     0.028 C 
BRANCH  17  20
HETATM   20  N1  UNL     1      10.099  81.398  41.378  1.00  0.00     0.084 N 
HETATM   21  C1  UNL     1      10.557  82.677  40.876  1.00  0.00     0.309 C 
HETATM   22  C2  UNL     1      11.142  80.422  41.111  1.00  0.00     0.309 C 
ENDBRANCH  17  20
ENDBRANCH   1  14
BRANCH   2  23
HETATM   23  O1  UNL     1       9.812  82.932  47.667  1.00  0.00    -0.345 OA
ATOM     24  H1  UNL     1       9.918  83.586  48.348  1.00  0.00     0.219 HD
ENDBRANCH   2  23
BRANCH   5  25
HETATM   25  O2  UNL     1       7.082  79.142  46.355  1.00  0.00    -0.345 OA
ATOM     26  H2  UNL     1       6.998  79.098  45.410  1.00  0.00     0.219 HD
ENDBRANCH   5  25
TORSDOF 4
ENDMDL
MODEL 3
REMARK VINA RESULT: -7.334900715      0.656      1.211
REMARK  4 active torsions:
REMARK  status: ('A' for Active; 'I' for Inactive)
REMARK    1  A    between atoms: N1_2  and  C3_4 
REMARK    2  A    between atoms: C6_7  and  N2_8 
REMARK    3  A    between atoms: C7_9  and  O1_10 
REMARK    4  A    between atoms: C10_14  and  O2_15 
ROOT
HETATM    1  N2  UNL     1       8.235  79.709  47.967  1.00  0.00    -0.303 N 
HETATM    2  C7  UNL     1       7.351  80.330  47.168  1.00  0.00     0.152 A 
HETATM    3  C8  UNL     1       8.015  81.045  46.209  1.00  0.00     0.009 A 
HETATM    4  C9  UNL     1       9.366  80.852  46.434  1.00  0.00     0.009 A 
HETATM    5  C10 UNL     1       9.477  80.022  47.527  1.00  0.00     0.152 A 
HETATM    6  C11 UNL     1      10.276  81.553  45.490  1.00  0.00     0.032 C 
HETATM    7  C12 UNL     1       9.855  83.024  45.552  1.00  0.00     0.016 C 
HETATM    8  C13 UNL     1       8.553  83.057  44.822  1.00  0.00     0.001 A 
HETATM    9  C14 UNL     1       7.650  81.918  45.064  1.00  0.00     0.033 A 
HETATM   10  C15 UNL     1       8.530  81.832  43.907  1.00  0.00     0.008 A 
HETATM   11  C16 UNL     1       9.862  81.187  44.095  1.00  0.00    -0.035 C 
HETATM   12  C17 UNL     1      10.800  81.792  43.054  1.00  0.00     0.016 C 
HETATM   13  C18 UNL     1       9.796  79.711  43.834  1.00  0.00     0.016 C 
ENDROOT
BRANCH   1  14
HETATM   14  C6  UNL     1       7.941  78.854  49.106  1.00  0.00     0.094 C 
HETATM   15  C5  UNL     1       7.452  77.492  48.656  1.00  0.00     0.028 C 
HETATM   16  C4  UNL     1       6.823  76.756  49.800  1.00  0.00     0.038 C 
HETATM   17  C3  UNL     1       7.315  77.293  51.115  1.00  0.00     0.222 C 
HETATM   18  C20 UNL     1       6.971  78.725  51.339  1.00  0.00     0.038 C 
HETATM   19  C19 UNL     1       6.961  79.511  50.029  1.00  0.00     0.028 C 
BRANCH  17  20
HETATM   20  N1  UNL     1       6.862  76.494  52.209  1.00  0.00     0.084 N 
HETATM   21  C1  UNL     1       6.824  75.073  51.927  1.00  0.00     0.309 C 
HETATM   22  C2  UNL     1       7.660  76.683  53.408  1.00  0.00     0.309 C 
ENDBRANCH  17  20
ENDBRANCH   1  14
BRANCH   2  23
HETATM   23  O1  UNL     1       5.948  80.270  47.276  1.00  0.00    -0.345 OA
ATOM     24  H1  UNL     1       5.426  80.607  47.995  1.00  0.00     0.219 HD
ENDBRANCH   2  23
BRANCH   5  25
HETATM   25  O2  UNL     1      10.689  79.599  48.057  1.00  0.00    -0.345 OA
ATOM     26  H2  UNL     1      11.471  79.351  47.577  1.00  0.00     0.219 HD
ENDBRANCH   5  25
TORSDOF 4
ENDMDL
MODEL 4
REMARK VINA RESULT: -7.303447118      1.307      1.623
REMARK  4 active torsions:
REMARK  status: ('A' for Active; 'I' for Inactive)
REMARK    1  A    between atoms: N1_2  and  C3_4 
REMARK    2  A    between atoms: C6_7  and  N2_8 
REMARK    3  A    between atoms: C7_9  and  O1_10 
REMARK    4  A    between atoms: C10_14  and  O2_15 
ROOT
HETATM    1  N2  UNL     1       7.362  79.442  48.375  1.00  0.00    -0.303 N 
HETATM    2  C7  UNL     1       7.258  79.043  47.097  1.00  0.00     0.152 A 
HETATM    3  C8  UNL     1       7.567  80.081  46.260  1.00  0.00     0.009 A 
HETATM    4  C9  UNL     1       7.871  81.163  47.066  1.00  0.00     0.009 A 
HETATM    5  C10 UNL     1       7.737  80.744  48.370  1.00  0.00     0.152 A 
HETATM    6  C11 UNL     1       8.238  82.411  46.346  1.00  0.00     0.032 C 
HETATM    7  C12 UNL     1       7.070  82.676  45.391  1.00  0.00     0.016 C 
HETATM    8  C13 UNL     1       7.230  81.637  44.330  1.00  0.00     0.001 A 
HETATM    9  C14 UNL     1       7.644  80.302  44.793  1.00  0.00     0.033 A 
HETATM   10  C15 UNL     1       8.697  81.207  44.353  1.00  0.00     0.008 A 
HETATM   11  C16 UNL     1       9.337  82.079  45.381  1.00  0.00    -0.035 C 
HETATM   12  C17 UNL     1       9.843  83.323  44.655  1.00  0.00     0.016 C 
HETATM   13  C18 UNL     1      10.527  81.408  46.002  1.00  0.00     0.016 C 
ENDROOT
BRANCH   1  14
HETATM   14  C6  UNL     1       7.117  78.646  49.568  1.00  0.00     0.094 C 
HETATM   15  C5  UNL     1       6.841  79.530  50.768  1.00  0.00     0.028 C 
HETATM   16  C4  UNL     1       6.944  78.738  52.036  1.00  0.00     0.038 C 
HETATM   17  C3  UNL     1       6.749  77.272  51.768  1.00  0.00     0.222 C 
HETATM   18  C20 UNL     1       7.780  76.690  50.863  1.00  0.00     0.038 C 
HETATM   19  C19 UNL     1       8.255  77.708  49.828  1.00  0.00     0.028 C 
BRANCH  17  20
HETATM   20  N1  UNL     1       6.671  76.523  52.982  1.00  0.00     0.084 N 
HETATM   21  C1  UNL     1       6.496  75.098  52.786  1.00  0.00     0.309 C 
HETATM   22  C2  UNL     1       7.834  76.710  53.831  1.00  0.00     0.309 C 
ENDBRANCH  17  20
ENDBRANCH   1  14
BRANCH   2  23
HETATM   23  O1  UNL     1       6.892  77.757  46.654  1.00  0.00    -0.345 OA
ATOM     24  H1  UNL     1       6.075  77.521  46.230  1.00  0.00     0.219 HD
ENDBRANCH   2  23
BRANCH   5  25
HETATM   25  O2  UNL     1       7.962  81.558  49.472  1.00  0.00    -0.345 OA
ATOM     26  H2  UNL     1       7.621  82.433  49.620  1.00  0.00     0.219 HD
ENDBRANCH   5  25
TORSDOF 4
ENDMDL
MODEL 5
REMARK VINA RESULT: -7.231183135      1.235      1.856
REMARK  4 active torsions:
REMARK  status: ('A' for Active; 'I' for Inactive)
REMARK    1  A    between atoms: N1_2  and  C3_4 
REMARK    2  A    between atoms: C6_7  and  N2_8 
REMARK    3  A    between atoms: C7_9  and  O1_10 
REMARK    4  A    between atoms: C10_14  and  O2_15 
ROOT
HETATM    1  N2  UNL     1       7.898  79.292  48.426  1.00  0.00    -0.303 N 
HETATM    2  C7  UNL     1       7.377  79.062  47.209  1.00  0.00     0.152 A 
HETATM    3  C8  UNL     1       7.635  80.123  46.386  1.00  0.00     0.009 A 
HETATM    4  C9  UNL     1       8.344  81.044  47.135  1.00  0.00     0.009 A 
HETATM    5  C10 UNL     1       8.494  80.508  48.394  1.00  0.00     0.152 A 
HETATM    6  C11 UNL     1       8.728  82.289  46.419  1.00  0.00     0.032 C 
HETATM    7  C12 UNL     1       7.415  82.845  45.859  1.00  0.00     0.016 C 
HETATM    8  C13 UNL     1       7.083  81.921  44.735  1.00  0.00     0.001 A 
HETATM    9  C14 UNL     1       7.350  80.492  44.975  1.00  0.00     0.033 A 
HETATM   10  C15 UNL     1       8.393  81.259  44.308  1.00  0.00     0.008 A 
HETATM   11  C16 UNL     1       9.441  81.894  45.160  1.00  0.00    -0.035 C 
HETATM   12  C17 UNL     1       9.953  83.114  44.398  1.00  0.00     0.016 C 
HETATM   13  C18 UNL     1      10.607  80.974  45.369  1.00  0.00     0.016 C 
ENDROOT
BRANCH   1  14
HETATM   14  C6  UNL     1       7.842  78.417  49.586  1.00  0.00     0.094 C 
HETATM   15  C5  UNL     1       7.458  77.006  49.188  1.00  0.00     0.028 C 
HETATM   16  C4  UNL     1       7.059  76.211  50.395  1.00  0.00     0.038 C 
HETATM   17  C3  UNL     1       7.644  76.807  51.645  1.00  0.00     0.222 C 
HETATM   18  C20 UNL     1       7.172  78.193  51.920  1.00  0.00     0.038 C 
HETATM   19  C19 UNL     1       6.914  78.965  50.627  1.00  0.00     0.028 C 
BRANCH  17  20
HETATM   20  N1  UNL     1       7.420  75.970  52.779  1.00  0.00     0.084 N 
HETATM   21  C1  UNL     1       7.706  76.606  54.049  1.00  0.00     0.309 C 
HETATM   22  C2  UNL     1       6.060  75.461  52.840  1.00  0.00     0.309 C 
ENDBRANCH  17  20
ENDBRANCH   1  14
BRANCH   2  23
HETATM   23  O1  UNL     1       6.671  77.910  46.812  1.00  0.00    -0.345 OA
ATOM     24  H1  UNL     1       5.756  77.873  46.559  1.00  0.00     0.219 HD
ENDBRANCH   2  23
BRANCH   5  25
HETATM   25  O2  UNL     1       9.159  81.146  49.433  1.00  0.00    -0.345 OA
ATOM     26  H2  UNL     1       8.771  81.622  50.157  1.00  0.00     0.219 HD
ENDBRANCH   5  25
TORSDOF 4
ENDMDL
