MODEL 1
REMARK VINA RESULT: -6.713875464      0.000      0.000
REMARK  8 active torsions:
REMARK  status: ('A' for Active; 'I' for Inactive)
REMARK    1  A    between atoms: O1_2  and  C2_3 
REMARK    2  A    between atoms: C2_3  and  C3_4 
REMARK    3  A    between atoms: C3_4  and  N1_5 
REMARK    4  A    between atoms: C4_8  and  N3_9 
REMARK    5  A    between atoms: N3_9  and  C5_11 
REMARK    6  A    between atoms: C5_11  and  C6_12 
REMARK    7  A    between atoms: C6_12  and  O2_13 
REMARK    8  A    between atoms: C8_16  and  N4_17 
ROOT
HETATM    1  N1  UNL     1      23.740  -4.597   5.515  1.00  0.00    -0.252 N 
HETATM    2  N2  UNL     1      24.551  -4.458   6.541  1.00  0.00    -0.280 N 
ATOM      3  H2  UNL     1      25.424  -4.986   6.557  1.00  0.00     0.189 HD
HETATM    4  C4  UNL     1      24.259  -3.628   7.585  1.00  0.00     0.132 A 
HETATM    5  C7  UNL     1      23.088  -2.898   7.599  1.00  0.00     0.086 A 
HETATM    6  C8  UNL     1      22.779  -2.047   8.660  1.00  0.00     0.131 A 
HETATM    7  N5  UNL     1      21.630  -1.354   8.636  1.00  0.00    -0.176 N 
ATOM      8  H5  UNL     1      21.384  -0.726   9.401  1.00  0.00     0.186 HD
HETATM    9  C9  UNL     1      20.797  -1.507   7.566  1.00  0.00     0.678 A 
HETATM   10  N6  UNL     1      19.710  -0.843   7.558  1.00  0.00    -0.234 N 
ATOM     11  H61 UNL     1      19.087  -0.957   6.758  1.00  0.00     0.174 HD
ATOM     12  H62 UNL     1      19.480  -0.219   8.332  1.00  0.00     0.174 HD
HETATM   13  N7  UNL     1      21.099  -2.328   6.548  1.00  0.00    -0.185 N 
ATOM     14  H7  UNL     1      20.447  -2.411   5.769  1.00  0.00     0.184 HD
HETATM   15  C10 UNL     1      22.235  -3.041   6.525  1.00  0.00     0.136 A 
HETATM   16  C11 UNL     1      22.589  -3.903   5.491  1.00  0.00     0.290 A 
HETATM   17  O3  UNL     1      21.801  -4.026   4.513  1.00  0.00    -0.264 OA
ENDROOT
BRANCH   4  18
HETATM   18  N3  UNL     1      25.040  -3.481   8.592  1.00  0.00    -0.372 N 
ATOM     19  H3  UNL     1      25.050  -2.566   9.042  1.00  0.00     0.161 HD
BRANCH  18  20
HETATM   20  C5  UNL     1      25.898  -4.484   9.139  1.00  0.00     0.147 C 
BRANCH  20  21
HETATM   21  C6  UNL     1      26.549  -4.068  10.430  1.00  0.00     0.183 C 
BRANCH  21  22
HETATM   22  O2  UNL     1      25.611  -3.411  11.221  1.00  0.00    -0.399 OA
ATOM     23  H2  UNL     1      24.771  -3.844  11.131  1.00  0.00     0.209 HD
ENDBRANCH  21  22
ENDBRANCH  20  21
ENDBRANCH  18  20
ENDBRANCH   4  18
BRANCH   1  24
HETATM   24  C3  UNL     1      24.076  -5.498   4.399  1.00  0.00     0.178 C 
BRANCH  24  25
HETATM   25  C2  UNL     1      23.755  -6.914   4.723  1.00  0.00     0.189 C 
BRANCH  25  26
HETATM   26  O1  UNL     1      24.157  -7.236   5.994  1.00  0.00    -0.394 OA
HETATM   27  C1  UNL     1      23.256  -8.008   6.678  1.00  0.00     0.201 C 
ENDBRANCH  25  26
ENDBRANCH  24  25
ENDBRANCH   1  24
BRANCH   6  28
HETATM   28  N4  UNL     1      23.577  -1.916   9.659  1.00  0.00    -0.384 N 
ATOM     29  H42 UNL     1      23.533  -1.073  10.232  1.00  0.00     0.157 HD
ATOM     30  H41 UNL     1      24.255  -2.644   9.890  1.00  0.00     0.157 HD
ENDBRANCH   6  28
TORSDOF 8
ENDMDL
MODEL 2
REMARK VINA RESULT: -6.391820178      1.639      2.018
REMARK  8 active torsions:
REMARK  status: ('A' for Active; 'I' for Inactive)
REMARK    1  A    between atoms: O1_2  and  C2_3 
REMARK    2  A    between atoms: C2_3  and  C3_4 
REMARK    3  A    between atoms: C3_4  and  N1_5 
REMARK    4  A    between atoms: C4_8  and  N3_9 
REMARK    5  A    between atoms: N3_9  and  C5_11 
REMARK    6  A    between atoms: C5_11  and  C6_12 
REMARK    7  A    between atoms: C6_12  and  O2_13 
REMARK    8  A    between atoms: C8_16  and  N4_17 
ROOT
HETATM    1  N1  UNL     1      23.040  -6.304   8.074  1.00  0.00    -0.252 N 
HETATM    2  N2  UNL     1      24.234  -5.816   8.335  1.00  0.00    -0.280 N 
ATOM      3  H2  UNL     1      25.026  -6.455   8.404  1.00  0.00     0.189 HD
HETATM    4  C4  UNL     1      24.444  -4.480   8.517  1.00  0.00     0.132 A 
HETATM    5  C7  UNL     1      23.397  -3.584   8.431  1.00  0.00     0.086 A 
HETATM    6  C8  UNL     1      23.599  -2.216   8.615  1.00  0.00     0.131 A 
HETATM    7  N5  UNL     1      22.555  -1.377   8.524  1.00  0.00    -0.176 N 
ATOM      8  H5  UNL     1      22.680  -0.373   8.654  1.00  0.00     0.186 HD
HETATM    9  C9  UNL     1      21.322  -1.896   8.253  1.00  0.00     0.678 A 
HETATM   10  N6  UNL     1      20.342  -1.087   8.169  1.00  0.00    -0.234 N 
ATOM     11  H61 UNL     1      19.420  -1.475   7.967  1.00  0.00     0.174 HD
ATOM     12  H62 UNL     1      20.485  -0.086   8.303  1.00  0.00     0.174 HD
HETATM   13  N7  UNL     1      21.134  -3.213   8.077  1.00  0.00    -0.185 N 
ATOM     14  H7  UNL     1      20.195  -3.556   7.877  1.00  0.00     0.184 HD
HETATM   15  C10 UNL     1      22.145  -4.091   8.158  1.00  0.00     0.136 A 
HETATM   16  C11 UNL     1      21.995  -5.464   7.983  1.00  0.00     0.290 A 
HETATM   17  O3  UNL     1      20.844  -5.918   7.732  1.00  0.00    -0.264 OA
ENDROOT
BRANCH   4  18
HETATM   18  N3  UNL     1      25.601  -3.989   8.771  1.00  0.00    -0.372 N 
ATOM     19  H3  UNL     1      25.838  -3.102   8.326  1.00  0.00     0.161 HD
BRANCH  18  20
HETATM   20  C5  UNL     1      26.589  -4.572   9.622  1.00  0.00     0.147 C 
BRANCH  20  21
HETATM   21  C6  UNL     1      26.230  -4.505  11.081  1.00  0.00     0.183 C 
BRANCH  21  22
HETATM   22  O2  UNL     1      25.683  -3.256  11.358  1.00  0.00    -0.399 OA
ATOM     23  H2  UNL     1      24.835  -3.372  11.769  1.00  0.00     0.209 HD
ENDBRANCH  21  22
ENDBRANCH  20  21
ENDBRANCH  18  20
ENDBRANCH   4  18
BRANCH   1  24
HETATM   24  C3  UNL     1      22.838  -7.750   7.881  1.00  0.00     0.178 C 
BRANCH  24  25
HETATM   25  C2  UNL     1      23.230  -8.180   6.513  1.00  0.00     0.189 C 
BRANCH  25  26
HETATM   26  O1  UNL     1      24.134  -7.310   5.959  1.00  0.00    -0.394 OA
HETATM   27  C1  UNL     1      23.823  -6.933   4.679  1.00  0.00     0.201 C 
ENDBRANCH  25  26
ENDBRANCH  24  25
ENDBRANCH   1  24
BRANCH   6  28
HETATM   28  N4  UNL     1      24.768  -1.747   8.870  1.00  0.00    -0.384 N 
ATOM     29  H42 UNL     1      25.594  -2.231   8.515  1.00  0.00     0.157 HD
ATOM     30  H41 UNL     1      24.885  -0.897   9.423  1.00  0.00     0.157 HD
ENDBRANCH   6  28
TORSDOF 8
ENDMDL
MODEL 3
REMARK VINA RESULT: -6.292526234      1.541      1.764
REMARK  8 active torsions:
REMARK  status: ('A' for Active; 'I' for Inactive)
REMARK    1  A    between atoms: O1_2  and  C2_3 
REMARK    2  A    between atoms: C2_3  and  C3_4 
REMARK    3  A    between atoms: C3_4  and  N1_5 
REMARK    4  A    between atoms: C4_8  and  N3_9 
REMARK    5  A    between atoms: N3_9  and  C5_11 
REMARK    6  A    between atoms: C5_11  and  C6_12 
REMARK    7  A    between atoms: C6_12  and  O2_13 
REMARK    8  A    between atoms: C8_16  and  N4_17 
ROOT
HETATM    1  N1  UNL     1      23.544  -5.814   7.295  1.00  0.00    -0.252 N 
HETATM    2  N2  UNL     1      24.599  -5.319   7.905  1.00  0.00    -0.280 N 
ATOM      3  H2  UNL     1      25.441  -5.889   7.980  1.00  0.00     0.189 HD
HETATM    4  C4  UNL     1      24.599  -4.063   8.442  1.00  0.00     0.132 A 
HETATM    5  C7  UNL     1      23.478  -3.262   8.361  1.00  0.00     0.086 A 
HETATM    6  C8  UNL     1      23.466  -1.978   8.906  1.00  0.00     0.131 A 
HETATM    7  N5  UNL     1      22.356  -1.230   8.806  1.00  0.00    -0.176 N 
ATOM      8  H5  UNL     1      22.325  -0.289   9.198  1.00  0.00     0.186 HD
HETATM    9  C9  UNL     1      21.269  -1.756   8.171  1.00  0.00     0.678 A 
HETATM   10  N6  UNL     1      20.223  -1.034   8.084  1.00  0.00    -0.234 N 
ATOM     11  H61 UNL     1      19.410  -1.426   7.609  1.00  0.00     0.174 HD
ATOM     12  H62 UNL     1      20.210  -0.094   8.481  1.00  0.00     0.174 HD
HETATM   13  N7  UNL     1      21.286  -2.992   7.649  1.00  0.00    -0.185 N 
ATOM     14  H7  UNL     1      20.450  -3.344   7.182  1.00  0.00     0.184 HD
HETATM   15  C10 UNL     1      22.371  -3.778   7.722  1.00  0.00     0.136 A 
HETATM   16  C11 UNL     1      22.433  -5.065   7.195  1.00  0.00     0.290 A 
HETATM   17  O3  UNL     1      21.414  -5.527   6.611  1.00  0.00    -0.264 OA
ENDROOT
BRANCH   4  18
HETATM   18  N3  UNL     1      25.619  -3.566   9.040  1.00  0.00    -0.372 N 
ATOM     19  H3  UNL     1      25.691  -2.549   9.068  1.00  0.00     0.161 HD
BRANCH  18  20
HETATM   20  C5  UNL     1      26.664  -4.308   9.670  1.00  0.00     0.147 C 
BRANCH  20  21
HETATM   21  C6  UNL     1      26.436  -4.521  11.142  1.00  0.00     0.183 C 
BRANCH  21  22
HETATM   22  O2  UNL     1      25.651  -3.484  11.635  1.00  0.00    -0.399 OA
ATOM     23  H2  UNL     1      24.821  -3.837  11.933  1.00  0.00     0.209 HD
ENDBRANCH  21  22
ENDBRANCH  20  21
ENDBRANCH  18  20
ENDBRANCH   4  18
BRANCH   1  24
HETATM   24  C3  UNL     1      23.568  -7.171   6.722  1.00  0.00     0.178 C 
BRANCH  24  25
HETATM   25  C2  UNL     1      23.577  -8.213   7.783  1.00  0.00     0.189 C 
BRANCH  25  26
HETATM   26  O1  UNL     1      24.856  -8.500   8.187  1.00  0.00    -0.394 OA
HETATM   27  C1  UNL     1      25.135  -9.840   8.221  1.00  0.00     0.201 C 
ENDBRANCH  25  26
ENDBRANCH  24  25
ENDBRANCH   1  24
BRANCH   6  28
HETATM   28  N4  UNL     1      24.500  -1.501   9.502  1.00  0.00    -0.384 N 
ATOM     29  H42 UNL     1      25.416  -1.578   9.059  1.00  0.00     0.157 HD
ATOM     30  H41 UNL     1      24.420  -1.045  10.411  1.00  0.00     0.157 HD
ENDBRANCH   6  28
TORSDOF 8
ENDMDL
MODEL 4
REMARK VINA RESULT: -6.255373958      3.415      5.712
REMARK  8 active torsions:
REMARK  status: ('A' for Active; 'I' for Inactive)
REMARK    1  A    between atoms: O1_2  and  C2_3 
REMARK    2  A    between atoms: C2_3  and  C3_4 
REMARK    3  A    between atoms: C3_4  and  N1_5 
REMARK    4  A    between atoms: C4_8  and  N3_9 
REMARK    5  A    between atoms: N3_9  and  C5_11 
REMARK    6  A    between atoms: C5_11  and  C6_12 
REMARK    7  A    between atoms: C6_12  and  O2_13 
REMARK    8  A    between atoms: C8_16  and  N4_17 
ROOT
HETATM    1  N1  UNL     1      19.952  -3.492   9.317  1.00  0.00    -0.252 N 
HETATM    2  N2  UNL     1      20.504  -4.686   9.344  1.00  0.00    -0.280 N 
ATOM      3  H2  UNL     1      19.939  -5.486   9.628  1.00  0.00     0.189 HD
HETATM    4  C4  UNL     1      21.810  -4.884   9.003  1.00  0.00     0.132 A 
HETATM    5  C7  UNL     1      22.606  -3.826   8.612  1.00  0.00     0.086 A 
HETATM    6  C8  UNL     1      23.942  -4.016   8.262  1.00  0.00     0.131 A 
HETATM    7  N5  UNL     1      24.683  -2.961   7.888  1.00  0.00    -0.176 N 
ATOM      8  H5  UNL     1      25.662  -3.078   7.628  1.00  0.00     0.186 HD
HETATM    9  C9  UNL     1      24.098  -1.728   7.865  1.00  0.00     0.678 A 
HETATM   10  N6  UNL     1      24.814  -0.737   7.508  1.00  0.00    -0.234 N 
ATOM     11  H61 UNL     1      24.377   0.185   7.490  1.00  0.00     0.174 HD
ATOM     12  H62 UNL     1      25.792  -0.872   7.251  1.00  0.00     0.174 HD
HETATM   13  N7  UNL     1      22.812  -1.551   8.204  1.00  0.00    -0.185 N 
ATOM     14  H7  UNL     1      22.417  -0.612   8.171  1.00  0.00     0.184 HD
HETATM   15  C10 UNL     1      22.030  -2.573   8.583  1.00  0.00     0.136 A 
HETATM   16  C11 UNL     1      20.692  -2.436   8.943  1.00  0.00     0.290 A 
HETATM   17  O3  UNL     1      20.176  -1.284   8.911  1.00  0.00    -0.264 OA
ENDROOT
BRANCH   4  18
HETATM   18  N3  UNL     1      22.363  -6.042   9.023  1.00  0.00    -0.372 N 
ATOM     19  H3  UNL     1      23.300  -6.102   9.423  1.00  0.00     0.161 HD
BRANCH  18  20
HETATM   20  C5  UNL     1      21.785  -7.254   8.537  1.00  0.00     0.147 C 
BRANCH  20  21
HETATM   21  C6  UNL     1      21.367  -7.175   7.094  1.00  0.00     0.183 C 
BRANCH  21  22
HETATM   22  O2  UNL     1      19.990  -6.988   7.029  1.00  0.00    -0.399 OA
ATOM     23  H2  UNL     1      19.671  -7.320   6.198  1.00  0.00     0.209 HD
ENDBRANCH  21  22
ENDBRANCH  20  21
ENDBRANCH  18  20
ENDBRANCH   4  18
BRANCH   1  24
HETATM   24  C3  UNL     1      18.539  -3.302   9.688  1.00  0.00     0.178 C 
BRANCH  24  25
HETATM   25  C2  UNL     1      18.402  -2.803  11.083  1.00  0.00     0.189 C 
BRANCH  25  26
HETATM   26  O1  UNL     1      17.473  -1.796  11.161  1.00  0.00    -0.394 OA
HETATM   27  C1  UNL     1      16.799  -1.577   9.989  1.00  0.00     0.201 C 
ENDBRANCH  25  26
ENDBRANCH  24  25
ENDBRANCH   1  24
BRANCH   6  28
HETATM   28  N4  UNL     1      24.475  -5.186   8.291  1.00  0.00    -0.384 N 
ATOM     29  H42 UNL     1      24.787  -5.619   7.422  1.00  0.00     0.157 HD
ATOM     30  H41 UNL     1      24.592  -5.689   9.171  1.00  0.00     0.157 HD
ENDBRANCH   6  28
TORSDOF 8
ENDMDL
MODEL 5
REMARK VINA RESULT: -6.250419966      1.964      4.480
REMARK  8 active torsions:
REMARK  status: ('A' for Active; 'I' for Inactive)
REMARK    1  A    between atoms: O1_2  and  C2_3 
REMARK    2  A    between atoms: C2_3  and  C3_4 
REMARK    3  A    between atoms: C3_4  and  N1_5 
REMARK    4  A    between atoms: C4_8  and  N3_9 
REMARK    5  A    between atoms: N3_9  and  C5_11 
REMARK    6  A    between atoms: C5_11  and  C6_12 
REMARK    7  A    between atoms: C6_12  and  O2_13 
REMARK    8  A    between atoms: C8_16  and  N4_17 
ROOT
HETATM    1  N1  UNL     1      22.510  -5.005   6.529  1.00  0.00    -0.252 N 
HETATM    2  N2  UNL     1      21.812  -3.912   6.751  1.00  0.00    -0.280 N 
ATOM      3  H2  UNL     1      20.902  -3.805   6.302  1.00  0.00     0.189 HD
HETATM    4  C4  UNL     1      22.270  -2.917   7.566  1.00  0.00     0.132 A 
HETATM    5  C7  UNL     1      23.495  -3.026   8.192  1.00  0.00     0.086 A 
HETATM    6  C8  UNL     1      23.973  -2.015   9.026  1.00  0.00     0.131 A 
HETATM    7  N5  UNL     1      25.171  -2.159   9.616  1.00  0.00    -0.176 N 
ATOM      8  H5  UNL     1      25.539  -1.433  10.230  1.00  0.00     0.186 HD
HETATM    9  C9  UNL     1      25.884  -3.297   9.376  1.00  0.00     0.678 A 
HETATM   10  N6  UNL     1      27.019  -3.419   9.943  1.00  0.00    -0.234 N 
ATOM     11  H61 UNL     1      27.552  -4.269   9.765  1.00  0.00     0.174 HD
ATOM     12  H62 UNL     1      27.372  -2.682  10.554  1.00  0.00     0.174 HD
HETATM   13  N7  UNL     1      25.419  -4.265   8.572  1.00  0.00    -0.185 N 
ATOM     14  H7  UNL     1      25.987  -5.099   8.422  1.00  0.00     0.184 HD
HETATM   15  C10 UNL     1      24.229  -4.170   7.961  1.00  0.00     0.136 A 
HETATM   16  C11 UNL     1      23.708  -5.149   7.119  1.00  0.00     0.290 A 
HETATM   17  O3  UNL     1      24.388  -6.192   6.915  1.00  0.00    -0.264 OA
ENDROOT
BRANCH   4  18
HETATM   18  N3  UNL     1      21.601  -1.846   7.794  1.00  0.00    -0.372 N 
ATOM     19  H3  UNL     1      22.094  -0.959   7.687  1.00  0.00     0.161 HD
BRANCH  18  20
HETATM   20  C5  UNL     1      20.228  -1.783   8.184  1.00  0.00     0.147 C 
BRANCH  20  21
HETATM   21  C6  UNL     1      19.406  -0.870   7.316  1.00  0.00     0.183 C 
BRANCH  21  22
HETATM   22  O2  UNL     1      19.636  -1.183   5.980  1.00  0.00    -0.399 OA
ATOM     23  H2  UNL     1      18.824  -1.480   5.586  1.00  0.00     0.209 HD
ENDBRANCH  21  22
ENDBRANCH  20  21
ENDBRANCH  18  20
ENDBRANCH   4  18
BRANCH   1  24
HETATM   24  C3  UNL     1      21.995  -6.066   5.646  1.00  0.00     0.178 C 
BRANCH  24  25
HETATM   25  C2  UNL     1      22.168  -5.717   4.211  1.00  0.00     0.189 C 
BRANCH  25  26
HETATM   26  O1  UNL     1      21.270  -6.391   3.424  1.00  0.00    -0.394 OA
HETATM   27  C1  UNL     1      21.413  -7.752   3.467  1.00  0.00     0.201 C 
ENDBRANCH  25  26
ENDBRANCH  24  25
ENDBRANCH   1  24
BRANCH   6  28
HETATM   28  N4  UNL     1      23.286  -0.950   9.238  1.00  0.00    -0.384 N 
ATOM     29  H42 UNL     1      22.550  -0.958   9.945  1.00  0.00     0.157 HD
ATOM     30  H41 UNL     1      23.465  -0.095   8.711  1.00  0.00     0.157 HD
ENDBRANCH   6  28
TORSDOF 8
ENDMDL
