MODEL 1
REMARK VINA RESULT: -6.543295149      0.000      0.000
REMARK  6 active torsions:
REMARK  status: ('A' for Active; 'I' for Inactive)
REMARK    1  A    between atoms: O1_2  and  C2_3 
REMARK    2  A    between atoms: C2_3  and  N1_4 
REMARK    3  A    between atoms: N2_6  and  C4_8 
REMARK    4  A    between atoms: C4_8  and  C5_9 
REMARK    5  A    between atoms: C5_9  and  N3_10 
REMARK    6  A    between atoms: C8_21  and  N6_22 
ROOT
HETATM    1  N1  UNL     1      23.613  -5.735   7.817  1.00  0.00    -0.154 N 
HETATM    2  C3  UNL     1      23.196  -4.433   7.779  1.00  0.00     0.683 A 
HETATM    3  N2  UNL     1      23.389  -3.631   8.772  1.00  0.00    -0.224 N 
ATOM      4  H2  UNL     1      23.862  -3.972   9.609  1.00  0.00     0.177 HD
HETATM    5  N4  UNL     1      22.601  -4.180   6.606  1.00  0.00    -0.184 N 
ATOM      6  H4  UNL     1      22.202  -3.286   6.320  1.00  0.00     0.184 HD
HETATM    7  C6  UNL     1      22.621  -5.303   5.871  1.00  0.00     0.150 A 
HETATM    8  C7  UNL     1      22.098  -5.434   4.599  1.00  0.00     0.289 C 
HETATM    9  O2  UNL     1      21.952  -4.355   3.990  1.00  0.00    -0.265 OA
HETATM   10  N5  UNL     1      21.761  -6.596   4.022  1.00  0.00    -0.154 N 
ATOM     11  H5  UNL     1      21.277  -6.510   3.129  1.00  0.00     0.187 HD
HETATM   12  C8  UNL     1      21.966  -7.870   4.445  1.00  0.00     0.681 C 
HETATM   13  N7  UNL     1      22.803  -8.297   5.407  1.00  0.00    -0.154 N 
ATOM     14  H7  UNL     1      22.912  -9.309   5.468  1.00  0.00     0.187 HD
HETATM   15  C9  UNL     1      23.514  -7.595   6.293  1.00  0.00     0.289 C 
HETATM   16  O3  UNL     1      24.491  -8.117   6.880  1.00  0.00    -0.265 OA
HETATM   17  C10 UNL     1      23.262  -6.274   6.646  1.00  0.00     0.155 A 
ENDROOT
BRANCH   1  18
HETATM   18  C2  UNL     1      24.289  -6.407   8.882  1.00  0.00     0.317 C 
BRANCH  18  19
HETATM   19  O1  UNL     1      25.589  -5.946   9.105  1.00  0.00    -0.376 OA
HETATM   20  C1  UNL     1      25.680  -5.682  10.490  1.00  0.00     0.203 C 
ENDBRANCH  18  19
ENDBRANCH   1  18
BRANCH   3  21
HETATM   21  C4  UNL     1      22.941  -2.253   8.713  1.00  0.00     0.165 C 
BRANCH  21  22
HETATM   22  C5  UNL     1      24.180  -1.388   8.861  1.00  0.00     0.249 C 
BRANCH  22  23
HETATM   23  N3  UNL     1      24.706  -0.954   7.593  1.00  0.00    -0.078 N 
ATOM     24  H33 UNL     1      24.831  -1.743   6.959  1.00  0.00     0.274 HD
ATOM     25  H32 UNL     1      24.007  -0.430   7.067  1.00  0.00     0.274 HD
ATOM     26  H31 UNL     1      25.569  -0.419   7.689  1.00  0.00     0.274 HD
ENDBRANCH  22  23
ENDBRANCH  21  22
ENDBRANCH   3  21
BRANCH  12  27
HETATM   27  N6  UNL     1      21.275  -8.785   3.855  1.00  0.00    -0.234 N 
ATOM     28  H62 UNL     1      21.398  -8.853   2.845  1.00  0.00     0.174 HD
ATOM     29  H61 UNL     1      20.673  -9.352   4.452  1.00  0.00     0.174 HD
ENDBRANCH  12  27
TORSDOF 6
ENDMDL
MODEL 2
REMARK VINA RESULT: -6.512235678      2.139      6.032
REMARK  6 active torsions:
REMARK  status: ('A' for Active; 'I' for Inactive)
REMARK    1  A    between atoms: O1_2  and  C2_3 
REMARK    2  A    between atoms: C2_3  and  N1_4 
REMARK    3  A    between atoms: N2_6  and  C4_8 
REMARK    4  A    between atoms: C4_8  and  C5_9 
REMARK    5  A    between atoms: C5_9  and  N3_10 
REMARK    6  A    between atoms: C8_21  and  N6_22 
ROOT
HETATM    1  N1  UNL     1      23.353  -4.233   7.315  1.00  0.00    -0.154 N 
HETATM    2  C3  UNL     1      23.079  -5.507   6.901  1.00  0.00     0.683 A 
HETATM    3  N2  UNL     1      22.274  -5.742   5.921  1.00  0.00    -0.224 N 
ATOM      4  H2  UNL     1      21.827  -4.962   5.439  1.00  0.00     0.177 HD
HETATM    5  N4  UNL     1      23.757  -6.385   7.652  1.00  0.00    -0.184 N 
ATOM      6  H4  UNL     1      23.733  -7.399   7.553  1.00  0.00     0.184 HD
HETATM    7  C6  UNL     1      24.474  -5.701   8.559  1.00  0.00     0.150 A 
HETATM    8  C7  UNL     1      25.300  -6.263   9.512  1.00  0.00     0.289 C 
HETATM    9  O2  UNL     1      25.670  -7.426   9.251  1.00  0.00    -0.265 OA
HETATM   10  N5  UNL     1      25.701  -5.655  10.637  1.00  0.00    -0.154 N 
ATOM     11  H5  UNL     1      26.209  -6.250  11.292  1.00  0.00     0.187 HD
HETATM   12  C8  UNL     1      25.534  -4.369  11.039  1.00  0.00     0.681 C 
HETATM   13  N7  UNL     1      25.174  -3.310  10.293  1.00  0.00    -0.154 N 
ATOM     14  H7  UNL     1      25.249  -2.406  10.759  1.00  0.00     0.187 HD
HETATM   15  C9  UNL     1      24.734  -3.265   9.033  1.00  0.00     0.289 C 
HETATM   16  O3  UNL     1      24.772  -2.192   8.385  1.00  0.00    -0.265 OA
HETATM   17  C10 UNL     1      24.210  -4.346   8.334  1.00  0.00     0.155 A 
ENDROOT
BRANCH   1  18
HETATM   18  C2  UNL     1      22.838  -3.010   6.784  1.00  0.00     0.317 C 
BRANCH  18  19
HETATM   19  O1  UNL     1      21.442  -2.942   6.776  1.00  0.00    -0.376 OA
HETATM   20  C1  UNL     1      21.069  -2.393   8.023  1.00  0.00     0.203 C 
ENDBRANCH  18  19
ENDBRANCH   1  18
BRANCH   3  21
HETATM   21  C4  UNL     1      21.997  -7.100   5.494  1.00  0.00     0.165 C 
BRANCH  21  22
HETATM   22  C5  UNL     1      22.663  -7.274   4.141  1.00  0.00     0.249 C 
BRANCH  22  23
HETATM   23  N3  UNL     1      24.075  -7.534   4.248  1.00  0.00    -0.078 N 
ATOM     24  H33 UNL     1      24.255  -8.529   4.378  1.00  0.00     0.274 HD
ATOM     25  H32 UNL     1      24.542  -7.397   3.352  1.00  0.00     0.274 HD
ATOM     26  H31 UNL     1      24.520  -6.981   4.981  1.00  0.00     0.274 HD
ENDBRANCH  22  23
ENDBRANCH  21  22
ENDBRANCH   3  21
BRANCH  12  27
HETATM   27  N6  UNL     1      25.746  -4.129  12.289  1.00  0.00    -0.234 N 
ATOM     28  H62 UNL     1      25.161  -3.406  12.707  1.00  0.00     0.174 HD
ATOM     29  H61 UNL     1      26.477  -4.681  12.737  1.00  0.00     0.174 HD
ENDBRANCH  12  27
TORSDOF 6
ENDMDL
MODEL 3
REMARK VINA RESULT: -6.406869477      1.593      5.404
REMARK  6 active torsions:
REMARK  status: ('A' for Active; 'I' for Inactive)
REMARK    1  A    between atoms: O1_2  and  C2_3 
REMARK    2  A    between atoms: C2_3  and  N1_4 
REMARK    3  A    between atoms: N2_6  and  C4_8 
REMARK    4  A    between atoms: C4_8  and  C5_9 
REMARK    5  A    between atoms: C5_9  and  N3_10 
REMARK    6  A    between atoms: C8_21  and  N6_22 
ROOT
HETATM    1  N1  UNL     1      23.246  -6.747   6.774  1.00  0.00    -0.154 N 
HETATM    2  C3  UNL     1      22.903  -7.006   5.476  1.00  0.00     0.683 A 
HETATM    3  N2  UNL     1      22.899  -8.207   5.004  1.00  0.00    -0.224 N 
ATOM      4  H2  UNL     1      23.159  -8.987   5.609  1.00  0.00     0.177 HD
HETATM    5  N4  UNL     1      22.597  -5.863   4.849  1.00  0.00    -0.184 N 
ATOM      6  H4  UNL     1      22.308  -5.775   3.875  1.00  0.00     0.184 HD
HETATM    7  C6  UNL     1      22.738  -4.852   5.722  1.00  0.00     0.150 A 
HETATM    8  C7  UNL     1      22.512  -3.518   5.441  1.00  0.00     0.289 C 
HETATM    9  O2  UNL     1      21.787  -3.317   4.446  1.00  0.00    -0.265 OA
HETATM   10  N5  UNL     1      23.006  -2.490   6.145  1.00  0.00    -0.154 N 
ATOM     11  H5  UNL     1      22.846  -1.570   5.735  1.00  0.00     0.187 HD
HETATM   12  C8  UNL     1      23.687  -2.486   7.320  1.00  0.00     0.681 C 
HETATM   13  N7  UNL     1      23.793  -3.483   8.216  1.00  0.00    -0.154 N 
ATOM     14  H7  UNL     1      24.230  -3.224   9.101  1.00  0.00     0.187 HD
HETATM   15  C9  UNL     1      23.413  -4.759   8.122  1.00  0.00     0.289 C 
HETATM   16  O3  UNL     1      23.272  -5.458   9.154  1.00  0.00    -0.265 OA
HETATM   17  C10 UNL     1      23.146  -5.424   6.930  1.00  0.00     0.155 A 
ENDROOT
BRANCH   1  18
HETATM   18  C2  UNL     1      23.639  -7.683   7.780  1.00  0.00     0.317 C 
BRANCH  18  19
HETATM   19  O1  UNL     1      24.719  -8.488   7.410  1.00  0.00    -0.376 OA
HETATM   20  C1  UNL     1      24.794  -9.515   8.379  1.00  0.00     0.203 C 
ENDBRANCH  18  19
ENDBRANCH   1  18
BRANCH   3  21
HETATM   21  C4  UNL     1      22.531  -8.463   3.625  1.00  0.00     0.165 C 
BRANCH  21  22
HETATM   22  C5  UNL     1      22.095  -9.917   3.556  1.00  0.00     0.249 C 
BRANCH  22  23
HETATM   23  N3  UNL     1      23.106 -10.771   2.992  1.00  0.00    -0.078 N 
ATOM     24  H33 UNL     1      22.778 -11.206   2.129  1.00  0.00     0.274 HD
ATOM     25  H32 UNL     1      23.880 -10.224   2.616  1.00  0.00     0.274 HD
ATOM     26  H31 UNL     1      23.440 -11.473   3.653  1.00  0.00     0.274 HD
ENDBRANCH  22  23
ENDBRANCH  21  22
ENDBRANCH   3  21
BRANCH  12  27
HETATM   27  N6  UNL     1      24.308  -1.395   7.617  1.00  0.00    -0.234 N 
ATOM     28  H62 UNL     1      24.848  -0.973   6.861  1.00  0.00     0.174 HD
ATOM     29  H61 UNL     1      24.202  -1.061   8.574  1.00  0.00     0.174 HD
ENDBRANCH  12  27
TORSDOF 6
ENDMDL
MODEL 4
REMARK VINA RESULT: -6.376383891      4.189      6.802
REMARK  6 active torsions:
REMARK  status: ('A' for Active; 'I' for Inactive)
REMARK    1  A    between atoms: O1_2  and  C2_3 
REMARK    2  A    between atoms: C2_3  and  N1_4 
REMARK    3  A    between atoms: N2_6  and  C4_8 
REMARK    4  A    between atoms: C4_8  and  C5_9 
REMARK    5  A    between atoms: C5_9  and  N3_10 
REMARK    6  A    between atoms: C8_21  and  N6_22 
ROOT
HETATM    1  N1  UNL     1      21.191  -3.471   8.183  1.00  0.00    -0.154 N 
HETATM    2  C3  UNL     1      21.505  -4.683   8.733  1.00  0.00     0.683 A 
HETATM    3  N2  UNL     1      22.454  -5.417   8.259  1.00  0.00    -0.224 N 
ATOM      4  H2  UNL     1      22.986  -5.092   7.452  1.00  0.00     0.177 HD
HETATM    5  N4  UNL     1      20.699  -4.932   9.774  1.00  0.00    -0.184 N 
ATOM      6  H4  UNL     1      20.722  -5.766  10.361  1.00  0.00     0.184 HD
HETATM    7  C6  UNL     1      19.856  -3.896   9.913  1.00  0.00     0.150 A 
HETATM    8  C7  UNL     1      18.875  -3.790  10.880  1.00  0.00     0.289 C 
HETATM    9  O2  UNL     1      19.053  -4.519  11.876  1.00  0.00    -0.265 OA
HETATM   10  N5  UNL     1      17.804  -2.987  10.803  1.00  0.00    -0.154 N 
ATOM     11  H5  UNL     1      17.114  -3.117  11.542  1.00  0.00     0.187 HD
HETATM   12  C8  UNL     1      17.497  -2.029   9.891  1.00  0.00     0.681 C 
HETATM   13  N7  UNL     1      18.317  -1.446   8.998  1.00  0.00    -0.154 N 
ATOM     14  H7  UNL     1      17.921  -0.645   8.506  1.00  0.00     0.187 HD
HETATM   15  C9  UNL     1      19.570  -1.757   8.660  1.00  0.00     0.289 C 
HETATM   16  O3  UNL     1      20.297  -0.919   8.076  1.00  0.00    -0.265 OA
HETATM   17  C10 UNL     1      20.179  -2.983   8.904  1.00  0.00     0.155 A 
ENDROOT
BRANCH   1  18
HETATM   18  C2  UNL     1      21.806  -2.835   7.060  1.00  0.00     0.317 C 
BRANCH  18  19
HETATM   19  O1  UNL     1      21.789  -3.606   5.895  1.00  0.00    -0.376 OA
HETATM   20  C1  UNL     1      22.180  -2.742   4.847  1.00  0.00     0.203 C 
ENDBRANCH  18  19
ENDBRANCH   1  18
BRANCH   3  21
HETATM   21  C4  UNL     1      22.773  -6.700   8.857  1.00  0.00     0.165 C 
BRANCH  21  22
HETATM   22  C5  UNL     1      22.126  -7.759   7.981  1.00  0.00     0.249 C 
BRANCH  22  23
HETATM   23  N3  UNL     1      20.961  -8.344   8.591  1.00  0.00    -0.078 N 
ATOM     24  H33 UNL     1      20.401  -7.636   9.064  1.00  0.00     0.274 HD
ATOM     25  H32 UNL     1      20.288  -8.642   7.884  1.00  0.00     0.274 HD
ATOM     26  H31 UNL     1      21.193  -9.112   9.222  1.00  0.00     0.274 HD
ENDBRANCH  22  23
ENDBRANCH  21  22
ENDBRANCH   3  21
BRANCH  12  27
HETATM   27  N6  UNL     1      16.273  -1.625   9.877  1.00  0.00    -0.234 N 
ATOM     28  H62 UNL     1      15.964  -1.116  10.705  1.00  0.00     0.174 HD
ATOM     29  H61 UNL     1      15.732  -1.852   9.043  1.00  0.00     0.174 HD
ENDBRANCH  12  27
TORSDOF 6
ENDMDL
MODEL 5
REMARK VINA RESULT: -6.333109351      2.181      2.680
REMARK  6 active torsions:
REMARK  status: ('A' for Active; 'I' for Inactive)
REMARK    1  A    between atoms: O1_2  and  C2_3 
REMARK    2  A    between atoms: C2_3  and  N1_4 
REMARK    3  A    between atoms: N2_6  and  C4_8 
REMARK    4  A    between atoms: C4_8  and  C5_9 
REMARK    5  A    between atoms: C5_9  and  N3_10 
REMARK    6  A    between atoms: C8_21  and  N6_22 
ROOT
HETATM    1  N1  UNL     1      22.543  -5.567   8.352  1.00  0.00    -0.154 N 
HETATM    2  C3  UNL     1      21.903  -4.375   8.154  1.00  0.00     0.683 A 
HETATM    3  N2  UNL     1      21.349  -3.734   9.127  1.00  0.00    -0.224 N 
ATOM      4  H2  UNL     1      21.385  -4.121  10.070  1.00  0.00     0.177 HD
HETATM    5  N4  UNL     1      21.962  -4.037   6.859  1.00  0.00    -0.184 N 
ATOM      6  H4  UNL     1      21.565  -3.195   6.443  1.00  0.00     0.184 HD
HETATM    7  C6  UNL     1      22.635  -4.996   6.202  1.00  0.00     0.150 A 
HETATM    8  C7  UNL     1      22.899  -5.000   4.846  1.00  0.00     0.289 C 
HETATM    9  O2  UNL     1      22.831  -3.877   4.306  1.00  0.00    -0.265 OA
HETATM   10  N5  UNL     1      23.206  -6.087   4.126  1.00  0.00    -0.154 N 
ATOM     11  H5  UNL     1      23.252  -5.939   3.118  1.00  0.00     0.187 HD
HETATM   12  C8  UNL     1      23.466  -7.357   4.532  1.00  0.00     0.681 C 
HETATM   13  N7  UNL     1      23.757  -7.783   5.774  1.00  0.00    -0.154 N 
ATOM     14  H7  UNL     1      24.062  -8.754   5.838  1.00  0.00     0.187 HD
HETATM   15  C9  UNL     1      23.707  -7.126   6.935  1.00  0.00     0.289 C 
HETATM   16  O3  UNL     1      24.331  -7.556   7.935  1.00  0.00    -0.265 OA
HETATM   17  C10 UNL     1      22.995  -5.953   7.156  1.00  0.00     0.155 A 
ENDROOT
BRANCH   1  18
HETATM   18  C2  UNL     1      22.708  -6.278   9.581  1.00  0.00     0.317 C 
BRANCH  18  19
HETATM   19  O1  UNL     1      21.513  -6.770  10.112  1.00  0.00    -0.376 OA
HETATM   20  C1  UNL     1      21.733  -8.142  10.370  1.00  0.00     0.203 C 
ENDBRANCH  18  19
ENDBRANCH   1  18
BRANCH   3  21
HETATM   21  C4  UNL     1      20.675  -2.470   8.898  1.00  0.00     0.165 C 
BRANCH  21  22
HETATM   22  C5  UNL     1      19.389  -2.512   9.704  1.00  0.00     0.249 C 
BRANCH  22  23
HETATM   23  N3  UNL     1      19.085  -3.832  10.191  1.00  0.00    -0.078 N 
ATOM     24  H33 UNL     1      18.290  -3.812  10.830  1.00  0.00     0.274 HD
ATOM     25  H32 UNL     1      18.687  -4.412   9.452  1.00  0.00     0.274 HD
ATOM     26  H31 UNL     1      19.890  -4.287  10.620  1.00  0.00     0.274 HD
ENDBRANCH  22  23
ENDBRANCH  21  22
ENDBRANCH   3  21
BRANCH  12  27
HETATM   27  N6  UNL     1      23.430  -8.267   3.620  1.00  0.00    -0.234 N 
ATOM     28  H62 UNL     1      22.623  -8.240   2.996  1.00  0.00     0.174 HD
ATOM     29  H61 UNL     1      24.208  -8.927   3.609  1.00  0.00     0.174 HD
ENDBRANCH  12  27
TORSDOF 6
ENDMDL
