MODEL 1
REMARK VINA RESULT: -5.670981703      0.000      0.000
REMARK  5 active torsions:
REMARK  status: ('A' for Active; 'I' for Inactive)
REMARK    1  A    between atoms: C2_2  and  N1_3 
REMARK    2  A    between atoms: C2_2  and  C6_8 
REMARK    3  A    between atoms: N1_3  and  C3_5 
REMARK    4  A    between atoms: C9_11  and  O1_12 
REMARK    5  A    between atoms: C11_15  and  O2_16 
ROOT
HETATM    1  C6  UNL     1      14.839  16.816  18.590  1.00  0.00     0.036 C 
HETATM    2  C7  UNL     1      16.103  17.456  18.102  1.00  0.00     0.011 C 
HETATM    3  C8  UNL     1      15.736  18.238  16.852  1.00  0.00     0.032 C 
HETATM    4  C9  UNL     1      15.030  17.432  15.832  1.00  0.00     0.120 C 
HETATM    5  C10 UNL     1      14.743  16.019  16.195  1.00  0.00     0.063 C 
HETATM    6  C11 UNL     1      14.489  15.714  17.605  1.00  0.00     0.126 C 
ENDROOT
BRANCH   1   7
HETATM    7  C2  UNL     1      14.936  16.280  19.996  1.00  0.00     0.079 C 
HETATM    8  C1  UNL     1      13.627  16.503  20.718  1.00  0.00     0.032 C 
BRANCH   7   9
HETATM    9  N1  UNL     1      16.098  16.555  20.695  1.00  0.00    -0.413 N 
ATOM     10  H1  UNL     1      16.938  16.065  20.387  1.00  0.00     0.154 HD
BRANCH   9  11
HETATM   11  C3  UNL     1      16.248  17.414  21.756  1.00  0.00     0.077 A 
HETATM   12  C4  UNL     1      16.415  17.153  23.183  1.00  0.00     0.027 A 
HETATM   13  C5  UNL     1      17.656  17.361  22.418  1.00  0.00     0.027 A 
ENDBRANCH   9  11
ENDBRANCH   7   9
ENDBRANCH   1   7
BRANCH   6  14
HETATM   14  O2  UNL     1      15.225  14.593  18.024  1.00  0.00    -0.395 OA
ATOM     15  H2  UNL     1      16.134  14.807  17.846  1.00  0.00     0.210 HD
ENDBRANCH   6  14
BRANCH   4  16
HETATM   16  O1  UNL     1      15.809  17.481  14.655  1.00  0.00    -0.395 OA
ATOM     17  H1  UNL     1      15.493  16.790  14.084  1.00  0.00     0.210 HD
ENDBRANCH   4  16
TORSDOF 5
ENDMDL
MODEL 2
REMARK VINA RESULT: -5.633514440      2.566      5.277
REMARK  5 active torsions:
REMARK  status: ('A' for Active; 'I' for Inactive)
REMARK    1  A    between atoms: C2_2  and  N1_3 
REMARK    2  A    between atoms: C2_2  and  C6_8 
REMARK    3  A    between atoms: N1_3  and  C3_5 
REMARK    4  A    between atoms: C9_11  and  O1_12 
REMARK    5  A    between atoms: C11_15  and  O2_16 
ROOT
HETATM    1  C6  UNL     1      14.837  16.129  20.549  1.00  0.00     0.036 C 
HETATM    2  C7  UNL     1      15.728  17.316  20.754  1.00  0.00     0.011 C 
HETATM    3  C8  UNL     1      16.383  17.134  22.113  1.00  0.00     0.032 C 
HETATM    4  C9  UNL     1      15.420  16.899  23.211  1.00  0.00     0.120 C 
HETATM    5  C10 UNL     1      13.987  16.826  22.823  1.00  0.00     0.063 C 
HETATM    6  C11 UNL     1      13.664  16.282  21.502  1.00  0.00     0.126 C 
ENDROOT
BRANCH   1   7
HETATM    7  C2  UNL     1      14.366  15.966  19.126  1.00  0.00     0.079 C 
HETATM    8  C1  UNL     1      14.915  14.680  18.551  1.00  0.00     0.032 C 
BRANCH   7   9
HETATM    9  N1  UNL     1      14.407  17.089  18.317  1.00  0.00    -0.413 N 
ATOM     10  H1  UNL     1      13.879  17.899  18.641  1.00  0.00     0.154 HD
BRANCH   9  11
HETATM   11  C3  UNL     1      15.079  17.234  17.129  1.00  0.00     0.077 A 
HETATM   12  C4  UNL     1      15.292  18.407  16.286  1.00  0.00     0.027 A 
HETATM   13  C5  UNL     1      16.373  18.093  17.236  1.00  0.00     0.027 A 
ENDBRANCH   9  11
ENDBRANCH   7   9
ENDBRANCH   1   7
BRANCH   6  14
HETATM   14  O2  UNL     1      12.741  17.100  20.827  1.00  0.00    -0.395 OA
ATOM     15  H2  UNL     1      11.956  17.087  21.362  1.00  0.00     0.210 HD
ENDBRANCH   6  14
BRANCH   4  16
HETATM   16  O1  UNL     1      15.613  17.929  24.158  1.00  0.00    -0.395 OA
ATOM     17  H1  UNL     1      14.791  18.402  24.226  1.00  0.00     0.210 HD
ENDBRANCH   4  16
TORSDOF 5
ENDMDL
MODEL 3
REMARK VINA RESULT: -5.598538958      2.801      5.413
REMARK  5 active torsions:
REMARK  status: ('A' for Active; 'I' for Inactive)
REMARK    1  A    between atoms: C2_2  and  N1_3 
REMARK    2  A    between atoms: C2_2  and  C6_8 
REMARK    3  A    between atoms: N1_3  and  C3_5 
REMARK    4  A    between atoms: C9_11  and  O1_12 
REMARK    5  A    between atoms: C11_15  and  O2_16 
ROOT
HETATM    1  C6  UNL     1      14.498  16.012  19.062  1.00  0.00     0.036 C 
HETATM    2  C7  UNL     1      15.307  17.230  18.730  1.00  0.00     0.011 C 
HETATM    3  C8  UNL     1      16.604  17.114  19.513  1.00  0.00     0.032 C 
HETATM    4  C9  UNL     1      16.406  16.892  20.963  1.00  0.00     0.120 C 
HETATM    5  C10 UNL     1      14.998  16.766  21.421  1.00  0.00     0.063 C 
HETATM    6  C11 UNL     1      14.030  16.167  20.499  1.00  0.00     0.126 C 
ENDROOT
BRANCH   1   7
HETATM    7  C2  UNL     1      13.335  15.785  18.130  1.00  0.00     0.079 C 
HETATM    8  C1  UNL     1      12.914  14.335  18.184  1.00  0.00     0.032 C 
BRANCH   7   9
HETATM    9  N1  UNL     1      13.406  16.378  16.882  1.00  0.00    -0.413 N 
ATOM     10  H1  UNL     1      13.774  17.328  16.852  1.00  0.00     0.154 HD
BRANCH   9  11
HETATM   11  C3  UNL     1      13.036  15.829  15.678  1.00  0.00     0.077 A 
HETATM   12  C4  UNL     1      11.749  15.807  14.991  1.00  0.00     0.027 A 
HETATM   13  C5  UNL     1      12.673  16.881  14.589  1.00  0.00     0.027 A 
ENDBRANCH   9  11
ENDBRANCH   7   9
ENDBRANCH   1   7
BRANCH   6  14
HETATM   14  O2  UNL     1      12.855  16.935  20.426  1.00  0.00    -0.395 OA
ATOM     15  H2  UNL     1      12.864  17.329  19.561  1.00  0.00     0.210 HD
ENDBRANCH   6  14
BRANCH   4  16
HETATM   16  O1  UNL     1      17.040  17.960  21.634  1.00  0.00    -0.395 OA
ATOM     17  H1  UNL     1      17.720  18.287  21.056  1.00  0.00     0.210 HD
ENDBRANCH   4  16
TORSDOF 5
ENDMDL
MODEL 4
REMARK VINA RESULT: -5.508945974      1.512      1.675
REMARK  5 active torsions:
REMARK  status: ('A' for Active; 'I' for Inactive)
REMARK    1  A    between atoms: C2_2  and  N1_3 
REMARK    2  A    between atoms: C2_2  and  C6_8 
REMARK    3  A    between atoms: N1_3  and  C3_5 
REMARK    4  A    between atoms: C9_11  and  O1_12 
REMARK    5  A    between atoms: C11_15  and  O2_16 
ROOT
HETATM    1  C6  UNL     1      14.620  16.806  18.487  1.00  0.00     0.036 C 
HETATM    2  C7  UNL     1      15.278  17.635  17.426  1.00  0.00     0.011 C 
HETATM    3  C8  UNL     1      14.160  18.197  16.563  1.00  0.00     0.032 C 
HETATM    4  C9  UNL     1      13.235  17.166  16.043  1.00  0.00     0.120 C 
HETATM    5  C10 UNL     1      13.499  15.769  16.475  1.00  0.00     0.063 C 
HETATM    6  C11 UNL     1      14.074  15.562  17.806  1.00  0.00     0.126 C 
ENDROOT
BRANCH   1   7
HETATM    7  C2  UNL     1      15.537  16.445  19.628  1.00  0.00     0.079 C 
HETATM    8  C1  UNL     1      14.885  16.808  20.942  1.00  0.00     0.032 C 
BRANCH   7   9
HETATM    9  N1  UNL     1      16.877  16.758  19.479  1.00  0.00    -0.413 N 
ATOM     10  H1  UNL     1      17.346  16.368  18.662  1.00  0.00     0.154 HD
BRANCH   9  11
HETATM   11  C3  UNL     1      17.647  17.535  20.309  1.00  0.00     0.077 A 
HETATM   12  C4  UNL     1      18.524  17.174  21.419  1.00  0.00     0.027 A 
HETATM   13  C5  UNL     1      19.180  17.345  20.112  1.00  0.00     0.027 A 
ENDBRANCH   9  11
ENDBRANCH   7   9
ENDBRANCH   1   7
BRANCH   6  14
HETATM   14  O2  UNL     1      15.151  14.661  17.760  1.00  0.00    -0.395 OA
ATOM     15  H2  UNL     1      15.926  15.184  17.932  1.00  0.00     0.210 HD
ENDBRANCH   6  14
BRANCH   4  16
HETATM   16  O1  UNL     1      13.270  17.252  14.634  1.00  0.00    -0.395 OA
ATOM     17  H1  UNL     1      12.375  17.369  14.339  1.00  0.00     0.210 HD
ENDBRANCH   4  16
TORSDOF 5
ENDMDL
MODEL 5
REMARK VINA RESULT: -5.508317181      1.767      2.829
REMARK  5 active torsions:
REMARK  status: ('A' for Active; 'I' for Inactive)
REMARK    1  A    between atoms: C2_2  and  N1_3 
REMARK    2  A    between atoms: C2_2  and  C6_8 
REMARK    3  A    between atoms: N1_3  and  C3_5 
REMARK    4  A    between atoms: C9_11  and  O1_12 
REMARK    5  A    between atoms: C11_15  and  O2_16 
ROOT
HETATM    1  C6  UNL     1      15.113  16.138  19.059  1.00  0.00     0.036 C 
HETATM    2  C7  UNL     1      13.736  15.824  19.560  1.00  0.00     0.011 C 
HETATM    3  C8  UNL     1      13.237  14.646  18.742  1.00  0.00     0.032 C 
HETATM    4  C9  UNL     1      13.317  14.861  17.279  1.00  0.00     0.120 C 
HETATM    5  C10 UNL     1      13.911  16.150  16.837  1.00  0.00     0.063 C 
HETATM    6  C11 UNL     1      14.955  16.744  17.675  1.00  0.00     0.126 C 
ENDROOT
BRANCH   1   7
HETATM    7  C2  UNL     1      15.895  17.052  19.969  1.00  0.00     0.079 C 
HETATM    8  C1  UNL     1      17.363  16.990  19.615  1.00  0.00     0.032 C 
BRANCH   7   9
HETATM    9  N1  UNL     1      15.567  17.030  21.313  1.00  0.00    -0.413 N 
ATOM     10  H1  UNL     1      14.590  16.843  21.538  1.00  0.00     0.154 HD
BRANCH   9  11
HETATM   11  C3  UNL     1      16.409  17.232  22.378  1.00  0.00     0.077 A 
HETATM   12  C4  UNL     1      16.363  18.206  23.465  1.00  0.00     0.027 A 
HETATM   13  C5  UNL     1      15.776  16.888  23.759  1.00  0.00     0.027 A 
ENDBRANCH   9  11
ENDBRANCH   7   9
ENDBRANCH   1   7
BRANCH   6  14
HETATM   14  O2  UNL     1      14.717  18.111  17.893  1.00  0.00    -0.395 OA
ATOM     15  H2  UNL     1      15.572  18.495  18.050  1.00  0.00     0.210 HD
ENDBRANCH   6  14
BRANCH   4  16
HETATM   16  O1  UNL     1      12.006  14.732  16.770  1.00  0.00    -0.395 OA
ATOM     17  H1  UNL     1      11.915  13.838  16.461  1.00  0.00     0.210 HD
ENDBRANCH   4  16
TORSDOF 5
ENDMDL
