MODEL 1
REMARK VINA RESULT: -8.223058542      0.000      0.000
REMARK  7 active torsions:
REMARK  status: ('A' for Active; 'I' for Inactive)
REMARK    1  A    between atoms: C4_4  and  C5_5 
REMARK       I    between atoms: C5_5  and  N1_7 
REMARK    2  A    between atoms: N1_7  and  N2_9 
REMARK    3  A    between atoms: N2_9  and  C6_11 
REMARK    4  A    between atoms: C6_11  and  N3_12 
REMARK    5  A    between atoms: C6_11  and  C9_19 
REMARK    6  A    between atoms: N3_12  and  C7_14 
REMARK    7  A    between atoms: C7_14  and  C8_16 
ROOT
HETATM    1  C1  UNL     1      52.432  17.136  37.280  1.00  0.00     0.113 C 
HETATM    2  C2  UNL     1      53.333  16.750  38.009  1.00  0.00    -0.097 C 
HETATM    3  C3  UNL     1      54.379  16.331  38.862  1.00  0.00    -0.018 C 
HETATM    4  C4  UNL     1      55.277  15.982  39.607  1.00  0.00     0.009 C 
ENDROOT
BRANCH   4   5
HETATM    5  C5  UNL     1      56.355  15.591  40.499  1.00  0.00     0.315 C 
HETATM    6  O1  UNL     1      57.439  15.206  39.981  1.00  0.00    -0.256 OA
HETATM    7  N1  UNL     1      56.120  15.666  41.899  1.00  0.00    -0.261 N 
ATOM      8  H1  UNL     1      55.219  15.989  42.249  1.00  0.00     0.190 HD
BRANCH   7   9
HETATM    9  N2  UNL     1      57.109  15.301  42.777  1.00  0.00    -0.300 N 
ATOM     10  H2  UNL     1      57.648  14.446  42.644  1.00  0.00     0.183 HD
BRANCH   9  11
HETATM   11  C6  UNL     1      57.353  16.170  43.889  1.00  0.00     0.301 C 
BRANCH  11  12
HETATM   12  N3  UNL     1      58.720  16.539  44.034  1.00  0.00    -0.345 N 
ATOM     13  H3  UNL     1      59.406  15.828  43.778  1.00  0.00     0.163 HD
BRANCH  12  14
HETATM   14  C7  UNL     1      59.232  17.744  44.480  1.00  0.00     0.176 C 
HETATM   15  S1  UNL     1      58.159  19.032  44.559  1.00  0.00    -0.053 SA
BRANCH  14  16
HETATM   16  C8  UNL     1      60.567  18.041  44.876  1.00  0.00     0.238 C 
HETATM   17  O2  UNL     1      60.917  18.920  45.687  1.00  0.00    -0.642 OA
HETATM   18  O3  UNL     1      61.678  17.311  44.343  1.00  0.00    -0.642 OA
ENDBRANCH  14  16
ENDBRANCH  12  14
ENDBRANCH  11  12
BRANCH  11  19
HETATM   19  C9  UNL     1      56.675  15.749  45.142  1.00  0.00     0.218 C 
HETATM   20  O4  UNL     1      55.531  15.170  45.132  1.00  0.00    -0.645 OA
HETATM   21  O5  UNL     1      57.213  15.939  46.395  1.00  0.00    -0.645 OA
ENDBRANCH  11  19
ENDBRANCH   9  11
ENDBRANCH   7   9
ENDBRANCH   4   5
TORSDOF 7
ENDMDL
MODEL 2
REMARK VINA RESULT: -8.204420436      1.582      1.832
REMARK  7 active torsions:
REMARK  status: ('A' for Active; 'I' for Inactive)
REMARK    1  A    between atoms: C4_4  and  C5_5 
REMARK       I    between atoms: C5_5  and  N1_7 
REMARK    2  A    between atoms: N1_7  and  N2_9 
REMARK    3  A    between atoms: N2_9  and  C6_11 
REMARK    4  A    between atoms: C6_11  and  N3_12 
REMARK    5  A    between atoms: C6_11  and  C9_19 
REMARK    6  A    between atoms: N3_12  and  C7_14 
REMARK    7  A    between atoms: C7_14  and  C8_16 
ROOT
HETATM    1  C1  UNL     1      52.685  17.065  37.340  1.00  0.00     0.113 C 
HETATM    2  C2  UNL     1      53.563  16.751  38.129  1.00  0.00    -0.097 C 
HETATM    3  C3  UNL     1      54.590  16.414  39.040  1.00  0.00    -0.018 C 
HETATM    4  C4  UNL     1      55.474  16.139  39.831  1.00  0.00     0.009 C 
ENDROOT
BRANCH   4   5
HETATM    5  C5  UNL     1      56.543  15.833  40.766  1.00  0.00     0.315 C 
HETATM    6  O1  UNL     1      57.584  15.282  40.313  1.00  0.00    -0.256 OA
HETATM    7  N1  UNL     1      56.349  16.173  42.133  1.00  0.00    -0.261 N 
ATOM      8  H1  UNL     1      55.482  16.621  42.429  1.00  0.00     0.190 HD
BRANCH   7   9
HETATM    9  N2  UNL     1      57.329  15.898  43.051  1.00  0.00    -0.300 N 
ATOM     10  H2  UNL     1      58.120  15.297  42.819  1.00  0.00     0.183 HD
BRANCH   9  11
HETATM   11  C6  UNL     1      57.199  16.488  44.349  1.00  0.00     0.301 C 
BRANCH  11  12
HETATM   12  N3  UNL     1      58.406  17.063  44.837  1.00  0.00    -0.345 N 
ATOM     13  H3  UNL     1      58.718  16.741  45.753  1.00  0.00     0.163 HD
BRANCH  12  14
HETATM   14  C7  UNL     1      59.207  18.007  44.221  1.00  0.00     0.176 C 
HETATM   15  S1  UNL     1      60.846  17.949  44.577  1.00  0.00    -0.053 SA
BRANCH  14  16
HETATM   16  C8  UNL     1      58.819  19.040  43.320  1.00  0.00     0.238 C 
HETATM   17  O2  UNL     1      59.386  20.139  43.171  1.00  0.00    -0.642 OA
HETATM   18  O3  UNL     1      57.680  18.888  42.465  1.00  0.00    -0.642 OA
ENDBRANCH  14  16
ENDBRANCH  12  14
ENDBRANCH  11  12
BRANCH  11  19
HETATM   19  C9  UNL     1      56.462  15.643  45.324  1.00  0.00     0.218 C 
HETATM   20  O4  UNL     1      56.811  15.566  46.555  1.00  0.00    -0.645 OA
HETATM   21  O5  UNL     1      55.359  14.890  44.990  1.00  0.00    -0.645 OA
ENDBRANCH  11  19
ENDBRANCH   9  11
ENDBRANCH   7   9
ENDBRANCH   4   5
TORSDOF 7
ENDMDL
MODEL 3
REMARK VINA RESULT: -8.148641984      0.197      1.070
REMARK  7 active torsions:
REMARK  status: ('A' for Active; 'I' for Inactive)
REMARK    1  A    between atoms: C4_4  and  C5_5 
REMARK       I    between atoms: C5_5  and  N1_7 
REMARK    2  A    between atoms: N1_7  and  N2_9 
REMARK    3  A    between atoms: N2_9  and  C6_11 
REMARK    4  A    between atoms: C6_11  and  N3_12 
REMARK    5  A    between atoms: C6_11  and  C9_19 
REMARK    6  A    between atoms: N3_12  and  C7_14 
REMARK    7  A    between atoms: C7_14  and  C8_16 
ROOT
HETATM    1  C1  UNL     1      52.490  17.113  37.067  1.00  0.00     0.113 C 
HETATM    2  C2  UNL     1      53.355  16.800  37.870  1.00  0.00    -0.097 C 
HETATM    3  C3  UNL     1      54.368  16.421  38.780  1.00  0.00    -0.018 C 
HETATM    4  C4  UNL     1      55.251  16.092  39.551  1.00  0.00     0.009 C 
ENDROOT
BRANCH   4   5
HETATM    5  C5  UNL     1      56.311  15.678  40.455  1.00  0.00     0.315 C 
HETATM    6  O1  UNL     1      57.447  15.439  39.962  1.00  0.00    -0.256 OA
HETATM    7  N1  UNL     1      55.999  15.567  41.838  1.00  0.00    -0.261 N 
ATOM      8  H1  UNL     1      55.058  15.779  42.168  1.00  0.00     0.190 HD
BRANCH   7   9
HETATM    9  N2  UNL     1      56.968  15.175  42.726  1.00  0.00    -0.300 N 
ATOM     10  H2  UNL     1      57.459  14.287  42.618  1.00  0.00     0.183 HD
BRANCH   9  11
HETATM   11  C6  UNL     1      57.261  16.060  43.813  1.00  0.00     0.301 C 
BRANCH  11  12
HETATM   12  N3  UNL     1      58.637  16.410  43.907  1.00  0.00    -0.345 N 
ATOM     13  H3  UNL     1      59.304  15.669  43.691  1.00  0.00     0.163 HD
BRANCH  12  14
HETATM   14  C7  UNL     1      59.180  17.633  44.257  1.00  0.00     0.176 C 
HETATM   15  S1  UNL     1      58.151  18.957  44.196  1.00  0.00    -0.053 SA
BRANCH  14  16
HETATM   16  C8  UNL     1      60.517  17.921  44.656  1.00  0.00     0.238 C 
HETATM   17  O2  UNL     1      61.545  17.335  44.266  1.00  0.00    -0.642 OA
HETATM   18  O3  UNL     1      60.801  18.969  45.590  1.00  0.00    -0.642 OA
ENDBRANCH  14  16
ENDBRANCH  12  14
ENDBRANCH  11  12
BRANCH  11  19
HETATM   19  C9  UNL     1      56.617  15.673  45.095  1.00  0.00     0.218 C 
HETATM   20  O4  UNL     1      57.151  15.942  46.230  1.00  0.00    -0.645 OA
HETATM   21  O5  UNL     1      55.414  15.009  45.168  1.00  0.00    -0.645 OA
ENDBRANCH  11  19
ENDBRANCH   9  11
ENDBRANCH   7   9
ENDBRANCH   4   5
TORSDOF 7
ENDMDL
MODEL 4
REMARK VINA RESULT: -7.989438752      0.772      1.162
REMARK  7 active torsions:
REMARK  status: ('A' for Active; 'I' for Inactive)
REMARK    1  A    between atoms: C4_4  and  C5_5 
REMARK       I    between atoms: C5_5  and  N1_7 
REMARK    2  A    between atoms: N1_7  and  N2_9 
REMARK    3  A    between atoms: N2_9  and  C6_11 
REMARK    4  A    between atoms: C6_11  and  N3_12 
REMARK    5  A    between atoms: C6_11  and  C9_19 
REMARK    6  A    between atoms: N3_12  and  C7_14 
REMARK    7  A    between atoms: C7_14  and  C8_16 
ROOT
HETATM    1  C1  UNL     1      52.149  17.060  36.979  1.00  0.00     0.113 C 
HETATM    2  C2  UNL     1      53.095  16.841  37.721  1.00  0.00    -0.097 C 
HETATM    3  C3  UNL     1      54.203  16.574  38.557  1.00  0.00    -0.018 C 
HETATM    4  C4  UNL     1      55.167  16.346  39.264  1.00  0.00     0.009 C 
ENDROOT
BRANCH   4   5
HETATM    5  C5  UNL     1      56.327  16.057  40.090  1.00  0.00     0.315 C 
HETATM    6  O1  UNL     1      57.230  15.322  39.603  1.00  0.00    -0.256 OA
HETATM    7  N1  UNL     1      56.371  16.618  41.395  1.00  0.00    -0.261 N 
ATOM      8  H1  UNL     1      55.606  17.206  41.724  1.00  0.00     0.190 HD
BRANCH   7   9
HETATM    9  N2  UNL     1      57.445  16.366  42.211  1.00  0.00    -0.300 N 
ATOM     10  H2  UNL     1      58.373  16.191  41.827  1.00  0.00     0.183 HD
BRANCH   9  11
HETATM   11  C6  UNL     1      57.210  16.359  43.623  1.00  0.00     0.301 C 
BRANCH  11  12
HETATM   12  N3  UNL     1      58.392  16.525  44.398  1.00  0.00    -0.345 N 
ATOM     13  H3  UNL     1      58.774  15.678  44.820  1.00  0.00     0.163 HD
BRANCH  12  14
HETATM   14  C7  UNL     1      59.085  17.695  44.651  1.00  0.00     0.176 C 
HETATM   15  S1  UNL     1      58.166  19.085  44.847  1.00  0.00    -0.053 SA
BRANCH  14  16
HETATM   16  C8  UNL     1      60.494  17.878  44.757  1.00  0.00     0.238 C 
HETATM   17  O2  UNL     1      61.371  17.172  44.224  1.00  0.00    -0.642 OA
HETATM   18  O3  UNL     1      61.044  18.952  45.528  1.00  0.00    -0.642 OA
ENDBRANCH  14  16
ENDBRANCH  12  14
ENDBRANCH  11  12
BRANCH  11  19
HETATM   19  C9  UNL     1      56.303  15.273  44.077  1.00  0.00     0.218 C 
HETATM   20  O4  UNL     1      56.025  14.266  43.333  1.00  0.00    -0.645 OA
HETATM   21  O5  UNL     1      55.700  15.257  45.314  1.00  0.00    -0.645 OA
ENDBRANCH  11  19
ENDBRANCH   9  11
ENDBRANCH   7   9
ENDBRANCH   4   5
TORSDOF 7
ENDMDL
MODEL 5
REMARK VINA RESULT: -7.663274508      1.583      1.795
REMARK  7 active torsions:
REMARK  status: ('A' for Active; 'I' for Inactive)
REMARK    1  A    between atoms: C4_4  and  C5_5 
REMARK       I    between atoms: C5_5  and  N1_7 
REMARK    2  A    between atoms: N1_7  and  N2_9 
REMARK    3  A    between atoms: N2_9  and  C6_11 
REMARK    4  A    between atoms: C6_11  and  N3_12 
REMARK    5  A    between atoms: C6_11  and  C9_19 
REMARK    6  A    between atoms: N3_12  and  C7_14 
REMARK    7  A    between atoms: C7_14  and  C8_16 
ROOT
HETATM    1  C1  UNL     1      52.663  17.018  36.800  1.00  0.00     0.113 C 
HETATM    2  C2  UNL     1      53.442  17.191  37.724  1.00  0.00    -0.097 C 
HETATM    3  C3  UNL     1      54.329  17.372  38.810  1.00  0.00    -0.018 C 
HETATM    4  C4  UNL     1      55.092  17.512  39.748  1.00  0.00     0.009 C 
ENDROOT
BRANCH   4   5
HETATM    5  C5  UNL     1      55.985  17.666  40.884  1.00  0.00     0.315 C 
HETATM    6  O1  UNL     1      55.785  18.636  41.665  1.00  0.00    -0.256 OA
HETATM    7  N1  UNL     1      57.029  16.714  41.043  1.00  0.00    -0.261 N 
ATOM      8  H1  UNL     1      57.131  15.952  40.373  1.00  0.00     0.190 HD
BRANCH   7   9
HETATM    9  N2  UNL     1      57.899  16.824  42.098  1.00  0.00    -0.300 N 
ATOM     10  H2  UNL     1      58.859  17.140  41.963  1.00  0.00     0.183 HD
BRANCH   9  11
HETATM   11  C6  UNL     1      57.404  16.478  43.396  1.00  0.00     0.301 C 
BRANCH  11  12
HETATM   12  N3  UNL     1      58.346  16.693  44.441  1.00  0.00    -0.345 N 
ATOM     13  H3  UNL     1      58.521  15.899  45.057  1.00  0.00     0.163 HD
BRANCH  12  14
HETATM   14  C7  UNL     1      59.054  17.847  44.723  1.00  0.00     0.176 C 
HETATM   15  S1  UNL     1      58.152  19.245  44.944  1.00  0.00    -0.053 SA
BRANCH  14  16
HETATM   16  C8  UNL     1      60.464  18.010  44.841  1.00  0.00     0.238 C 
HETATM   17  O2  UNL     1      61.052  18.822  45.580  1.00  0.00    -0.642 OA
HETATM   18  O3  UNL     1      61.369  17.206  44.077  1.00  0.00    -0.642 OA
ENDBRANCH  14  16
ENDBRANCH  12  14
ENDBRANCH  11  12
BRANCH  11  19
HETATM   19  C9  UNL     1      56.696  15.172  43.442  1.00  0.00     0.218 C 
HETATM   20  O4  UNL     1      57.177  14.161  44.067  1.00  0.00    -0.645 OA
HETATM   21  O5  UNL     1      55.484  14.947  42.830  1.00  0.00    -0.645 OA
ENDBRANCH  11  19
ENDBRANCH   9  11
ENDBRANCH   7   9
ENDBRANCH   4   5
TORSDOF 7
ENDMDL
