MODEL 1
REMARK VINA RESULT: -8.351015234      0.000      0.000
REMARK  9 active torsions:
REMARK  status: ('A' for Active; 'I' for Inactive)
REMARK    1  A    between atoms: C2_2  and  C4_4 
REMARK    2  A    between atoms: C4_4  and  C5_5 
REMARK    3  A    between atoms: C7_7  and  O1_8 
REMARK    4  A    between atoms: C11_13  and  O2_14 
REMARK    5  A    between atoms: C11_13  and  C12_16 
REMARK    6  A    between atoms: C12_16  and  O3_18 
REMARK    7  A    between atoms: O3_18  and  C14_19 
REMARK    8  A    between atoms: C14_19  and  C15_21 
REMARK    9  A    between atoms: C16_22  and  C17_23 
ROOT
HETATM    1  C5  UNL     1      21.367   9.809   1.631  1.00  0.00     0.163 C 
HETATM    2  C6  UNL     1      22.516   9.080   2.308  1.00  0.00     0.067 C 
HETATM    3  C7  UNL     1      22.215   8.611   3.670  1.00  0.00     0.134 C 
HETATM    4  C8  UNL     1      21.338   7.421   3.837  1.00  0.00     0.040 C 
HETATM    5  C9  UNL     1      22.257   6.191   3.872  1.00  0.00     0.023 C 
HETATM    6  C10 UNL     1      20.745   7.542   5.234  1.00  0.00     0.023 C 
HETATM    7  C11 UNL     1      20.355   7.255   2.759  1.00  0.00     0.231 C 
HETATM    8  O5  UNL     1      19.818   8.507   2.462  1.00  0.00    -0.197 OA
HETATM    9  O6  UNL     1      20.291   9.014   1.372  1.00  0.00    -0.232 OA
ENDROOT
BRANCH   7  10
HETATM   10  O2  UNL     1      21.086   6.870   1.604  1.00  0.00    -0.361 OA
ATOM     11  H2  UNL     1      20.457   6.492   1.000  1.00  0.00     0.213 HD
ENDBRANCH   7  10
BRANCH   7  12
HETATM   12  C12 UNL     1      19.293   6.248   2.889  1.00  0.00     0.194 C 
HETATM   13  C13 UNL     1      18.380   6.001   1.761  1.00  0.00     0.046 C 
BRANCH  12  14
HETATM   14  O3  UNL     1      18.479   6.447   4.037  1.00  0.00    -0.307 OA
BRANCH  14  15
HETATM   15  C14 UNL     1      18.211   5.483   4.987  1.00  0.00     0.283 C 
HETATM   16  O4  UNL     1      17.179   5.634   5.686  1.00  0.00    -0.260 OA
BRANCH  15  17
HETATM   17  C15 UNL     1      19.085   4.340   5.171  1.00  0.00     0.079 C 
HETATM   18  C16 UNL     1      18.683   3.346   5.934  1.00  0.00    -0.012 C 
BRANCH  18  19
HETATM   19  C17 UNL     1      19.521   2.135   6.176  1.00  0.00    -0.034 C 
HETATM   20  C18 UNL     1      20.867   2.384   5.550  1.00  0.00     0.018 C 
HETATM   21  C19 UNL     1      19.702   1.919   7.663  1.00  0.00     0.018 C 
HETATM   22  C20 UNL     1      18.894   0.917   5.583  1.00  0.00     0.018 C 
ENDBRANCH  18  19
ENDBRANCH  15  17
ENDBRANCH  14  15
ENDBRANCH  12  14
ENDBRANCH   7  12
BRANCH   3  23
HETATM   23  O1  UNL     1      21.661   9.726   4.349  1.00  0.00    -0.395 OA
ATOM     24  H1  UNL     1      21.706   9.514   5.274  1.00  0.00     0.210 HD
ENDBRANCH   3  23
BRANCH   1  25
HETATM   25  C4  UNL     1      21.908  10.557   0.461  1.00  0.00     0.039 C 
BRANCH  25  26
HETATM   26  C2  UNL     1      23.378  10.429   0.247  1.00  0.00    -0.020 C 
HETATM   27  C1  UNL     1      23.648   9.337  -0.762  1.00  0.00     0.009 C 
HETATM   28  C3  UNL     1      24.026  11.683  -0.250  1.00  0.00     0.009 C 
ENDBRANCH  25  26
ENDBRANCH   1  25
TORSDOF 9
ENDMDL
MODEL 2
REMARK VINA RESULT: -7.326477133      1.809      7.675
REMARK  9 active torsions:
REMARK  status: ('A' for Active; 'I' for Inactive)
REMARK    1  A    between atoms: C2_2  and  C4_4 
REMARK    2  A    between atoms: C4_4  and  C5_5 
REMARK    3  A    between atoms: C7_7  and  O1_8 
REMARK    4  A    between atoms: C11_13  and  O2_14 
REMARK    5  A    between atoms: C11_13  and  C12_16 
REMARK    6  A    between atoms: C12_16  and  O3_18 
REMARK    7  A    between atoms: O3_18  and  C14_19 
REMARK    8  A    between atoms: C14_19  and  C15_21 
REMARK    9  A    between atoms: C16_22  and  C17_23 
ROOT
HETATM    1  C5  UNL     1      20.932   5.802   4.588  1.00  0.00     0.163 C 
HETATM    2  C6  UNL     1      20.529   7.215   4.977  1.00  0.00     0.067 C 
HETATM    3  C7  UNL     1      21.443   8.260   4.487  1.00  0.00     0.134 C 
HETATM    4  C8  UNL     1      21.401   8.626   3.046  1.00  0.00     0.040 C 
HETATM    5  C9  UNL     1      20.392   9.775   2.906  1.00  0.00     0.023 C 
HETATM    6  C10 UNL     1      22.766   9.225   2.735  1.00  0.00     0.023 C 
HETATM    7  C11 UNL     1      20.994   7.522   2.167  1.00  0.00     0.231 C 
HETATM    8  O5  UNL     1      21.641   6.363   2.596  1.00  0.00    -0.197 OA
HETATM    9  O6  UNL     1      20.864   5.562   3.248  1.00  0.00    -0.232 OA
ENDROOT
BRANCH   7  10
HETATM   10  O2  UNL     1      19.613   7.300   2.412  1.00  0.00    -0.361 OA
ATOM     11  H2  UNL     1      19.341   7.962   3.038  1.00  0.00     0.213 HD
ENDBRANCH   7  10
BRANCH   7  12
HETATM   12  C12 UNL     1      21.102   7.671   0.710  1.00  0.00     0.194 C 
HETATM   13  C13 UNL     1      20.020   7.176  -0.157  1.00  0.00     0.046 C 
BRANCH  12  14
HETATM   14  O3  UNL     1      22.316   7.148   0.187  1.00  0.00    -0.307 OA
BRANCH  14  15
HETATM   15  C14 UNL     1      23.230   7.871  -0.550  1.00  0.00     0.283 C 
HETATM   16  O4  UNL     1      24.196   7.241  -1.048  1.00  0.00    -0.260 OA
BRANCH  15  17
HETATM   17  C15 UNL     1      23.085   9.302  -0.742  1.00  0.00     0.079 C 
HETATM   18  C16 UNL     1      24.063  10.098  -0.366  1.00  0.00    -0.012 C 
BRANCH  18  19
HETATM   19  C17 UNL     1      23.992  11.580  -0.527  1.00  0.00    -0.034 C 
HETATM   20  C18 UNL     1      22.566  11.995  -0.279  1.00  0.00     0.018 C 
HETATM   21  C19 UNL     1      24.886  12.255   0.491  1.00  0.00     0.018 C 
HETATM   22  C20 UNL     1      24.419  11.995  -1.896  1.00  0.00     0.018 C 
ENDBRANCH  18  19
ENDBRANCH  15  17
ENDBRANCH  14  15
ENDBRANCH  12  14
ENDBRANCH   7  12
BRANCH   3  23
HETATM   23  O1  UNL     1      22.747   7.833   4.845  1.00  0.00    -0.395 OA
ATOM     24  H1  UNL     1      23.279   7.944   4.066  1.00  0.00     0.210 HD
ENDBRANCH   3  23
BRANCH   1  25
HETATM   25  C4  UNL     1      20.182   4.845   5.449  1.00  0.00     0.039 C 
BRANCH  25  26
HETATM   26  C2  UNL     1      18.834   4.454   4.944  1.00  0.00    -0.020 C 
HETATM   27  C1  UNL     1      18.374   3.200   5.651  1.00  0.00     0.009 C 
HETATM   28  C3  UNL     1      17.787   5.505   5.144  1.00  0.00     0.009 C 
ENDBRANCH  25  26
ENDBRANCH   1  25
TORSDOF 9
ENDMDL
MODEL 3
REMARK VINA RESULT: -7.311864214      1.363      2.702
REMARK  9 active torsions:
REMARK  status: ('A' for Active; 'I' for Inactive)
REMARK    1  A    between atoms: C2_2  and  C4_4 
REMARK    2  A    between atoms: C4_4  and  C5_5 
REMARK    3  A    between atoms: C7_7  and  O1_8 
REMARK    4  A    between atoms: C11_13  and  O2_14 
REMARK    5  A    between atoms: C11_13  and  C12_16 
REMARK    6  A    between atoms: C12_16  and  O3_18 
REMARK    7  A    between atoms: O3_18  and  C14_19 
REMARK    8  A    between atoms: C14_19  and  C15_21 
REMARK    9  A    between atoms: C16_22  and  C17_23 
ROOT
HETATM    1  C5  UNL     1      22.582   9.407   1.067  1.00  0.00     0.163 C 
HETATM    2  C6  UNL     1      21.260   9.260   0.331  1.00  0.00     0.067 C 
HETATM    3  C7  UNL     1      20.729   7.887   0.311  1.00  0.00     0.134 C 
HETATM    4  C8  UNL     1      20.119   7.340   1.552  1.00  0.00     0.040 C 
HETATM    5  C9  UNL     1      18.619   7.668   1.494  1.00  0.00     0.023 C 
HETATM    6  C10 UNL     1      20.223   5.827   1.429  1.00  0.00     0.023 C 
HETATM    7  C11 UNL     1      20.684   7.902   2.786  1.00  0.00     0.231 C 
HETATM    8  O5  UNL     1      22.069   7.973   2.638  1.00  0.00    -0.197 OA
HETATM    9  O6  UNL     1      22.491   9.172   2.407  1.00  0.00    -0.232 OA
ENDROOT
BRANCH   7  10
HETATM   10  O2  UNL     1      20.238   9.249   2.857  1.00  0.00    -0.361 OA
ATOM     11  H2  UNL     1      21.000   9.773   3.076  1.00  0.00     0.213 HD
ENDBRANCH   7  10
BRANCH   7  12
HETATM   12  C12 UNL     1      20.326   7.316   4.085  1.00  0.00     0.194 C 
HETATM   13  C13 UNL     1      21.220   7.502   5.240  1.00  0.00     0.046 C 
BRANCH  12  14
HETATM   14  O3  UNL     1      20.045   5.924   4.006  1.00  0.00    -0.307 OA
BRANCH  14  15
HETATM   15  C14 UNL     1      19.085   5.273   4.752  1.00  0.00     0.283 C 
HETATM   16  O4  UNL     1      18.041   5.913   5.031  1.00  0.00    -0.260 OA
BRANCH  15  17
HETATM   17  C15 UNL     1      19.273   3.906   5.199  1.00  0.00     0.079 C 
HETATM   18  C16 UNL     1      19.172   3.635   6.483  1.00  0.00    -0.012 C 
BRANCH  18  19
HETATM   19  C17 UNL     1      19.352   2.256   7.024  1.00  0.00    -0.034 C 
HETATM   20  C18 UNL     1      18.074   1.876   7.725  1.00  0.00     0.018 C 
HETATM   21  C19 UNL     1      19.599   1.283   5.892  1.00  0.00     0.018 C 
HETATM   22  C20 UNL     1      20.500   2.194   7.976  1.00  0.00     0.018 C 
ENDBRANCH  18  19
ENDBRANCH  15  17
ENDBRANCH  14  15
ENDBRANCH  12  14
ENDBRANCH   7  12
BRANCH   3  23
HETATM   23  O1  UNL     1      21.804   7.062  -0.108  1.00  0.00    -0.395 OA
ATOM     24  H1  UNL     1      21.406   6.325  -0.555  1.00  0.00     0.210 HD
ENDBRANCH   3  23
BRANCH   1  25
HETATM   25  C4  UNL     1      23.191  10.711   0.685  1.00  0.00     0.039 C 
BRANCH  25  26
HETATM   26  C2  UNL     1      24.387  10.623  -0.202  1.00  0.00    -0.020 C 
HETATM   27  C1  UNL     1      25.641  10.802   0.622  1.00  0.00     0.009 C 
HETATM   28  C3  UNL     1      24.500   9.321  -0.932  1.00  0.00     0.009 C 
ENDBRANCH  25  26
ENDBRANCH   1  25
TORSDOF 9
ENDMDL
MODEL 4
REMARK VINA RESULT: -7.305639134      1.307      2.496
REMARK  9 active torsions:
REMARK  status: ('A' for Active; 'I' for Inactive)
REMARK    1  A    between atoms: C2_2  and  C4_4 
REMARK    2  A    between atoms: C4_4  and  C5_5 
REMARK    3  A    between atoms: C7_7  and  O1_8 
REMARK    4  A    between atoms: C11_13  and  O2_14 
REMARK    5  A    between atoms: C11_13  and  C12_16 
REMARK    6  A    between atoms: C12_16  and  O3_18 
REMARK    7  A    between atoms: O3_18  and  C14_19 
REMARK    8  A    between atoms: C14_19  and  C15_21 
REMARK    9  A    between atoms: C16_22  and  C17_23 
ROOT
HETATM    1  C5  UNL     1      22.628   9.353   1.264  1.00  0.00     0.163 C 
HETATM    2  C6  UNL     1      21.390   9.105   0.417  1.00  0.00     0.067 C 
HETATM    3  C7  UNL     1      20.935   7.704   0.410  1.00  0.00     0.134 C 
HETATM    4  C8  UNL     1      20.240   7.174   1.613  1.00  0.00     0.040 C 
HETATM    5  C9  UNL     1      18.738   7.415   1.403  1.00  0.00     0.023 C 
HETATM    6  C10 UNL     1      20.434   5.665   1.566  1.00  0.00     0.023 C 
HETATM    7  C11 UNL     1      20.657   7.814   2.867  1.00  0.00     0.231 C 
HETATM    8  O5  UNL     1      22.044   7.956   2.843  1.00  0.00    -0.197 OA
HETATM    9  O6  UNL     1      22.424   9.167   2.598  1.00  0.00    -0.232 OA
ENDROOT
BRANCH   7  10
HETATM   10  O2  UNL     1      20.138   9.136   2.836  1.00  0.00    -0.361 OA
ATOM     11  H2  UNL     1      19.946   9.329   1.926  1.00  0.00     0.213 HD
ENDBRANCH   7  10
BRANCH   7  12
HETATM   12  C12 UNL     1      20.210   7.260   4.152  1.00  0.00     0.194 C 
HETATM   13  C13 UNL     1      21.035   7.455   5.357  1.00  0.00     0.046 C 
BRANCH  12  14
HETATM   14  O3  UNL     1      19.910   5.873   4.083  1.00  0.00    -0.307 OA
BRANCH  14  15
HETATM   15  C14 UNL     1      18.884   5.256   4.768  1.00  0.00     0.283 C 
HETATM   16  O4  UNL     1      17.846   5.930   4.980  1.00  0.00    -0.260 OA
BRANCH  15  17
HETATM   17  C15 UNL     1      18.998   3.885   5.227  1.00  0.00     0.079 C 
HETATM   18  C16 UNL     1      19.230   3.657   6.502  1.00  0.00    -0.012 C 
BRANCH  18  19
HETATM   19  C17 UNL     1      19.361   2.277   7.056  1.00  0.00    -0.034 C 
HETATM   20  C18 UNL     1      19.652   1.353   5.903  1.00  0.00     0.018 C 
HETATM   21  C19 UNL     1      20.513   2.219   8.035  1.00  0.00     0.018 C 
HETATM   22  C20 UNL     1      18.111   1.853   7.753  1.00  0.00     0.018 C 
ENDBRANCH  18  19
ENDBRANCH  15  17
ENDBRANCH  14  15
ENDBRANCH  12  14
ENDBRANCH   7  12
BRANCH   3  23
HETATM   23  O1  UNL     1      22.086   6.925   0.127  1.00  0.00    -0.395 OA
ATOM     24  H1  UNL     1      22.588   7.425  -0.506  1.00  0.00     0.210 HD
ENDBRANCH   3  23
BRANCH   1  25
HETATM   25  C4  UNL     1      23.201  10.674   0.882  1.00  0.00     0.039 C 
BRANCH  25  26
HETATM   26  C2  UNL     1      23.763  10.751  -0.498  1.00  0.00    -0.020 C 
HETATM   27  C1  UNL     1      23.249  11.996  -1.184  1.00  0.00     0.009 C 
HETATM   28  C3  UNL     1      25.259  10.789  -0.538  1.00  0.00     0.009 C 
ENDBRANCH  25  26
ENDBRANCH   1  25
TORSDOF 9
ENDMDL
MODEL 5
REMARK VINA RESULT: -7.205518395      1.386      7.659
REMARK  9 active torsions:
REMARK  status: ('A' for Active; 'I' for Inactive)
REMARK    1  A    between atoms: C2_2  and  C4_4 
REMARK    2  A    between atoms: C4_4  and  C5_5 
REMARK    3  A    between atoms: C7_7  and  O1_8 
REMARK    4  A    between atoms: C11_13  and  O2_14 
REMARK    5  A    between atoms: C11_13  and  C12_16 
REMARK    6  A    between atoms: C12_16  and  O3_18 
REMARK    7  A    between atoms: O3_18  and  C14_19 
REMARK    8  A    between atoms: C14_19  and  C15_21 
REMARK    9  A    between atoms: C16_22  and  C17_23 
ROOT
HETATM    1  C5  UNL     1      18.384   5.510   4.770  1.00  0.00     0.163 C 
HETATM    2  C6  UNL     1      18.721   4.879   3.428  1.00  0.00     0.067 C 
HETATM    3  C7  UNL     1      18.905   5.848   2.335  1.00  0.00     0.134 C 
HETATM    4  C8  UNL     1      20.159   6.647   2.294  1.00  0.00     0.040 C 
HETATM    5  C9  UNL     1      21.165   5.856   1.445  1.00  0.00     0.023 C 
HETATM    6  C10 UNL     1      19.823   7.897   1.492  1.00  0.00     0.023 C 
HETATM    7  C11 UNL     1      20.743   6.899   3.618  1.00  0.00     0.231 C 
HETATM    8  O5  UNL     1      19.710   7.229   4.495  1.00  0.00    -0.197 OA
HETATM    9  O6  UNL     1      19.395   6.260   5.291  1.00  0.00    -0.232 OA
ENDROOT
BRANCH   7  10
HETATM   10  O2  UNL     1      21.251   5.655   4.077  1.00  0.00    -0.361 OA
ATOM     11  H2  UNL     1      21.885   5.367   3.430  1.00  0.00     0.213 HD
ENDBRANCH   7  10
BRANCH   7  12
HETATM   12  C12 UNL     1      21.863   7.840   3.754  1.00  0.00     0.194 C 
HETATM   13  C13 UNL     1      22.751   7.753   4.926  1.00  0.00     0.046 C 
BRANCH  12  14
HETATM   14  O3  UNL     1      21.462   9.199   3.646  1.00  0.00    -0.307 OA
BRANCH  14  15
HETATM   15  C14 UNL     1      21.685   9.999   2.545  1.00  0.00     0.283 C 
HETATM   16  O4  UNL     1      20.741  10.737   2.168  1.00  0.00    -0.260 OA
BRANCH  15  17
HETATM   17  C15 UNL     1      22.958   9.990   1.849  1.00  0.00     0.079 C 
HETATM   18  C16 UNL     1      23.003  10.396   0.599  1.00  0.00    -0.012 C 
BRANCH  18  19
HETATM   19  C17 UNL     1      24.271  10.418  -0.189  1.00  0.00    -0.034 C 
HETATM   20  C18 UNL     1      24.248  11.653  -1.050  1.00  0.00     0.018 C 
HETATM   21  C19 UNL     1      25.459  10.491   0.746  1.00  0.00     0.018 C 
HETATM   22  C20 UNL     1      24.399   9.198  -1.040  1.00  0.00     0.018 C 
ENDBRANCH  18  19
ENDBRANCH  15  17
ENDBRANCH  14  15
ENDBRANCH  12  14
ENDBRANCH   7  12
BRANCH   3  23
HETATM   23  O1  UNL     1      17.779   6.708   2.386  1.00  0.00    -0.395 OA
ATOM     24  H1  UNL     1      17.366   6.544   3.226  1.00  0.00     0.210 HD
ENDBRANCH   3  23
BRANCH   1  25
HETATM   25  C4  UNL     1      17.846   4.449   5.666  1.00  0.00     0.039 C 
BRANCH  25  26
HETATM   26  C2  UNL     1      18.864   3.524   6.243  1.00  0.00    -0.020 C 
HETATM   27  C1  UNL     1      18.549   3.270   7.699  1.00  0.00     0.009 C 
HETATM   28  C3  UNL     1      18.936   2.199   5.551  1.00  0.00     0.009 C 
ENDBRANCH  25  26
ENDBRANCH   1  25
TORSDOF 9
ENDMDL
