MODEL 1
REMARK VINA RESULT: -6.024720589      0.000      0.000
REMARK  11 active torsions:
REMARK  status: ('A' for Active; 'I' for Inactive)
REMARK    1  A    between atoms: N1_1  and  C1_5 
REMARK    2  A    between atoms: C1_5  and  C2_6 
REMARK    3  A    between atoms: C3_8  and  C4_9 
REMARK    4  A    between atoms: C5_15  and  N5_16 
REMARK    5  A    between atoms: C6_23  and  C7_24 
REMARK       I    between atoms: C7_24  and  N7_26 
REMARK    6  A    between atoms: N7_26  and  C8_28 
REMARK    7  A    between atoms: C9_29  and  O3_30 
REMARK    8  A    between atoms: C11_36  and  C12_37 
REMARK    9  A    between atoms: C12_37  and  N9_38 
REMARK   10  A    between atoms: C12_37  and  O4_42 
REMARK   11  A    between atoms: C13_45  and  O6_46 
ROOT
HETATM    1  C7  UNL     1      20.139  -2.626  12.209  1.00  0.00     0.269 C 
HETATM    2  O2  UNL     1      19.317  -2.027  11.573  1.00  0.00    -0.266 OA
HETATM    3  N7  UNL     1      19.977  -3.771  12.818  1.00  0.00    -0.344 N 
ATOM      4  H7  UNL     1      20.833  -4.114  13.257  1.00  0.00     0.163 HD
ENDROOT
BRANCH   1   5
HETATM    5  C6  UNL     1      21.434  -1.968  12.293  1.00  0.00     0.116 A 
HETATM    6  C2  UNL     1      22.293  -2.058  11.292  1.00  0.00     0.042 A 
HETATM    7  S1  UNL     1      23.589  -0.952  11.826  1.00  0.00    -0.073 SA
HETATM    8  C3  UNL     1      22.833  -0.484  13.370  1.00  0.00     0.099 A 
HETATM    9  N6  UNL     1      21.730  -1.193  13.299  1.00  0.00    -0.345 N 
ATOM     10  H6  UNL     1      21.068  -1.134  14.073  1.00  0.00     0.166 HD
BRANCH   6  11
HETATM   11  C1  UNL     1      22.234  -2.960  10.130  1.00  0.00     0.278 C 
BRANCH  11  12
HETATM   12  N1  UNL     1      23.222  -2.365   9.191  1.00  0.00    -0.075 N 
ATOM     13  H13 UNL     1      22.819  -1.982   8.336  1.00  0.00     0.274 HD
ATOM     14  H12 UNL     1      23.638  -1.490   9.510  1.00  0.00     0.274 HD
ATOM     15  H11 UNL     1      23.889  -3.124   9.045  1.00  0.00     0.274 HD
ENDBRANCH  11  12
ENDBRANCH   6  11
BRANCH   8  16
HETATM   16  C4  UNL     1      23.361   0.413  14.395  1.00  0.00     0.297 C 
HETATM   17  N2  UNL     1      22.379   1.243  15.002  1.00  0.00    -0.086 NA
HETATM   18  N3  UNL     1      21.489   0.568  15.824  1.00  0.00    -0.245 N 
HETATM   19  N4  UNL     1      22.030  -0.362  16.662  1.00  0.00    -0.273 N 
ATOM     20  H3  UNL     1      20.486   0.756  15.802  1.00  0.00     0.203 HD
HETATM   21  C5  UNL     1      23.171  -1.075  16.152  1.00  0.00     0.443 C 
ATOM     22  H4  UNL     1      21.651  -0.540  17.592  1.00  0.00     0.186 HD
HETATM   23  O1  UNL     1      24.014  -0.284  15.396  1.00  0.00    -0.313 OA
BRANCH  21  24
HETATM   24  N5  UNL     1      23.907  -1.587  17.305  1.00  0.00    -0.033 N 
ATOM     25  H53 UNL     1      23.429  -2.356  17.775  1.00  0.00     0.279 HD
ATOM     26  H52 UNL     1      24.752  -2.097  17.045  1.00  0.00     0.279 HD
ATOM     27  H51 UNL     1      24.091  -0.795  17.919  1.00  0.00     0.279 HD
ENDBRANCH  21  24
ENDBRANCH   8  16
ENDBRANCH   1   5
BRANCH   3  28
HETATM   28  C8  UNL     1      18.862  -4.650  13.005  1.00  0.00     0.170 C 
HETATM   29  C9  UNL     1      19.435  -6.007  13.323  1.00  0.00     0.171 C 
HETATM   30  C10 UNL     1      18.451  -7.069  12.993  1.00  0.00     0.269 C 
HETATM   31  N8  UNL     1      17.134  -6.516  13.028  1.00  0.00    -0.042 N 
HETATM   32  C11 UNL     1      16.814  -6.177  14.382  1.00  0.00     0.379 C 
ATOM     33  H82 UNL     1      17.026  -5.726  12.392  1.00  0.00     0.280 HD
ATOM     34  H81 UNL     1      16.441  -7.133  12.606  1.00  0.00     0.280 HD
HETATM   35  O5  UNL     1      17.635  -5.311  15.018  1.00  0.00    -0.323 OA
HETATM   36  C13 UNL     1      18.056  -4.235  14.251  1.00  0.00     0.284 C 
BRANCH  29  37
HETATM   37  O3  UNL     1      19.836  -6.029  14.669  1.00  0.00    -0.392 OA
ATOM     38  H3  UNL     1      19.918  -6.932  14.952  1.00  0.00     0.210 HD
ENDBRANCH  29  37
BRANCH  32  39
HETATM   39  C12 UNL     1      15.352  -5.847  14.485  1.00  0.00     0.373 C 
BRANCH  39  40
HETATM   40  N9  UNL     1      14.873  -5.707  13.091  1.00  0.00    -0.049 N 
ATOM     41  H93 UNL     1      15.484  -5.138  12.504  1.00  0.00     0.277 HD
ATOM     42  H92 UNL     1      14.945  -6.566  12.546  1.00  0.00     0.277 HD
ATOM     43  H91 UNL     1      13.922  -5.346  13.161  1.00  0.00     0.277 HD
ENDBRANCH  39  40
BRANCH  39  44
HETATM   44  O4  UNL     1      14.594  -6.913  14.987  1.00  0.00    -0.367 OA
ATOM     45  H4  UNL     1      14.477  -7.609  14.352  1.00  0.00     0.212 HD
ENDBRANCH  39  44
ENDBRANCH  32  39
BRANCH  36  46
HETATM   46  O6  UNL     1      16.904  -3.561  13.821  1.00  0.00    -0.369 OA
ATOM     47  H6  UNL     1      16.724  -2.861  14.438  1.00  0.00     0.212 HD
ENDBRANCH  36  46
ENDBRANCH   3  28
TORSDOF 11
ENDMDL
MODEL 2
REMARK VINA RESULT: -5.868024750      3.699      8.164
REMARK  11 active torsions:
REMARK  status: ('A' for Active; 'I' for Inactive)
REMARK    1  A    between atoms: N1_1  and  C1_5 
REMARK    2  A    between atoms: C1_5  and  C2_6 
REMARK    3  A    between atoms: C3_8  and  C4_9 
REMARK    4  A    between atoms: C5_15  and  N5_16 
REMARK    5  A    between atoms: C6_23  and  C7_24 
REMARK       I    between atoms: C7_24  and  N7_26 
REMARK    6  A    between atoms: N7_26  and  C8_28 
REMARK    7  A    between atoms: C9_29  and  O3_30 
REMARK    8  A    between atoms: C11_36  and  C12_37 
REMARK    9  A    between atoms: C12_37  and  N9_38 
REMARK   10  A    between atoms: C12_37  and  O4_42 
REMARK   11  A    between atoms: C13_45  and  O6_46 
ROOT
HETATM    1  C7  UNL     1      24.046  -1.874  11.815  1.00  0.00     0.269 C 
HETATM    2  O2  UNL     1      25.141  -2.311  12.039  1.00  0.00    -0.266 OA
HETATM    3  N7  UNL     1      23.593  -1.444  10.667  1.00  0.00    -0.344 N 
ATOM      4  H7  UNL     1      22.613  -1.164  10.704  1.00  0.00     0.163 HD
ENDROOT
BRANCH   1   5
HETATM    5  C6  UNL     1      23.165  -1.829  12.972  1.00  0.00     0.116 A 
HETATM    6  C2  UNL     1      22.823  -0.669  13.506  1.00  0.00     0.042 A 
HETATM    7  S1  UNL     1      21.627  -1.171  14.731  1.00  0.00    -0.073 SA
HETATM    8  C3  UNL     1      21.720  -2.920  14.402  1.00  0.00     0.099 A 
HETATM    9  N6  UNL     1      22.611  -2.914  13.437  1.00  0.00    -0.345 N 
ATOM     10  H6  UNL     1      22.884  -3.808  13.029  1.00  0.00     0.166 HD
BRANCH   6  11
HETATM   11  C1  UNL     1      23.409   0.655  13.237  1.00  0.00     0.278 C 
BRANCH  11  12
HETATM   12  N1  UNL     1      22.757   1.524  14.253  1.00  0.00    -0.075 N 
ATOM     13  H13 UNL     1      22.517   2.458  13.922  1.00  0.00     0.274 HD
ATOM     14  H12 UNL     1      21.805   1.253  14.497  1.00  0.00     0.274 HD
ATOM     15  H11 UNL     1      23.417   1.505  15.031  1.00  0.00     0.274 HD
ENDBRANCH  11  12
ENDBRANCH   6  11
BRANCH   8  16
HETATM   16  C4  UNL     1      21.004  -4.001  15.074  1.00  0.00     0.297 C 
HETATM   17  N2  UNL     1      19.703  -3.645  15.522  1.00  0.00    -0.086 NA
HETATM   18  N3  UNL     1      18.780  -3.451  14.505  1.00  0.00    -0.245 N 
HETATM   19  N4  UNL     1      18.793  -4.372  13.498  1.00  0.00    -0.273 N 
ATOM     20  H3  UNL     1      18.130  -2.664  14.509  1.00  0.00     0.203 HD
HETATM   21  C5  UNL     1      20.082  -4.915  13.162  1.00  0.00     0.443 C 
ATOM     22  H4  UNL     1      17.941  -4.657  13.013  1.00  0.00     0.186 HD
HETATM   23  O1  UNL     1      20.890  -5.117  14.264  1.00  0.00    -0.313 OA
BRANCH  21  24
HETATM   24  N5  UNL     1      19.848  -6.197  12.503  1.00  0.00    -0.033 N 
ATOM     25  H53 UNL     1      20.570  -6.433  11.821  1.00  0.00     0.279 HD
ATOM     26  H52 UNL     1      19.986  -6.996  13.122  1.00  0.00     0.279 HD
ATOM     27  H51 UNL     1      18.913  -6.160  12.099  1.00  0.00     0.279 HD
ENDBRANCH  21  24
ENDBRANCH   8  16
ENDBRANCH   1   5
BRANCH   3  28
HETATM   28  C8  UNL     1      24.173  -1.279   9.367  1.00  0.00     0.170 C 
HETATM   29  C9  UNL     1      23.736  -2.467   8.550  1.00  0.00     0.171 C 
HETATM   30  C10 UNL     1      24.681  -2.694   7.428  1.00  0.00     0.269 C 
HETATM   31  N8  UNL     1      25.343  -1.466   7.117  1.00  0.00    -0.042 N 
HETATM   32  C11 UNL     1      24.387  -0.555   6.565  1.00  0.00     0.379 C 
ATOM     33  H82 UNL     1      25.836  -1.075   7.920  1.00  0.00     0.280 HD
ATOM     34  H81 UNL     1      26.149  -1.602   6.508  1.00  0.00     0.280 HD
HETATM   35  O5  UNL     1      23.305  -0.253   7.320  1.00  0.00    -0.323 OA
HETATM   36  C13 UNL     1      23.572  -0.046   8.665  1.00  0.00     0.284 C 
BRANCH  29  37
HETATM   37  O3  UNL     1      22.413  -2.264   8.121  1.00  0.00    -0.392 OA
ATOM     38  H3  UNL     1      22.414  -2.099   7.186  1.00  0.00     0.210 HD
ENDBRANCH  29  37
BRANCH  32  39
HETATM   39  C12 UNL     1      25.100   0.634   5.988  1.00  0.00     0.373 C 
BRANCH  39  40
HETATM   40  N9  UNL     1      25.081   0.439   4.520  1.00  0.00    -0.049 N 
ATOM     41  H93 UNL     1      25.350  -0.501   4.229  1.00  0.00     0.277 HD
ATOM     42  H92 UNL     1      24.141   0.426   4.122  1.00  0.00     0.277 HD
ATOM     43  H91 UNL     1      25.676   1.172   4.136  1.00  0.00     0.277 HD
ENDBRANCH  39  40
BRANCH  39  44
HETATM   44  O4  UNL     1      24.391   1.828   6.170  1.00  0.00    -0.367 OA
ATOM     45  H4  UNL     1      23.999   1.892   7.033  1.00  0.00     0.212 HD
ENDBRANCH  39  44
ENDBRANCH  32  39
BRANCH  36  46
HETATM   46  O6  UNL     1      24.507   0.998   8.743  1.00  0.00    -0.369 OA
ATOM     47  H6  UNL     1      24.330   1.605   8.034  1.00  0.00     0.212 HD
ENDBRANCH  36  46
ENDBRANCH   3  28
TORSDOF 11
ENDMDL
MODEL 3
REMARK VINA RESULT: -5.753522655      4.254      8.521
REMARK  11 active torsions:
REMARK  status: ('A' for Active; 'I' for Inactive)
REMARK    1  A    between atoms: N1_1  and  C1_5 
REMARK    2  A    between atoms: C1_5  and  C2_6 
REMARK    3  A    between atoms: C3_8  and  C4_9 
REMARK    4  A    between atoms: C5_15  and  N5_16 
REMARK    5  A    between atoms: C6_23  and  C7_24 
REMARK       I    between atoms: C7_24  and  N7_26 
REMARK    6  A    between atoms: N7_26  and  C8_28 
REMARK    7  A    between atoms: C9_29  and  O3_30 
REMARK    8  A    between atoms: C11_36  and  C12_37 
REMARK    9  A    between atoms: C12_37  and  N9_38 
REMARK   10  A    between atoms: C12_37  and  O4_42 
REMARK   11  A    between atoms: C13_45  and  O6_46 
ROOT
HETATM    1  C7  UNL     1      23.152  -1.035  10.400  1.00  0.00     0.269 C 
HETATM    2  O2  UNL     1      22.099  -0.625   9.996  1.00  0.00    -0.266 OA
HETATM    3  N7  UNL     1      24.254  -1.176   9.711  1.00  0.00    -0.344 N 
ATOM      4  H7  UNL     1      25.040  -1.496  10.277  1.00  0.00     0.163 HD
ENDROOT
BRANCH   1   5
HETATM    5  C6  UNL     1      23.155  -1.411  11.805  1.00  0.00     0.116 A 
HETATM    6  C2  UNL     1      23.199  -0.481  12.744  1.00  0.00     0.042 A 
HETATM    7  S1  UNL     1      22.998  -1.453  14.227  1.00  0.00    -0.073 SA
HETATM    8  C3  UNL     1      22.884  -3.037  13.419  1.00  0.00     0.099 A 
HETATM    9  N6  UNL     1      23.005  -2.654  12.169  1.00  0.00    -0.345 N 
ATOM     10  H6  UNL     1      22.981  -3.369  11.441  1.00  0.00     0.166 HD
BRANCH   6  11
HETATM   11  C1  UNL     1      23.491   0.953  12.581  1.00  0.00     0.278 C 
BRANCH  11  12
HETATM   12  N1  UNL     1      23.175   1.515  13.921  1.00  0.00    -0.075 N 
ATOM     13  H13 UNL     1      23.042   0.818  14.654  1.00  0.00     0.274 HD
ATOM     14  H12 UNL     1      23.951   1.996  14.374  1.00  0.00     0.274 HD
ATOM     15  H11 UNL     1      22.359   2.101  13.739  1.00  0.00     0.274 HD
ENDBRANCH  11  12
ENDBRANCH   6  11
BRANCH   8  16
HETATM   16  C4  UNL     1      22.732  -4.353  14.035  1.00  0.00     0.297 C 
HETATM   17  N2  UNL     1      22.488  -4.314  15.435  1.00  0.00    -0.086 NA
HETATM   18  N3  UNL     1      21.237  -3.828  15.784  1.00  0.00    -0.245 N 
HETATM   19  N4  UNL     1      20.185  -4.288  15.045  1.00  0.00    -0.273 N 
ATOM     20  H3  UNL     1      21.109  -3.165  16.549  1.00  0.00     0.203 HD
HETATM   21  C5  UNL     1      20.460  -4.544  13.657  1.00  0.00     0.443 C 
ATOM     22  H4  UNL     1      19.263  -4.441  15.452  1.00  0.00     0.186 HD
HETATM   23  O1  UNL     1      21.716  -5.079  13.440  1.00  0.00    -0.313 OA
BRANCH  21  24
HETATM   24  N5  UNL     1      19.453  -5.491  13.187  1.00  0.00    -0.033 N 
ATOM     25  H53 UNL     1      19.509  -6.397  13.652  1.00  0.00     0.279 HD
ATOM     26  H52 UNL     1      18.507  -5.249  13.485  1.00  0.00     0.279 HD
ATOM     27  H51 UNL     1      19.549  -5.553  12.174  1.00  0.00     0.279 HD
ENDBRANCH  21  24
ENDBRANCH   8  16
ENDBRANCH   1   5
BRANCH   3  28
HETATM   28  C8  UNL     1      24.599  -0.978   8.335  1.00  0.00     0.170 C 
HETATM   29  C9  UNL     1      24.135  -2.208   7.597  1.00  0.00     0.171 C 
HETATM   30  C10 UNL     1      24.901  -2.368   6.335  1.00  0.00     0.269 C 
HETATM   31  N8  UNL     1      25.399  -1.094   5.924  1.00  0.00    -0.042 N 
HETATM   32  C11 UNL     1      24.293  -0.271   5.537  1.00  0.00     0.379 C 
ATOM     33  H82 UNL     1      25.981  -0.654   6.636  1.00  0.00     0.280 HD
ATOM     34  H81 UNL     1      26.104  -1.169   5.191  1.00  0.00     0.280 HD
HETATM   35  O5  UNL     1      23.327  -0.051   6.459  1.00  0.00    -0.323 OA
HETATM   36  C13 UNL     1      23.791   0.193   7.743  1.00  0.00     0.284 C 
BRANCH  29  37
HETATM   37  O3  UNL     1      22.748  -2.120   7.390  1.00  0.00    -0.392 OA
ATOM     38  H3  UNL     1      22.417  -2.979   7.155  1.00  0.00     0.210 HD
ENDBRANCH  29  37
BRANCH  32  39
HETATM   39  C12 UNL     1      24.800   0.966   4.854  1.00  0.00     0.373 C 
BRANCH  39  40
HETATM   40  N9  UNL     1      26.268   0.958   5.048  1.00  0.00    -0.049 N 
ATOM     41  H93 UNL     1      26.619   1.776   5.548  1.00  0.00     0.277 HD
ATOM     42  H92 UNL     1      26.588   0.259   5.719  1.00  0.00     0.277 HD
ATOM     43  H91 UNL     1      26.669   0.845   4.117  1.00  0.00     0.277 HD
ENDBRANCH  39  40
BRANCH  39  44
HETATM   44  O4  UNL     1      24.653   0.911   3.461  1.00  0.00    -0.367 OA
ATOM     45  H4  UNL     1      24.208   1.673   3.111  1.00  0.00     0.212 HD
ENDBRANCH  39  44
ENDBRANCH  32  39
BRANCH  36  46
HETATM   46  O6  UNL     1      24.635   1.311   7.670  1.00  0.00    -0.369 OA
ATOM     47  H6  UNL     1      24.106   2.065   7.434  1.00  0.00     0.212 HD
ENDBRANCH  36  46
ENDBRANCH   3  28
TORSDOF 11
ENDMDL
MODEL 4
REMARK VINA RESULT: -5.742319962      4.329      7.711
REMARK  11 active torsions:
REMARK  status: ('A' for Active; 'I' for Inactive)
REMARK    1  A    between atoms: N1_1  and  C1_5 
REMARK    2  A    between atoms: C1_5  and  C2_6 
REMARK    3  A    between atoms: C3_8  and  C4_9 
REMARK    4  A    between atoms: C5_15  and  N5_16 
REMARK    5  A    between atoms: C6_23  and  C7_24 
REMARK       I    between atoms: C7_24  and  N7_26 
REMARK    6  A    between atoms: N7_26  and  C8_28 
REMARK    7  A    between atoms: C9_29  and  O3_30 
REMARK    8  A    between atoms: C11_36  and  C12_37 
REMARK    9  A    between atoms: C12_37  and  N9_38 
REMARK   10  A    between atoms: C12_37  and  O4_42 
REMARK   11  A    between atoms: C13_45  and  O6_46 
ROOT
HETATM    1  C7  UNL     1      24.053  -3.145  11.094  1.00  0.00     0.269 C 
HETATM    2  O2  UNL     1      24.984  -3.896  11.008  1.00  0.00    -0.266 OA
HETATM    3  N7  UNL     1      23.684  -2.250  10.215  1.00  0.00    -0.344 N 
ATOM      4  H7  UNL     1      22.831  -1.758  10.481  1.00  0.00     0.163 HD
ENDROOT
BRANCH   1   5
HETATM    5  C6  UNL     1      23.287  -3.270  12.324  1.00  0.00     0.116 A 
HETATM    6  C2  UNL     1      22.376  -4.220  12.448  1.00  0.00     0.042 A 
HETATM    7  S1  UNL     1      21.894  -4.039  14.157  1.00  0.00    -0.073 SA
HETATM    8  C3  UNL     1      22.978  -2.676  14.531  1.00  0.00     0.099 A 
HETATM    9  N6  UNL     1      23.555  -2.527  13.362  1.00  0.00    -0.345 N 
ATOM     10  H6  UNL     1      24.253  -1.790  13.258  1.00  0.00     0.166 HD
BRANCH   6  11
HETATM   11  C1  UNL     1      21.821  -5.082  11.392  1.00  0.00     0.278 C 
BRANCH  11  12
HETATM   12  N1  UNL     1      22.812  -6.187  11.303  1.00  0.00    -0.075 N 
ATOM     13  H13 UNL     1      22.460  -7.098  11.599  1.00  0.00     0.274 HD
ATOM     14  H12 UNL     1      23.049  -6.471  10.353  1.00  0.00     0.274 HD
ATOM     15  H11 UNL     1      23.598  -5.837  11.852  1.00  0.00     0.274 HD
ENDBRANCH  11  12
ENDBRANCH   6  11
BRANCH   8  16
HETATM   16  C4  UNL     1      23.112  -1.953  15.794  1.00  0.00     0.297 C 
HETATM   17  N2  UNL     1      24.000  -0.844  15.736  1.00  0.00    -0.086 NA
HETATM   18  N3  UNL     1      23.530   0.226  14.988  1.00  0.00    -0.245 N 
HETATM   19  N4  UNL     1      22.223   0.566  15.178  1.00  0.00    -0.273 N 
ATOM     20  H3  UNL     1      24.129   0.730  14.333  1.00  0.00     0.203 HD
HETATM   21  C5  UNL     1      21.327  -0.525  15.454  1.00  0.00     0.443 C 
ATOM     22  H4  UNL     1      21.901   1.532  15.128  1.00  0.00     0.186 HD
HETATM   23  O1  UNL     1      21.888  -1.501  16.255  1.00  0.00    -0.313 OA
BRANCH  21  24
HETATM   24  N5  UNL     1      20.163   0.037  16.135  1.00  0.00    -0.033 N 
ATOM     25  H53 UNL     1      19.779  -0.584  16.847  1.00  0.00     0.279 HD
ATOM     26  H52 UNL     1      20.398   0.815  16.751  1.00  0.00     0.279 HD
ATOM     27  H51 UNL     1      19.486   0.287  15.415  1.00  0.00     0.279 HD
ENDBRANCH  21  24
ENDBRANCH   8  16
ENDBRANCH   1   5
BRANCH   3  28
HETATM   28  C8  UNL     1      24.217  -1.810   8.960  1.00  0.00     0.170 C 
HETATM   29  C9  UNL     1      23.722  -2.782   7.921  1.00  0.00     0.171 C 
HETATM   30  C10 UNL     1      24.617  -2.767   6.736  1.00  0.00     0.269 C 
HETATM   31  N8  UNL     1      25.293  -1.510   6.676  1.00  0.00    -0.042 N 
HETATM   32  C11 UNL     1      24.337  -0.487   6.380  1.00  0.00     0.379 C 
ATOM     33  H82 UNL     1      25.826  -1.312   7.523  1.00  0.00     0.280 HD
ATOM     34  H81 UNL     1      26.072  -1.517   6.017  1.00  0.00     0.280 HD
HETATM   35  O5  UNL     1      23.292  -0.346   7.228  1.00  0.00    -0.323 OA
HETATM   36  C13 UNL     1      23.616  -0.444   8.573  1.00  0.00     0.284 C 
BRANCH  29  37
HETATM   37  O3  UNL     1      22.388  -2.473   7.604  1.00  0.00    -0.392 OA
ATOM     38  H3  UNL     1      22.300  -2.415   6.660  1.00  0.00     0.210 HD
ENDBRANCH  29  37
BRANCH  32  39
HETATM   39  C12 UNL     1      25.052   0.791   6.048  1.00  0.00     0.373 C 
BRANCH  39  40
HETATM   40  N9  UNL     1      25.044   0.883   4.571  1.00  0.00    -0.049 N 
ATOM     41  H93 UNL     1      25.261   0.002   4.104  1.00  0.00     0.277 HD
ATOM     42  H92 UNL     1      24.112   1.006   4.174  1.00  0.00     0.277 HD
ATOM     43  H91 UNL     1      25.689   1.638   4.338  1.00  0.00     0.277 HD
ENDBRANCH  39  40
BRANCH  39  44
HETATM   44  O4  UNL     1      24.340   1.928   6.452  1.00  0.00    -0.367 OA
ATOM     45  H4  UNL     1      23.881   2.345   5.734  1.00  0.00     0.212 HD
ENDBRANCH  39  44
ENDBRANCH  32  39
BRANCH  36  46
HETATM   46  O6  UNL     1      24.575   0.544   8.839  1.00  0.00    -0.369 OA
ATOM     47  H6  UNL     1      24.224   1.380   8.552  1.00  0.00     0.212 HD
ENDBRANCH  36  46
ENDBRANCH   3  28
TORSDOF 11
ENDMDL
MODEL 5
REMARK VINA RESULT: -5.728329509      4.552      8.947
REMARK  11 active torsions:
REMARK  status: ('A' for Active; 'I' for Inactive)
REMARK    1  A    between atoms: N1_1  and  C1_5 
REMARK    2  A    between atoms: C1_5  and  C2_6 
REMARK    3  A    between atoms: C3_8  and  C4_9 
REMARK    4  A    between atoms: C5_15  and  N5_16 
REMARK    5  A    between atoms: C6_23  and  C7_24 
REMARK       I    between atoms: C7_24  and  N7_26 
REMARK    6  A    between atoms: N7_26  and  C8_28 
REMARK    7  A    between atoms: C9_29  and  O3_30 
REMARK    8  A    between atoms: C11_36  and  C12_37 
REMARK    9  A    between atoms: C12_37  and  N9_38 
REMARK   10  A    between atoms: C12_37  and  O4_42 
REMARK   11  A    between atoms: C13_45  and  O6_46 
ROOT
HETATM    1  C7  UNL     1      24.821  -1.270  10.738  1.00  0.00     0.269 C 
HETATM    2  O2  UNL     1      25.971  -0.990  10.929  1.00  0.00    -0.266 OA
HETATM    3  N7  UNL     1      24.216  -1.353   9.582  1.00  0.00    -0.344 N 
ATOM      4  H7  UNL     1      23.245  -1.656   9.660  1.00  0.00     0.163 HD
ENDROOT
BRANCH   1   5
HETATM    5  C6  UNL     1      24.053  -1.531  11.946  1.00  0.00     0.116 A 
HETATM    6  C2  UNL     1      23.413  -0.547  12.554  1.00  0.00     0.042 A 
HETATM    7  S1  UNL     1      22.517  -1.427  13.823  1.00  0.00    -0.073 SA
HETATM    8  C3  UNL     1      23.114  -3.053  13.403  1.00  0.00     0.099 A 
HETATM    9  N6  UNL     1      23.890  -2.746  12.389  1.00  0.00    -0.345 N 
ATOM     10  H6  UNL     1      24.393  -3.501  11.922  1.00  0.00     0.166 HD
BRANCH   6  11
HETATM   11  C1  UNL     1      23.547   0.899  12.316  1.00  0.00     0.278 C 
BRANCH  11  12
HETATM   12  N1  UNL     1      23.507   1.471  13.689  1.00  0.00    -0.075 N 
ATOM     13  H13 UNL     1      22.837   2.231  13.813  1.00  0.00     0.274 HD
ATOM     14  H12 UNL     1      23.098   0.858  14.393  1.00  0.00     0.274 HD
ATOM     15  H11 UNL     1      24.479   1.729  13.860  1.00  0.00     0.274 HD
ENDBRANCH  11  12
ENDBRANCH   6  11
BRANCH   8  16
HETATM   16  C4  UNL     1      22.812  -4.320  14.063  1.00  0.00     0.297 C 
HETATM   17  N2  UNL     1      22.196  -4.179  15.337  1.00  0.00    -0.086 NA
HETATM   18  N3  UNL     1      20.893  -3.706  15.293  1.00  0.00    -0.245 N 
HETATM   19  N4  UNL     1      20.086  -4.255  14.340  1.00  0.00    -0.273 N 
ATOM     20  H3  UNL     1      20.557  -2.989  15.937  1.00  0.00     0.203 HD
HETATM   21  C5  UNL     1      20.729  -4.610  13.104  1.00  0.00     0.443 C 
ATOM     22  H4  UNL     1      19.088  -4.404  14.494  1.00  0.00     0.186 HD
HETATM   23  O1  UNL     1      22.001  -5.122  13.279  1.00  0.00    -0.313 OA
BRANCH  21  24
HETATM   24  N5  UNL     1      19.895  -5.621  12.460  1.00  0.00    -0.033 N 
ATOM     25  H53 UNL     1      20.355  -6.077  11.672  1.00  0.00     0.279 HD
ATOM     26  H52 UNL     1      19.762  -6.454  13.034  1.00  0.00     0.279 HD
ATOM     27  H51 UNL     1      19.018  -5.168  12.204  1.00  0.00     0.279 HD
ENDBRANCH  21  24
ENDBRANCH   8  16
ENDBRANCH   1   5
BRANCH   3  28
HETATM   28  C8  UNL     1      24.619  -1.109   8.229  1.00  0.00     0.170 C 
HETATM   29  C9  UNL     1      23.369  -1.185   7.390  1.00  0.00     0.171 C 
HETATM   30  C10 UNL     1      23.715  -1.499   5.981  1.00  0.00     0.269 C 
HETATM   31  N8  UNL     1      25.058  -1.083   5.724  1.00  0.00    -0.042 N 
HETATM   32  C11 UNL     1      25.113   0.347   5.767  1.00  0.00     0.379 C 
ATOM     33  H82 UNL     1      25.729  -1.518   6.357  1.00  0.00     0.280 HD
ATOM     34  H81 UNL     1      25.422  -1.461   4.850  1.00  0.00     0.280 HD
HETATM   35  O5  UNL     1      24.711   0.952   6.909  1.00  0.00    -0.323 OA
HETATM   36  C13 UNL     1      25.136   0.335   8.076  1.00  0.00     0.284 C 
BRANCH  29  37
HETATM   37  O3  UNL     1      22.655   0.018   7.525  1.00  0.00    -0.392 OA
ATOM     38  H3  UNL     1      21.852  -0.042   7.020  1.00  0.00     0.210 HD
ENDBRANCH  29  37
BRANCH  32  39
HETATM   39  C12 UNL     1      26.439   0.816   5.241  1.00  0.00     0.373 C 
BRANCH  39  40
HETATM   40  N9  UNL     1      26.589   0.183   3.911  1.00  0.00    -0.049 N 
ATOM     41  H93 UNL     1      27.560   0.015   3.645  1.00  0.00     0.277 HD
ATOM     42  H92 UNL     1      26.285  -0.790   3.885  1.00  0.00     0.277 HD
ATOM     43  H91 UNL     1      26.085   0.786   3.260  1.00  0.00     0.277 HD
ENDBRANCH  39  40
BRANCH  39  44
HETATM   44  O4  UNL     1      26.451   2.187   4.956  1.00  0.00    -0.367 OA
ATOM     45  H4  UNL     1      27.147   2.430   4.356  1.00  0.00     0.212 HD
ENDBRANCH  39  44
ENDBRANCH  32  39
BRANCH  36  46
HETATM   46  O6  UNL     1      26.538   0.293   8.033  1.00  0.00    -0.369 OA
ATOM     47  H6  UNL     1      26.868   0.611   8.866  1.00  0.00     0.212 HD
ENDBRANCH  36  46
ENDBRANCH   3  28
TORSDOF 11
ENDMDL
