MODEL 1
REMARK VINA RESULT: -7.741156072      0.000      0.000
REMARK  11 active torsions:
REMARK  status: ('A' for Active; 'I' for Inactive)
REMARK    1  A    between atoms: C1_2  and  S1_4 
REMARK    2  A    between atoms: S1_4  and  C2_7 
REMARK    3  A    between atoms: C4_9  and  O4_10 
REMARK    4  A    between atoms: C5_12  and  N2_13 
REMARK    5  A    between atoms: N2_13  and  C6_15 
REMARK    6  A    between atoms: C6_15  and  N3_16 
REMARK    7  A    between atoms: C6_15  and  C9_29 
REMARK    8  A    between atoms: N3_16  and  C7_18 
REMARK    9  A    between atoms: C8_23  and  O5_24 
REMARK   10  A    between atoms: C8_23  and  O6_26 
REMARK   11  A    between atoms: C10_32  and  O10_33 
ROOT
HETATM    1  N2  UNL     1      21.927  -2.860  12.868  1.00  0.00    -0.356 N 
ATOM      2  H2  UNL     1      21.122  -2.376  13.266  1.00  0.00     0.162 HD
ENDROOT
BRANCH   1   3
HETATM    3  C5  UNL     1      22.638  -2.201  11.841  1.00  0.00     0.099 A 
HETATM    4  C4  UNL     1      22.342  -2.589  10.519  1.00  0.00     0.096 A 
HETATM    5  C3  UNL     1      22.984  -2.050   9.431  1.00  0.00     0.065 A 
HETATM    6  C2  UNL     1      23.969  -1.081   9.621  1.00  0.00     0.098 A 
HETATM    7  C11 UNL     1      24.272  -0.692  10.903  1.00  0.00     0.103 A 
HETATM    8  C10 UNL     1      23.604  -1.256  12.002  1.00  0.00     0.120 A 
HETATM    9  N7  UNL     1      25.269   0.297  11.094  1.00  0.00    -0.098 NA
BRANCH   4  10
HETATM   10  O4  UNL     1      21.384  -3.536  10.300  1.00  0.00    -0.358 OA
ATOM     11  H4  UNL     1      20.503  -3.365  10.612  1.00  0.00     0.217 HD
ENDBRANCH   4  10
BRANCH   6  12
HETATM   12  S1  UNL     1      24.782  -0.404   8.231  1.00  0.00     0.260 S 
HETATM   13  O2  UNL     1      26.206  -0.058   8.602  1.00  0.00    -0.213 OA
HETATM   14  O3  UNL     1      24.777  -1.490   7.165  1.00  0.00    -0.213 OA
BRANCH  12  15
HETATM   15  C1  UNL     1      23.945   0.993   7.598  1.00  0.00     0.354 C 
HETATM   16  N1  UNL     1      24.499   1.857   6.612  1.00  0.00    -0.046 NA
HETATM   17  O1  UNL     1      22.794   1.253   8.030  1.00  0.00    -0.258 OA
ENDBRANCH  12  15
ENDBRANCH   6  12
BRANCH   8  18
HETATM   18  O10 UNL     1      23.974  -0.816  13.244  1.00  0.00    -0.357 OA
ATOM     19  H10 UNL     1      24.197  -1.423  13.941  1.00  0.00     0.218 HD
ENDBRANCH   8  18
ENDBRANCH   1   3
BRANCH   1  20
HETATM   20  C6  UNL     1      22.251  -4.184  13.409  1.00  0.00     0.284 C 
BRANCH  20  21
HETATM   21  N3  UNL     1      22.715  -3.975  14.736  1.00  0.00    -0.353 N 
ATOM     22  H3  UNL     1      23.207  -4.730  15.213  1.00  0.00     0.159 HD
BRANCH  21  23
HETATM   23  C7  UNL     1      22.518  -2.768  15.407  1.00  0.00     0.343 C 
HETATM   24  N4  UNL     1      21.161  -2.374  15.710  1.00  0.00    -0.073 NA
HETATM   25  N5  UNL     1      21.195  -0.948  15.748  1.00  0.00    -0.025 NA
HETATM   26  N6  UNL     1      22.128  -0.487  16.640  1.00  0.00    -0.240 N 
HETATM   27  C8  UNL     1      23.278  -1.272  16.885  1.00  0.00     0.388 C 
ATOM     28  H6  UNL     1      21.995   0.404  17.118  1.00  0.00     0.185 HD
HETATM   29  O7  UNL     1      23.216  -2.613  16.618  1.00  0.00    -0.273 OA
BRANCH  27  30
HETATM   30  O5  UNL     1      23.638  -1.054  18.238  1.00  0.00    -0.324 OA
ATOM     31  H5  UNL     1      24.562  -1.261  18.311  1.00  0.00     0.217 HD
ENDBRANCH  27  30
BRANCH  27  32
HETATM   32  O6  UNL     1      24.395  -0.777  16.164  1.00  0.00    -0.324 OA
ATOM     33  H6  UNL     1      24.740   0.009  16.569  1.00  0.00     0.217 HD
ENDBRANCH  27  32
ENDBRANCH  21  23
ENDBRANCH  20  21
BRANCH  20  34
HETATM   34  C9  UNL     1      21.100  -5.071  13.277  1.00  0.00     0.217 C 
HETATM   35  O8  UNL     1      20.694  -5.574  12.218  1.00  0.00    -0.645 OA
HETATM   36  O9  UNL     1      20.361  -5.414  14.436  1.00  0.00    -0.645 OA
ENDBRANCH  20  34
ENDBRANCH   1  20
TORSDOF 11
ENDMDL
MODEL 2
REMARK VINA RESULT: -7.714456266      0.911      1.782
REMARK  11 active torsions:
REMARK  status: ('A' for Active; 'I' for Inactive)
REMARK    1  A    between atoms: C1_2  and  S1_4 
REMARK    2  A    between atoms: S1_4  and  C2_7 
REMARK    3  A    between atoms: C4_9  and  O4_10 
REMARK    4  A    between atoms: C5_12  and  N2_13 
REMARK    5  A    between atoms: N2_13  and  C6_15 
REMARK    6  A    between atoms: C6_15  and  N3_16 
REMARK    7  A    between atoms: C6_15  and  C9_29 
REMARK    8  A    between atoms: N3_16  and  C7_18 
REMARK    9  A    between atoms: C8_23  and  O5_24 
REMARK   10  A    between atoms: C8_23  and  O6_26 
REMARK   11  A    between atoms: C10_32  and  O10_33 
ROOT
HETATM    1  N2  UNL     1      21.972  -2.900  12.877  1.00  0.00    -0.356 N 
ATOM      2  H2  UNL     1      21.298  -2.299  13.351  1.00  0.00     0.162 HD
ENDROOT
BRANCH   1   3
HETATM    3  C5  UNL     1      22.601  -2.385  11.722  1.00  0.00     0.099 A 
HETATM    4  C4  UNL     1      23.634  -1.449  11.930  1.00  0.00     0.096 A 
HETATM    5  C3  UNL     1      24.306  -0.850  10.892  1.00  0.00     0.065 A 
HETATM    6  C2  UNL     1      23.966  -1.164   9.576  1.00  0.00     0.098 A 
HETATM    7  C11 UNL     1      22.960  -2.074   9.355  1.00  0.00     0.103 A 
HETATM    8  C10 UNL     1      22.285  -2.675  10.430  1.00  0.00     0.120 A 
HETATM    9  N7  UNL     1      22.619  -2.396   8.018  1.00  0.00    -0.098 NA
BRANCH   4  10
HETATM   10  O4  UNL     1      23.990  -1.119  13.206  1.00  0.00    -0.358 OA
ATOM     11  H4  UNL     1      23.777  -0.248  13.520  1.00  0.00     0.217 HD
ENDBRANCH   4  10
BRANCH   6  12
HETATM   12  S1  UNL     1      24.823  -0.394   8.264  1.00  0.00     0.260 S 
HETATM   13  O2  UNL     1      26.183   0.055   8.748  1.00  0.00    -0.213 OA
HETATM   14  O3  UNL     1      24.986  -1.454   7.183  1.00  0.00    -0.213 OA
BRANCH  12  15
HETATM   15  C1  UNL     1      23.925   0.945   7.591  1.00  0.00     0.354 C 
HETATM   16  N1  UNL     1      24.461   1.837   6.620  1.00  0.00    -0.046 NA
HETATM   17  O1  UNL     1      22.745   1.137   7.980  1.00  0.00    -0.258 OA
ENDBRANCH  12  15
ENDBRANCH   6  12
BRANCH   8  18
HETATM   18  O10 UNL     1      21.291  -3.562  10.119  1.00  0.00    -0.357 OA
ATOM     19  H10 UNL     1      21.230  -4.410  10.543  1.00  0.00     0.218 HD
ENDBRANCH   8  18
ENDBRANCH   1   3
BRANCH   1  20
HETATM   20  C6  UNL     1      22.210  -4.228  13.451  1.00  0.00     0.284 C 
BRANCH  20  21
HETATM   21  N3  UNL     1      22.647  -4.019  14.787  1.00  0.00    -0.353 N 
ATOM     22  H3  UNL     1      23.098  -4.785  15.286  1.00  0.00     0.159 HD
BRANCH  21  23
HETATM   23  C7  UNL     1      22.479  -2.795  15.436  1.00  0.00     0.343 C 
HETATM   24  N4  UNL     1      21.131  -2.349  15.703  1.00  0.00    -0.073 NA
HETATM   25  N5  UNL     1      21.215  -0.925  15.723  1.00  0.00    -0.025 NA
HETATM   26  N6  UNL     1      22.144  -0.485  16.629  1.00  0.00    -0.240 N 
HETATM   27  C8  UNL     1      23.260  -1.306  16.910  1.00  0.00     0.388 C 
ATOM     28  H6  UNL     1      22.033   0.418  17.092  1.00  0.00     0.185 HD
HETATM   29  O7  UNL     1      23.155  -2.648  16.661  1.00  0.00    -0.273 OA
BRANCH  27  30
HETATM   30  O5  UNL     1      23.597  -1.082  18.269  1.00  0.00    -0.324 OA
ATOM     31  H5  UNL     1      24.545  -1.119  18.324  1.00  0.00     0.217 HD
ENDBRANCH  27  30
BRANCH  27  32
HETATM   32  O6  UNL     1      24.409  -0.862  16.209  1.00  0.00    -0.324 OA
ATOM     33  H6  UNL     1      25.203  -1.190  16.613  1.00  0.00     0.217 HD
ENDBRANCH  27  32
ENDBRANCH  21  23
ENDBRANCH  20  21
BRANCH  20  34
HETATM   34  C9  UNL     1      21.018  -5.056  13.301  1.00  0.00     0.217 C 
HETATM   35  O8  UNL     1      20.548  -5.457  12.225  1.00  0.00    -0.645 OA
HETATM   36  O9  UNL     1      20.312  -5.458  14.461  1.00  0.00    -0.645 OA
ENDBRANCH  20  34
ENDBRANCH   1  20
TORSDOF 11
ENDMDL
MODEL 3
REMARK VINA RESULT: -7.567715681      2.010      4.075
REMARK  11 active torsions:
REMARK  status: ('A' for Active; 'I' for Inactive)
REMARK    1  A    between atoms: C1_2  and  S1_4 
REMARK    2  A    between atoms: S1_4  and  C2_7 
REMARK    3  A    between atoms: C4_9  and  O4_10 
REMARK    4  A    between atoms: C5_12  and  N2_13 
REMARK    5  A    between atoms: N2_13  and  C6_15 
REMARK    6  A    between atoms: C6_15  and  N3_16 
REMARK    7  A    between atoms: C6_15  and  C9_29 
REMARK    8  A    between atoms: N3_16  and  C7_18 
REMARK    9  A    between atoms: C8_23  and  O5_24 
REMARK   10  A    between atoms: C8_23  and  O6_26 
REMARK   11  A    between atoms: C10_32  and  O10_33 
ROOT
HETATM    1  N2  UNL     1      23.337  -1.059  14.444  1.00  0.00    -0.356 N 
ATOM      2  H2  UNL     1      24.225  -0.928  14.928  1.00  0.00     0.162 HD
ENDROOT
BRANCH   1   3
HETATM    3  C5  UNL     1      23.350  -0.992  13.033  1.00  0.00     0.099 A 
HETATM    4  C4  UNL     1      23.214   0.288  12.461  1.00  0.00     0.096 A 
HETATM    5  C3  UNL     1      23.179   0.488  11.101  1.00  0.00     0.065 A 
HETATM    6  C2  UNL     1      23.280  -0.605  10.240  1.00  0.00     0.098 A 
HETATM    7  C11 UNL     1      23.412  -1.861  10.782  1.00  0.00     0.103 A 
HETATM    8  C10 UNL     1      23.444  -2.043  12.174  1.00  0.00     0.120 A 
HETATM    9  N7  UNL     1      23.519  -2.969   9.905  1.00  0.00    -0.098 NA
BRANCH   4  10
HETATM   10  O4  UNL     1      23.111   1.377  13.276  1.00  0.00    -0.358 OA
ATOM     11  H4  UNL     1      22.663   1.276  14.108  1.00  0.00     0.217 HD
ENDBRANCH   4  10
BRANCH   6  12
HETATM   12  S1  UNL     1      23.232  -0.341   8.515  1.00  0.00     0.260 S 
HETATM   13  O2  UNL     1      22.879  -1.636   7.819  1.00  0.00    -0.213 OA
HETATM   14  O3  UNL     1      22.136   0.688   8.273  1.00  0.00    -0.213 OA
BRANCH  12  15
HETATM   15  C1  UNL     1      24.737   0.305   7.908  1.00  0.00     0.354 C 
HETATM   16  N1  UNL     1      24.808   1.363   6.958  1.00  0.00    -0.046 NA
HETATM   17  O1  UNL     1      25.816  -0.184   8.328  1.00  0.00    -0.258 OA
ENDBRANCH  12  15
ENDBRANCH   6  12
BRANCH   8  18
HETATM   18  O10 UNL     1      23.569  -3.329  12.627  1.00  0.00    -0.357 OA
ATOM     19  H10 UNL     1      23.481  -4.073  12.042  1.00  0.00     0.218 HD
ENDBRANCH   8  18
ENDBRANCH   1   3
BRANCH   1  20
HETATM   20  C6  UNL     1      22.150  -1.300  15.271  1.00  0.00     0.284 C 
BRANCH  20  21
HETATM   21  N3  UNL     1      22.267  -2.627  15.768  1.00  0.00    -0.353 N 
ATOM     22  H3  UNL     1      22.994  -2.836  16.452  1.00  0.00     0.159 HD
BRANCH  21  23
HETATM   23  C7  UNL     1      21.418  -3.651  15.349  1.00  0.00     0.343 C 
HETATM   24  N4  UNL     1      21.942  -4.634  14.429  1.00  0.00    -0.073 NA
HETATM   25  N5  UNL     1      20.807  -5.092  13.698  1.00  0.00    -0.025 NA
HETATM   26  N6  UNL     1      19.826  -5.566  14.529  1.00  0.00    -0.240 N 
HETATM   27  C8  UNL     1      19.711  -5.015  15.826  1.00  0.00     0.388 C 
ATOM     28  H6  UNL     1      19.192  -6.302  14.219  1.00  0.00     0.185 HD
HETATM   29  O7  UNL     1      20.808  -4.404  16.370  1.00  0.00    -0.273 OA
BRANCH  27  30
HETATM   30  O5  UNL     1      19.257  -6.057  16.672  1.00  0.00    -0.324 OA
ATOM     31  H5  UNL     1      20.026  -6.419  17.095  1.00  0.00     0.217 HD
ENDBRANCH  27  30
BRANCH  27  32
HETATM   32  O6  UNL     1      18.661  -4.064  15.883  1.00  0.00    -0.324 OA
ATOM     33  H6  UNL     1      17.814  -4.493  15.922  1.00  0.00     0.217 HD
ENDBRANCH  27  32
ENDBRANCH  21  23
ENDBRANCH  20  21
BRANCH  20  34
HETATM   34  C9  UNL     1      22.027  -0.257  16.284  1.00  0.00     0.217 C 
HETATM   35  O8  UNL     1      22.366  -0.362  17.472  1.00  0.00    -0.645 OA
HETATM   36  O9  UNL     1      21.482   0.997  15.914  1.00  0.00    -0.645 OA
ENDBRANCH  20  34
ENDBRANCH   1  20
TORSDOF 11
ENDMDL
MODEL 4
REMARK VINA RESULT: -7.359686743      1.843      3.709
REMARK  11 active torsions:
REMARK  status: ('A' for Active; 'I' for Inactive)
REMARK    1  A    between atoms: C1_2  and  S1_4 
REMARK    2  A    between atoms: S1_4  and  C2_7 
REMARK    3  A    between atoms: C4_9  and  O4_10 
REMARK    4  A    between atoms: C5_12  and  N2_13 
REMARK    5  A    between atoms: N2_13  and  C6_15 
REMARK    6  A    between atoms: C6_15  and  N3_16 
REMARK    7  A    between atoms: C6_15  and  C9_29 
REMARK    8  A    between atoms: N3_16  and  C7_18 
REMARK    9  A    between atoms: C8_23  and  O5_24 
REMARK   10  A    between atoms: C8_23  and  O6_26 
REMARK   11  A    between atoms: C10_32  and  O10_33 
ROOT
HETATM    1  N2  UNL     1      21.592  -0.794  14.535  1.00  0.00    -0.356 N 
ATOM      2  H2  UNL     1      20.848  -0.119  14.715  1.00  0.00     0.162 HD
ENDROOT
BRANCH   1   3
HETATM    3  C5  UNL     1      22.176  -0.788  13.249  1.00  0.00     0.099 A 
HETATM    4  C4  UNL     1      21.534  -1.560  12.260  1.00  0.00     0.096 A 
HETATM    5  C3  UNL     1      22.017  -1.665  10.978  1.00  0.00     0.065 A 
HETATM    6  C2  UNL     1      23.185  -0.991  10.623  1.00  0.00     0.098 A 
HETATM    7  C11 UNL     1      23.826  -0.235  11.575  1.00  0.00     0.103 A 
HETATM    8  C10 UNL     1      23.316  -0.141  12.881  1.00  0.00     0.120 A 
HETATM    9  N7  UNL     1      25.010   0.453  11.211  1.00  0.00    -0.098 NA
BRANCH   4  10
HETATM   10  O4  UNL     1      20.389  -2.232  12.577  1.00  0.00    -0.358 OA
ATOM     11  H4  UNL     1      20.440  -2.926  13.223  1.00  0.00     0.217 HD
ENDBRANCH   4  10
BRANCH   6  12
HETATM   12  S1  UNL     1      23.792  -1.134   8.992  1.00  0.00     0.260 S 
HETATM   13  O2  UNL     1      25.122  -1.853   9.013  1.00  0.00    -0.213 OA
HETATM   14  O3  UNL     1      22.771  -1.965   8.229  1.00  0.00    -0.213 OA
BRANCH  12  15
HETATM   15  C1  UNL     1      23.935   0.421   8.207  1.00  0.00     0.354 C 
HETATM   16  N1  UNL     1      22.824   1.275   7.955  1.00  0.00    -0.046 NA
HETATM   17  O1  UNL     1      25.073   0.811   7.844  1.00  0.00    -0.258 OA
ENDBRANCH  12  15
ENDBRANCH   6  12
BRANCH   8  18
HETATM   18  O10 UNL     1      24.022   0.626  13.767  1.00  0.00    -0.357 OA
ATOM     19  H10 UNL     1      24.887   0.959  13.558  1.00  0.00     0.218 HD
ENDBRANCH   8  18
ENDBRANCH   1   3
BRANCH   1  20
HETATM   20  C6  UNL     1      21.967  -1.691  15.632  1.00  0.00     0.284 C 
BRANCH  20  21
HETATM   21  N3  UNL     1      22.284  -2.944  15.039  1.00  0.00    -0.353 N 
ATOM     22  H3  UNL     1      23.251  -3.137  14.779  1.00  0.00     0.159 HD
BRANCH  21  23
HETATM   23  C7  UNL     1      21.312  -3.916  14.803  1.00  0.00     0.343 C 
HETATM   24  N4  UNL     1      21.549  -4.867  13.742  1.00  0.00    -0.073 NA
HETATM   25  N5  UNL     1      20.249  -5.250  13.297  1.00  0.00    -0.025 NA
HETATM   26  N6  UNL     1      19.482  -5.733  14.326  1.00  0.00    -0.240 N 
HETATM   27  C8  UNL     1      19.715  -5.244  15.632  1.00  0.00     0.388 C 
ATOM     28  H6  UNL     1      18.759  -6.430  14.152  1.00  0.00     0.185 HD
HETATM   29  O7  UNL     1      20.939  -4.699  15.911  1.00  0.00    -0.273 OA
BRANCH  27  30
HETATM   30  O5  UNL     1      19.437  -6.313  16.520  1.00  0.00    -0.324 OA
ATOM     31  H5  UNL     1      20.217  -6.438  17.048  1.00  0.00     0.217 HD
ENDBRANCH  27  30
BRANCH  27  32
HETATM   32  O6  UNL     1      18.756  -4.263  15.987  1.00  0.00    -0.324 OA
ATOM     33  H6  UNL     1      18.207  -4.566  16.701  1.00  0.00     0.217 HD
ENDBRANCH  27  32
ENDBRANCH  21  23
ENDBRANCH  20  21
BRANCH  20  34
HETATM   34  C9  UNL     1      23.029  -1.086  16.430  1.00  0.00     0.217 C 
HETATM   35  O8  UNL     1      24.221  -1.004  16.099  1.00  0.00    -0.645 OA
HETATM   36  O9  UNL     1      22.707  -0.531  17.692  1.00  0.00    -0.645 OA
ENDBRANCH  20  34
ENDBRANCH   1  20
TORSDOF 11
ENDMDL
MODEL 5
REMARK VINA RESULT: -7.337480539      2.684      7.256
REMARK  11 active torsions:
REMARK  status: ('A' for Active; 'I' for Inactive)
REMARK    1  A    between atoms: C1_2  and  S1_4 
REMARK    2  A    between atoms: S1_4  and  C2_7 
REMARK    3  A    between atoms: C4_9  and  O4_10 
REMARK    4  A    between atoms: C5_12  and  N2_13 
REMARK    5  A    between atoms: N2_13  and  C6_15 
REMARK    6  A    between atoms: C6_15  and  N3_16 
REMARK    7  A    between atoms: C6_15  and  C9_29 
REMARK    8  A    between atoms: N3_16  and  C7_18 
REMARK    9  A    between atoms: C8_23  and  O5_24 
REMARK   10  A    between atoms: C8_23  and  O6_26 
REMARK   11  A    between atoms: C10_32  and  O10_33 
ROOT
HETATM    1  N2  UNL     1      22.894   0.016  10.065  1.00  0.00    -0.356 N 
ATOM      2  H2  UNL     1      21.988   0.198   9.634  1.00  0.00     0.162 HD
ENDROOT
BRANCH   1   3
HETATM    3  C5  UNL     1      22.897  -0.422  11.408  1.00  0.00     0.099 A 
HETATM    4  C4  UNL     1      22.212  -1.623  11.682  1.00  0.00     0.096 A 
HETATM    5  C3  UNL     1      22.112  -2.142  12.950  1.00  0.00     0.065 A 
HETATM    6  C2  UNL     1      22.704  -1.470  14.019  1.00  0.00     0.098 A 
HETATM    7  C11 UNL     1      23.375  -0.298  13.771  1.00  0.00     0.103 A 
HETATM    8  C10 UNL     1      23.465   0.217  12.467  1.00  0.00     0.120 A 
HETATM    9  N7  UNL     1      23.981   0.380  14.858  1.00  0.00    -0.098 NA
BRANCH   4  10
HETATM   10  O4  UNL     1      21.620  -2.303  10.657  1.00  0.00    -0.358 OA
ATOM     11  H4  UNL     1      22.178  -2.774  10.049  1.00  0.00     0.217 HD
ENDBRANCH   4  10
BRANCH   6  12
HETATM   12  S1  UNL     1      22.569  -2.137  15.628  1.00  0.00     0.260 S 
HETATM   13  O2  UNL     1      23.885  -1.970  16.352  1.00  0.00    -0.213 OA
HETATM   14  O3  UNL     1      21.488  -1.330  16.333  1.00  0.00    -0.213 OA
BRANCH  12  15
HETATM   15  C1  UNL     1      22.078  -3.813  15.604  1.00  0.00     0.354 C 
HETATM   16  N1  UNL     1      20.882  -4.287  16.215  1.00  0.00    -0.046 NA
HETATM   17  O1  UNL     1      22.812  -4.649  15.019  1.00  0.00    -0.258 OA
ENDBRANCH  12  15
ENDBRANCH   6  12
BRANCH   8  18
HETATM   18  O10 UNL     1      24.145   1.394  12.311  1.00  0.00    -0.357 OA
ATOM     19  H10 UNL     1      24.255   2.004  13.032  1.00  0.00     0.218 HD
ENDBRANCH   8  18
ENDBRANCH   1   3
BRANCH   1  20
HETATM   20  C6  UNL     1      24.088   0.230   9.241  1.00  0.00     0.284 C 
BRANCH  20  21
HETATM   21  N3  UNL     1      24.867  -0.955   9.343  1.00  0.00    -0.353 N 
ATOM     22  H3  UNL     1      24.436  -1.851   9.118  1.00  0.00     0.159 HD
BRANCH  21  23
HETATM   23  C7  UNL     1      26.204  -0.928   9.742  1.00  0.00     0.343 C 
HETATM   24  N4  UNL     1      26.546  -0.161  10.917  1.00  0.00    -0.073 NA
HETATM   25  N5  UNL     1      27.900   0.235  10.714  1.00  0.00    -0.025 NA
HETATM   26  N6  UNL     1      28.716  -0.843  10.487  1.00  0.00    -0.240 N 
HETATM   27  C8  UNL     1      28.168  -1.989   9.867  1.00  0.00     0.388 C 
ATOM     28  H6  UNL     1      29.698  -0.819  10.761  1.00  0.00     0.185 HD
HETATM   29  O7  UNL     1      26.815  -2.180   9.939  1.00  0.00    -0.273 OA
BRANCH  27  30
HETATM   30  O5  UNL     1      28.853  -3.108  10.404  1.00  0.00    -0.324 OA
ATOM     31  H5  UNL     1      28.915  -3.750   9.706  1.00  0.00     0.217 HD
ENDBRANCH  27  30
BRANCH  27  32
HETATM   32  O6  UNL     1      28.500  -2.031   8.489  1.00  0.00    -0.324 OA
ATOM     33  H6  UNL     1      27.739  -2.240   7.961  1.00  0.00     0.217 HD
ENDBRANCH  27  32
ENDBRANCH  21  23
ENDBRANCH  20  21
BRANCH  20  34
HETATM   34  C9  UNL     1      23.697   0.611   7.887  1.00  0.00     0.217 C 
HETATM   35  O8  UNL     1      22.854   0.027   7.189  1.00  0.00    -0.645 OA
HETATM   36  O9  UNL     1      24.308   1.739   7.289  1.00  0.00    -0.645 OA
ENDBRANCH  20  34
ENDBRANCH   1  20
TORSDOF 11
ENDMDL
