MODEL 1
REMARK VINA RESULT: -8.577658203      0.000      0.000
REMARK  9 active torsions:
REMARK  status: ('A' for Active; 'I' for Inactive)
REMARK    1  A    between atoms: C2_2  and  C3_3 
REMARK    2  A    between atoms: C3_3  and  C4_4 
REMARK    3  A    between atoms: C4_4  and  C5_5 
REMARK    4  A    between atoms: C5_5  and  C6_6 
REMARK    5  A    between atoms: C6_6  and  C7_7 
REMARK    6  A    between atoms: C7_7  and  C8_8 
REMARK       I    between atoms: C8_8  and  N1_10 
REMARK    7  A    between atoms: C11_13  and  N2_14 
REMARK       I    between atoms: N3_21  and  C18_23 
REMARK    8  A    between atoms: N5_25  and  C19_27 
REMARK    9  A    between atoms: C19_27  and  C20_31 
ROOT
HETATM    1  C8  UNL     1      33.419  22.823   8.865  1.00  0.00     0.220 C 
HETATM    2  O1  UNL     1      33.486  23.408   9.966  1.00  0.00    -0.273 OA
HETATM    3  N1  UNL     1      34.502  22.938   7.954  1.00  0.00    -0.347 N 
HETATM    4  C9  UNL     1      34.450  22.285   6.688  1.00  0.00     0.128 C 
HETATM    5  C10 UNL     1      35.317  22.842   5.611  1.00  0.00     0.062 C 
HETATM    6  C11 UNL     1      36.717  23.199   6.134  1.00  0.00     0.271 C 
HETATM    7  C17 UNL     1      36.465  24.178   7.236  1.00  0.00     0.040 C 
HETATM    8  N3  UNL     1      36.908  25.384   7.251  1.00  0.00    -0.334 N 
ATOM      9  H3  UNL     1      37.470  25.712   6.466  1.00  0.00     0.168 HD
HETATM   10  C18 UNL     1      36.640  26.277   8.324  1.00  0.00     0.193 C 
HETATM   11  N4  UNL     1      37.327  26.113   9.548  1.00  0.00    -0.063 NA
HETATM   12  N5  UNL     1      35.791  27.232   8.211  1.00  0.00    -0.320 N 
ATOM     13  H5  UNL     1      35.324  27.309   7.308  1.00  0.00     0.169 HD
HETATM   14  C22 UNL     1      35.640  23.745   8.394  1.00  0.00     0.180 C 
ENDROOT
BRANCH   6  15
HETATM   15  N2  UNL     1      37.536  23.752   5.100  1.00  0.00     0.098 N 
HETATM   16  C12 UNL     1      36.737  24.059   3.920  1.00  0.00     0.273 C 
HETATM   17  C13 UNL     1      37.737  24.689   2.932  1.00  0.00     0.030 C 
HETATM   18  C14 UNL     1      38.501  23.536   2.341  1.00  0.00     0.003 C 
HETATM   19  C15 UNL     1      38.640  22.448   3.324  1.00  0.00     0.030 C 
HETATM   20  C16 UNL     1      38.571  22.796   4.771  1.00  0.00     0.273 C 
ENDBRANCH   6  15
BRANCH  12  21
HETATM   21  C19 UNL     1      35.428  28.176   9.169  1.00  0.00     0.076 C 
HETATM   22  N6  UNL     1      34.913  27.774  10.283  1.00  0.00    -0.389 N 
ATOM     23  H62 UNL     1      34.794  26.769  10.414  1.00  0.00     0.157 HD
ATOM     24  H61 UNL     1      34.646  28.465  10.984  1.00  0.00     0.157 HD
BRANCH  21  25
HETATM   25  C20 UNL     1      35.601  29.651   8.976  1.00  0.00     0.071 C 
HETATM   26  C21 UNL     1      35.811  29.896   7.500  1.00  0.00     0.013 C 
ENDBRANCH  21  25
ENDBRANCH  12  21
BRANCH   1  27
HETATM   27  C7  UNL     1      32.248  22.015   8.476  1.00  0.00     0.103 C 
BRANCH  27  28
HETATM   28  C6  UNL     1      31.149  21.988   9.492  1.00  0.00     0.009 C 
BRANCH  28  29
HETATM   29  C5  UNL     1      31.203  20.741  10.306  1.00  0.00     0.000 C 
BRANCH  29  30
HETATM   30  C4  UNL     1      30.283  20.857  11.506  1.00  0.00     0.000 C 
BRANCH  30  31
HETATM   31  C3  UNL     1      30.232  19.587  12.315  1.00  0.00    -0.000 C 
BRANCH  31  32
HETATM   32  C2  UNL     1      30.837  18.450  11.513  1.00  0.00    -0.005 C 
HETATM   33  C1  UNL     1      29.885  17.279  11.415  1.00  0.00     0.005 C 
ENDBRANCH  31  32
ENDBRANCH  30  31
ENDBRANCH  29  30
ENDBRANCH  28  29
ENDBRANCH  27  28
ENDBRANCH   1  27
TORSDOF 9
ENDMDL
MODEL 2
REMARK VINA RESULT: -7.956085294      2.052      5.716
REMARK  9 active torsions:
REMARK  status: ('A' for Active; 'I' for Inactive)
REMARK    1  A    between atoms: C2_2  and  C3_3 
REMARK    2  A    between atoms: C3_3  and  C4_4 
REMARK    3  A    between atoms: C4_4  and  C5_5 
REMARK    4  A    between atoms: C5_5  and  C6_6 
REMARK    5  A    between atoms: C6_6  and  C7_7 
REMARK    6  A    between atoms: C7_7  and  C8_8 
REMARK       I    between atoms: C8_8  and  N1_10 
REMARK    7  A    between atoms: C11_13  and  N2_14 
REMARK       I    between atoms: N3_21  and  C18_23 
REMARK    8  A    between atoms: N5_25  and  C19_27 
REMARK    9  A    between atoms: C19_27  and  C20_31 
ROOT
HETATM    1  C8  UNL     1      34.797  21.969   6.657  1.00  0.00     0.220 C 
HETATM    2  O1  UNL     1      34.655  21.614   5.468  1.00  0.00    -0.273 OA
HETATM    3  N1  UNL     1      35.532  23.150   6.943  1.00  0.00    -0.347 N 
HETATM    4  C9  UNL     1      35.714  23.576   8.291  1.00  0.00     0.128 C 
HETATM    5  C10 UNL     1      36.879  24.465   8.560  1.00  0.00     0.062 C 
HETATM    6  C11 UNL     1      37.032  25.548   7.480  1.00  0.00     0.271 C 
HETATM    7  C17 UNL     1      37.174  24.781   6.203  1.00  0.00     0.040 C 
HETATM    8  N3  UNL     1      38.198  24.843   5.430  1.00  0.00    -0.334 N 
ATOM      9  H3  UNL     1      38.976  25.450   5.690  1.00  0.00     0.168 HD
HETATM   10  C18 UNL     1      38.285  24.095   4.225  1.00  0.00     0.193 C 
HETATM   11  N4  UNL     1      37.533  24.505   3.100  1.00  0.00    -0.063 NA
HETATM   12  N5  UNL     1      39.030  23.056   4.129  1.00  0.00    -0.320 N 
ATOM     13  H5  UNL     1      39.554  22.803   4.967  1.00  0.00     0.169 HD
HETATM   14  C22 UNL     1      36.069  23.877   5.792  1.00  0.00     0.180 C 
ENDROOT
BRANCH   6  15
HETATM   15  N2  UNL     1      38.164  26.384   7.734  1.00  0.00     0.098 N 
HETATM   16  C12 UNL     1      38.665  26.175   9.087  1.00  0.00     0.273 C 
HETATM   17  C13 UNL     1      39.898  27.091   9.186  1.00  0.00     0.030 C 
HETATM   18  C14 UNL     1      39.354  28.477   9.405  1.00  0.00     0.003 C 
HETATM   19  C15 UNL     1      38.059  28.639   8.724  1.00  0.00     0.030 C 
HETATM   20  C16 UNL     1      37.766  27.764   7.554  1.00  0.00     0.273 C 
ENDBRANCH   6  15
BRANCH  12  21
HETATM   21  C19 UNL     1      39.213  22.229   3.022  1.00  0.00     0.076 C 
HETATM   22  N6  UNL     1      38.381  21.262   2.816  1.00  0.00    -0.389 N 
ATOM     23  H62 UNL     1      37.617  21.146   3.481  1.00  0.00     0.157 HD
ATOM     24  H61 UNL     1      38.516  20.657   2.006  1.00  0.00     0.157 HD
BRANCH  21  25
HETATM   25  C20 UNL     1      40.336  22.399   2.046  1.00  0.00     0.071 C 
HETATM   26  C21 UNL     1      41.590  21.859   2.695  1.00  0.00     0.013 C 
ENDBRANCH  21  25
ENDBRANCH  12  21
BRANCH   1  27
HETATM   27  C7  UNL     1      34.227  21.199   7.779  1.00  0.00     0.103 C 
BRANCH  27  28
HETATM   28  C6  UNL     1      32.751  20.969   7.686  1.00  0.00     0.009 C 
BRANCH  28  29
HETATM   29  C5  UNL     1      31.992  22.190   8.077  1.00  0.00     0.000 C 
BRANCH  29  30
HETATM   30  C4  UNL     1      31.229  21.945   9.364  1.00  0.00     0.000 C 
BRANCH  30  31
HETATM   31  C3  UNL     1      31.666  20.681  10.060  1.00  0.00    -0.000 C 
BRANCH  31  32
HETATM   32  C2  UNL     1      30.635  20.296  11.103  1.00  0.00    -0.005 C 
HETATM   33  C1  UNL     1      30.977  18.973  11.752  1.00  0.00     0.005 C 
ENDBRANCH  31  32
ENDBRANCH  30  31
ENDBRANCH  29  30
ENDBRANCH  28  29
ENDBRANCH  27  28
ENDBRANCH   1  27
TORSDOF 9
ENDMDL
MODEL 3
REMARK VINA RESULT: -7.935359388      1.175      1.341
REMARK  9 active torsions:
REMARK  status: ('A' for Active; 'I' for Inactive)
REMARK    1  A    between atoms: C2_2  and  C3_3 
REMARK    2  A    between atoms: C3_3  and  C4_4 
REMARK    3  A    between atoms: C4_4  and  C5_5 
REMARK    4  A    between atoms: C5_5  and  C6_6 
REMARK    5  A    between atoms: C6_6  and  C7_7 
REMARK    6  A    between atoms: C7_7  and  C8_8 
REMARK       I    between atoms: C8_8  and  N1_10 
REMARK    7  A    between atoms: C11_13  and  N2_14 
REMARK       I    between atoms: N3_21  and  C18_23 
REMARK    8  A    between atoms: N5_25  and  C19_27 
REMARK    9  A    between atoms: C19_27  and  C20_31 
ROOT
HETATM    1  C8  UNL     1      34.566  23.386   8.871  1.00  0.00     0.220 C 
HETATM    2  O1  UNL     1      34.790  24.018   9.924  1.00  0.00    -0.273 OA
HETATM    3  N1  UNL     1      35.541  23.396   7.838  1.00  0.00    -0.347 N 
HETATM    4  C9  UNL     1      35.308  22.688   6.623  1.00  0.00     0.128 C 
HETATM    5  C10 UNL     1      36.072  23.144   5.427  1.00  0.00     0.062 C 
HETATM    6  C11 UNL     1      37.540  23.443   5.768  1.00  0.00     0.271 C 
HETATM    7  C17 UNL     1      37.468  24.487   6.838  1.00  0.00     0.040 C 
HETATM    8  N3  UNL     1      37.971  25.665   6.738  1.00  0.00    -0.334 N 
ATOM      9  H3  UNL     1      38.455  25.922   5.878  1.00  0.00     0.168 HD
HETATM   10  C18 UNL     1      37.876  26.621   7.785  1.00  0.00     0.193 C 
HETATM   11  N4  UNL     1      38.691  26.475   8.931  1.00  0.00    -0.063 NA
HETATM   12  N5  UNL     1      37.071  27.616   7.719  1.00  0.00    -0.320 N 
ATOM     13  H5  UNL     1      36.506  27.678   6.871  1.00  0.00     0.169 HD
HETATM   14  C22 UNL     1      36.762  24.157   8.103  1.00  0.00     0.180 C 
ENDROOT
BRANCH   6  15
HETATM   15  N2  UNL     1      38.261  23.900   4.620  1.00  0.00     0.098 N 
HETATM   16  C12 UNL     1      37.350  24.166   3.513  1.00  0.00     0.273 C 
HETATM   17  C13 UNL     1      38.258  24.695   2.387  1.00  0.00     0.030 C 
HETATM   18  C14 UNL     1      38.916  23.478   1.795  1.00  0.00     0.003 C 
HETATM   19  C15 UNL     1      39.124  22.447   2.825  1.00  0.00     0.030 C 
HETATM   20  C16 UNL     1      39.223  22.885   4.247  1.00  0.00     0.273 C 
ENDBRANCH   6  15
BRANCH  12  21
HETATM   21  C19 UNL     1      36.870  28.623   8.660  1.00  0.00     0.076 C 
HETATM   22  N6  UNL     1      37.894  29.241   9.147  1.00  0.00    -0.389 N 
ATOM     23  H62 UNL     1      38.817  28.960   8.817  1.00  0.00     0.157 HD
ATOM     24  H61 UNL     1      37.747  29.978   9.836  1.00  0.00     0.157 HD
BRANCH  21  25
HETATM   25  C20 UNL     1      35.514  29.035   9.146  1.00  0.00     0.071 C 
HETATM   26  C21 UNL     1      34.519  28.699   8.060  1.00  0.00     0.013 C 
ENDBRANCH  21  25
ENDBRANCH  12  21
BRANCH   1  27
HETATM   27  C7  UNL     1      33.317  22.630   8.661  1.00  0.00     0.103 C 
BRANCH  27  28
HETATM   28  C6  UNL     1      32.232  22.940   9.643  1.00  0.00     0.009 C 
BRANCH  28  29
HETATM   29  C5  UNL     1      31.099  21.982   9.511  1.00  0.00     0.000 C 
BRANCH  29  30
HETATM   30  C4  UNL     1      31.491  20.624  10.061  1.00  0.00     0.000 C 
BRANCH  30  31
HETATM   31  C3  UNL     1      30.633  20.206  11.226  1.00  0.00    -0.000 C 
BRANCH  31  32
HETATM   32  C2  UNL     1      31.113  18.867  11.753  1.00  0.00    -0.005 C 
HETATM   33  C1  UNL     1      30.139  17.761  11.413  1.00  0.00     0.005 C 
ENDBRANCH  31  32
ENDBRANCH  30  31
ENDBRANCH  29  30
ENDBRANCH  28  29
ENDBRANCH  27  28
ENDBRANCH   1  27
TORSDOF 9
ENDMDL
MODEL 4
REMARK VINA RESULT: -7.788632627      1.212      1.928
REMARK  9 active torsions:
REMARK  status: ('A' for Active; 'I' for Inactive)
REMARK    1  A    between atoms: C2_2  and  C3_3 
REMARK    2  A    between atoms: C3_3  and  C4_4 
REMARK    3  A    between atoms: C4_4  and  C5_5 
REMARK    4  A    between atoms: C5_5  and  C6_6 
REMARK    5  A    between atoms: C6_6  and  C7_7 
REMARK    6  A    between atoms: C7_7  and  C8_8 
REMARK       I    between atoms: C8_8  and  N1_10 
REMARK    7  A    between atoms: C11_13  and  N2_14 
REMARK       I    between atoms: N3_21  and  C18_23 
REMARK    8  A    between atoms: N5_25  and  C19_27 
REMARK    9  A    between atoms: C19_27  and  C20_31 
ROOT
HETATM    1  C8  UNL     1      33.940  22.682   9.060  1.00  0.00     0.220 C 
HETATM    2  O1  UNL     1      34.048  23.288  10.146  1.00  0.00    -0.273 OA
HETATM    3  N1  UNL     1      34.917  22.891   8.050  1.00  0.00    -0.347 N 
HETATM    4  C9  UNL     1      34.815  22.216   6.799  1.00  0.00     0.128 C 
HETATM    5  C10 UNL     1      35.517  22.841   5.643  1.00  0.00     0.062 C 
HETATM    6  C11 UNL     1      36.916  23.345   6.029  1.00  0.00     0.271 C 
HETATM    7  C17 UNL     1      36.668  24.312   7.144  1.00  0.00     0.040 C 
HETATM    8  N3  UNL     1      36.984  25.557   7.109  1.00  0.00    -0.334 N 
ATOM      9  H3  UNL     1      37.436  25.927   6.273  1.00  0.00     0.168 HD
HETATM   10  C18 UNL     1      36.727  26.435   8.197  1.00  0.00     0.193 C 
HETATM   11  N4  UNL     1      37.538  26.360   9.353  1.00  0.00    -0.063 NA
HETATM   12  N5  UNL     1      35.779  27.297   8.158  1.00  0.00    -0.320 N 
ATOM     13  H5  UNL     1      35.225  27.312   7.302  1.00  0.00     0.169 HD
HETATM   14  C22 UNL     1      36.002  23.817   8.376  1.00  0.00     0.180 C 
ENDROOT
BRANCH   6  15
HETATM   15  N2  UNL     1      37.574  23.962   4.920  1.00  0.00     0.098 N 
HETATM   16  C12 UNL     1      36.643  24.167   3.817  1.00  0.00     0.273 C 
HETATM   17  C13 UNL     1      37.477  24.880   2.737  1.00  0.00     0.030 C 
HETATM   18  C14 UNL     1      38.299  23.801   2.084  1.00  0.00     0.003 C 
HETATM   19  C15 UNL     1      38.638  22.749   3.057  1.00  0.00     0.030 C 
HETATM   20  C16 UNL     1      38.668  23.111   4.502  1.00  0.00     0.273 C 
ENDBRANCH   6  15
BRANCH  12  21
HETATM   21  C19 UNL     1      35.411  28.214   9.140  1.00  0.00     0.076 C 
HETATM   22  N6  UNL     1      34.975  27.779  10.275  1.00  0.00    -0.389 N 
ATOM     23  H62 UNL     1      34.919  26.769  10.404  1.00  0.00     0.157 HD
ATOM     24  H61 UNL     1      34.705  28.451  10.993  1.00  0.00     0.157 HD
BRANCH  21  25
HETATM   25  C20 UNL     1      35.492  29.698   8.950  1.00  0.00     0.071 C 
HETATM   26  C21 UNL     1      36.028  29.951   7.560  1.00  0.00     0.013 C 
ENDBRANCH  21  25
ENDBRANCH  12  21
BRANCH   1  27
HETATM   27  C7  UNL     1      32.826  21.754   8.787  1.00  0.00     0.103 C 
BRANCH  27  28
HETATM   28  C6  UNL     1      31.488  22.240   9.249  1.00  0.00     0.009 C 
BRANCH  28  29
HETATM   29  C5  UNL     1      30.962  21.392  10.354  1.00  0.00     0.000 C 
BRANCH  29  30
HETATM   30  C4  UNL     1      30.812  22.211  11.621  1.00  0.00     0.000 C 
BRANCH  30  31
HETATM   31  C3  UNL     1      31.066  23.678  11.390  1.00  0.00    -0.000 C 
BRANCH  31  32
HETATM   32  C2  UNL     1      31.598  24.307  12.665  1.00  0.00    -0.005 C 
HETATM   33  C1  UNL     1      31.060  23.602  13.891  1.00  0.00     0.005 C 
ENDBRANCH  31  32
ENDBRANCH  30  31
ENDBRANCH  29  30
ENDBRANCH  28  29
ENDBRANCH  27  28
ENDBRANCH   1  27
TORSDOF 9
ENDMDL
MODEL 5
REMARK VINA RESULT: -7.760710186      2.505      5.909
REMARK  9 active torsions:
REMARK  status: ('A' for Active; 'I' for Inactive)
REMARK    1  A    between atoms: C2_2  and  C3_3 
REMARK    2  A    between atoms: C3_3  and  C4_4 
REMARK    3  A    between atoms: C4_4  and  C5_5 
REMARK    4  A    between atoms: C5_5  and  C6_6 
REMARK    5  A    between atoms: C6_6  and  C7_7 
REMARK    6  A    between atoms: C7_7  and  C8_8 
REMARK       I    between atoms: C8_8  and  N1_10 
REMARK    7  A    between atoms: C11_13  and  N2_14 
REMARK       I    between atoms: N3_21  and  C18_23 
REMARK    8  A    between atoms: N5_25  and  C19_27 
REMARK    9  A    between atoms: C19_27  and  C20_31 
ROOT
HETATM    1  C8  UNL     1      34.786  21.848   6.665  1.00  0.00     0.220 C 
HETATM    2  O1  UNL     1      34.654  21.474   5.481  1.00  0.00    -0.273 OA
HETATM    3  N1  UNL     1      35.494  23.049   6.935  1.00  0.00    -0.347 N 
HETATM    4  C9  UNL     1      35.664  23.497   8.278  1.00  0.00     0.128 C 
HETATM    5  C10 UNL     1      36.809  24.416   8.536  1.00  0.00     0.062 C 
HETATM    6  C11 UNL     1      36.940  25.486   7.443  1.00  0.00     0.271 C 
HETATM    7  C17 UNL     1      37.101  24.706   6.176  1.00  0.00     0.040 C 
HETATM    8  N3  UNL     1      38.126  24.780   5.404  1.00  0.00    -0.334 N 
ATOM      9  H3  UNL     1      38.889  25.407   5.657  1.00  0.00     0.168 HD
HETATM   10  C18 UNL     1      38.231  24.017   4.209  1.00  0.00     0.193 C 
HETATM   11  N4  UNL     1      37.472  24.395   3.078  1.00  0.00    -0.063 NA
HETATM   12  N5  UNL     1      38.999  22.993   4.128  1.00  0.00    -0.320 N 
ATOM     13  H5  UNL     1      39.527  22.763   4.971  1.00  0.00     0.169 HD
HETATM   14  C22 UNL     1      36.017  23.772   5.776  1.00  0.00     0.180 C 
ENDROOT
BRANCH   6  15
HETATM   15  N2  UNL     1      38.053  26.351   7.687  1.00  0.00     0.098 N 
HETATM   16  C12 UNL     1      38.560  26.166   9.041  1.00  0.00     0.273 C 
HETATM   17  C13 UNL     1      39.772  27.112   9.129  1.00  0.00     0.030 C 
HETATM   18  C14 UNL     1      39.197  28.487   9.335  1.00  0.00     0.003 C 
HETATM   19  C15 UNL     1      37.898  28.612   8.654  1.00  0.00     0.030 C 
HETATM   20  C16 UNL     1      37.624  27.719   7.493  1.00  0.00     0.273 C 
ENDBRANCH   6  15
BRANCH  12  21
HETATM   21  C19 UNL     1      39.202  22.156   3.034  1.00  0.00     0.076 C 
HETATM   22  N6  UNL     1      38.338  21.229   2.783  1.00  0.00    -0.389 N 
ATOM     23  H62 UNL     1      37.534  21.150   3.406  1.00  0.00     0.157 HD
ATOM     24  H61 UNL     1      38.487  20.616   1.982  1.00  0.00     0.157 HD
BRANCH  21  25
HETATM   25  C20 UNL     1      40.383  22.271   2.119  1.00  0.00     0.071 C 
HETATM   26  C21 UNL     1      41.518  22.872   2.915  1.00  0.00     0.013 C 
ENDBRANCH  21  25
ENDBRANCH  12  21
BRANCH   1  27
HETATM   27  C7  UNL     1      34.231  21.082   7.796  1.00  0.00     0.103 C 
BRANCH  27  28
HETATM   28  C6  UNL     1      32.764  20.803   7.696  1.00  0.00     0.009 C 
BRANCH  28  29
HETATM   29  C5  UNL     1      31.981  22.069   7.628  1.00  0.00     0.000 C 
BRANCH  29  30
HETATM   30  C4  UNL     1      31.187  22.265   8.905  1.00  0.00     0.000 C 
BRANCH  30  31
HETATM   31  C3  UNL     1      31.955  23.035   9.947  1.00  0.00    -0.000 C 
BRANCH  31  32
HETATM   32  C2  UNL     1      31.061  23.296  11.145  1.00  0.00    -0.005 C 
HETATM   33  C1  UNL     1      31.728  24.222  12.137  1.00  0.00     0.005 C 
ENDBRANCH  31  32
ENDBRANCH  30  31
ENDBRANCH  29  30
ENDBRANCH  28  29
ENDBRANCH  27  28
ENDBRANCH   1  27
TORSDOF 9
ENDMDL
