MODEL 1
REMARK VINA RESULT: -5.515889080      0.000      0.000
REMARK  5 active torsions:
REMARK  status: ('A' for Active; 'I' for Inactive)
REMARK    1  A    between atoms: N1_2  and  C2_4 
REMARK    2  A    between atoms: C4_8  and  C5_9 
REMARK    3  A    between atoms: C5_9  and  O2_11 
REMARK    4  A    between atoms: C10_20  and  C11_21 
REMARK    5  A    between atoms: C11_21  and  O5_23 
ROOT
HETATM    1  C2  UNL     1      61.344  66.651  27.231  1.00  0.00     0.124 A 
HETATM    2  N2  UNL     1      60.212  66.548  26.459  1.00  0.00    -0.325 N 
ATOM      3  H2  UNL     1      59.351  66.980  26.795  1.00  0.00     0.169 HD
HETATM    4  C3  UNL     1      60.188  65.903  25.285  1.00  0.00     0.150 A 
HETATM    5  C4  UNL     1      59.166  65.694  24.379  1.00  0.00     0.109 A 
HETATM    6  C7  UNL     1      59.720  64.965  23.349  1.00  0.00     0.043 A 
HETATM    7  C8  UNL     1      58.990  64.507  22.147  1.00  0.00     0.071 C 
HETATM    8  N3  UNL     1      61.011  64.752  23.632  1.00  0.00    -0.293 N 
ATOM      9  H3  UNL     1      61.664  64.238  23.041  1.00  0.00     0.187 HD
HETATM   10  N4  UNL     1      61.314  65.317  24.809  1.00  0.00    -0.202 N 
HETATM   11  C9  UNL     1      62.414  65.407  25.541  1.00  0.00     0.288 A 
HETATM   12  O3  UNL     1      63.466  64.867  25.108  1.00  0.00    -0.265 OA
HETATM   13  C10 UNL     1      62.489  66.075  26.783  1.00  0.00     0.152 A 
ENDROOT
BRANCH   5  14
HETATM   14  C5  UNL     1      57.774  66.152  24.487  1.00  0.00     0.298 C 
HETATM   15  O1  UNL     1      57.541  67.378  24.644  1.00  0.00    -0.259 OA
BRANCH  14  16
HETATM   16  O2  UNL     1      56.677  65.320  24.431  1.00  0.00    -0.322 OA
HETATM   17  C6  UNL     1      55.721  65.418  23.374  1.00  0.00     0.213 C 
ENDBRANCH  14  16
ENDBRANCH   5  14
BRANCH   1  18
HETATM   18  N1  UNL     1      61.242  67.348  28.438  1.00  0.00    -0.380 N 
HETATM   19  C1  UNL     1      61.048  66.631  29.711  1.00  0.00     0.147 C 
ATOM     20  H1  UNL     1      61.301  68.367  28.438  1.00  0.00     0.160 HD
ENDBRANCH   1  18
BRANCH  13  21
HETATM   21  C11 UNL     1      63.735  66.117  27.503  1.00  0.00     0.302 C 
HETATM   22  O4  UNL     1      64.356  67.235  27.490  1.00  0.00    -0.259 OA
BRANCH  21  23
HETATM   23  O5  UNL     1      64.329  65.126  28.188  1.00  0.00    -0.322 OA
HETATM   24  C12 UNL     1      64.596  65.112  29.576  1.00  0.00     0.213 C 
ENDBRANCH  21  23
ENDBRANCH  13  21
TORSDOF 5
ENDMDL
MODEL 2
REMARK VINA RESULT: -5.343721352      2.451      6.205
REMARK  5 active torsions:
REMARK  status: ('A' for Active; 'I' for Inactive)
REMARK    1  A    between atoms: N1_2  and  C2_4 
REMARK    2  A    between atoms: C4_8  and  C5_9 
REMARK    3  A    between atoms: C5_9  and  O2_11 
REMARK    4  A    between atoms: C10_20  and  C11_21 
REMARK    5  A    between atoms: C11_21  and  O5_23 
ROOT
HETATM    1  C2  UNL     1      57.314  66.341  24.198  1.00  0.00     0.124 A 
HETATM    2  N2  UNL     1      58.367  66.558  25.056  1.00  0.00    -0.325 N 
ATOM      3  H2  UNL     1      58.240  67.213  25.827  1.00  0.00     0.169 HD
HETATM    4  C3  UNL     1      59.551  65.947  24.923  1.00  0.00     0.150 A 
HETATM    5  C4  UNL     1      60.711  66.031  25.670  1.00  0.00     0.109 A 
HETATM    6  C7  UNL     1      61.609  65.176  25.068  1.00  0.00     0.043 A 
HETATM    7  C8  UNL     1      62.994  64.941  25.528  1.00  0.00     0.071 C 
HETATM    8  N3  UNL     1      61.009  64.611  24.014  1.00  0.00    -0.293 N 
ATOM      9  H3  UNL     1      61.441  63.934  23.385  1.00  0.00     0.187 HD
HETATM   10  N4  UNL     1      59.753  65.069  23.910  1.00  0.00    -0.202 N 
HETATM   11  C9  UNL     1      58.750  64.849  23.074  1.00  0.00     0.288 A 
HETATM   12  O3  UNL     1      58.925  64.036  22.129  1.00  0.00    -0.265 OA
HETATM   13  C10 UNL     1      57.483  65.468  23.172  1.00  0.00     0.152 A 
ENDROOT
BRANCH   5  14
HETATM   14  C5  UNL     1      60.943  66.860  26.860  1.00  0.00     0.298 C 
HETATM   15  O1  UNL     1      61.717  67.849  26.779  1.00  0.00    -0.259 OA
BRANCH  14  16
HETATM   16  O2  UNL     1      60.365  66.631  28.090  1.00  0.00    -0.322 OA
HETATM   17  C6  UNL     1      60.099  65.306  28.554  1.00  0.00     0.213 C 
ENDBRANCH  14  16
ENDBRANCH   5  14
BRANCH   1  18
HETATM   18  N1  UNL     1      56.129  67.039  24.441  1.00  0.00    -0.380 N 
HETATM   19  C1  UNL     1      56.033  68.485  24.165  1.00  0.00     0.147 C 
ATOM     20  H1  UNL     1      55.319  66.544  24.814  1.00  0.00     0.160 HD
ENDBRANCH   1  18
BRANCH  13  21
HETATM   21  C11 UNL     1      56.456  65.160  22.212  1.00  0.00     0.302 C 
HETATM   22  O4  UNL     1      56.037  66.138  21.502  1.00  0.00    -0.259 OA
BRANCH  21  23
HETATM   23  O5  UNL     1      55.882  63.971  21.967  1.00  0.00    -0.322 OA
HETATM   24  C12 UNL     1      55.416  63.052  22.935  1.00  0.00     0.213 C 
ENDBRANCH  21  23
ENDBRANCH  13  21
TORSDOF 5
ENDMDL
MODEL 3
REMARK VINA RESULT: -5.336263451      1.891      2.585
REMARK  5 active torsions:
REMARK  status: ('A' for Active; 'I' for Inactive)
REMARK    1  A    between atoms: N1_2  and  C2_4 
REMARK    2  A    between atoms: C4_8  and  C5_9 
REMARK    3  A    between atoms: C5_9  and  O2_11 
REMARK    4  A    between atoms: C10_20  and  C11_21 
REMARK    5  A    between atoms: C11_21  and  O5_23 
ROOT
HETATM    1  C2  UNL     1      60.357  66.275  25.904  1.00  0.00     0.124 A 
HETATM    2  N2  UNL     1      59.137  66.625  25.377  1.00  0.00    -0.325 N 
ATOM      3  H2  UNL     1      58.620  67.390  25.810  1.00  0.00     0.169 HD
HETATM    4  C3  UNL     1      58.597  66.005  24.320  1.00  0.00     0.150 A 
HETATM    5  C4  UNL     1      57.402  66.207  23.655  1.00  0.00     0.109 A 
HETATM    6  C7  UNL     1      57.373  65.275  22.640  1.00  0.00     0.043 A 
HETATM    7  C8  UNL     1      56.274  65.118  21.664  1.00  0.00     0.071 C 
HETATM    8  N3  UNL     1      58.499  64.553  22.702  1.00  0.00    -0.293 N 
ATOM      9  H3  UNL     1      58.743  63.791  22.069  1.00  0.00     0.187 HD
HETATM   10  N4  UNL     1      59.257  64.984  23.720  1.00  0.00    -0.202 N 
HETATM   11  C9  UNL     1      60.434  64.634  24.216  1.00  0.00     0.288 A 
HETATM   12  O3  UNL     1      61.057  63.688  23.666  1.00  0.00    -0.265 OA
HETATM   13  C10 UNL     1      61.045  65.256  25.327  1.00  0.00     0.152 A 
ENDROOT
BRANCH   5  14
HETATM   14  C5  UNL     1      56.372  67.209  23.962  1.00  0.00     0.298 C 
HETATM   15  O1  UNL     1      55.166  66.856  24.010  1.00  0.00    -0.259 OA
BRANCH  14  16
HETATM   16  O2  UNL     1      56.633  68.540  24.208  1.00  0.00    -0.322 OA
HETATM   17  C6  UNL     1      56.946  69.447  23.149  1.00  0.00     0.213 C 
ENDBRANCH  14  16
ENDBRANCH   5  14
BRANCH   1  18
HETATM   18  N1  UNL     1      60.813  66.996  27.010  1.00  0.00    -0.380 N 
HETATM   19  C1  UNL     1      60.328  66.687  28.368  1.00  0.00     0.147 C 
ATOM     20  H1  UNL     1      61.491  67.747  26.877  1.00  0.00     0.160 HD
ENDBRANCH   1  18
BRANCH  13  21
HETATM   21  C11 UNL     1      62.330  64.801  25.790  1.00  0.00     0.302 C 
HETATM   22  O4  UNL     1      63.338  65.497  25.424  1.00  0.00    -0.259 OA
BRANCH  21  23
HETATM   23  O5  UNL     1      62.601  63.735  26.560  1.00  0.00    -0.322 OA
HETATM   24  C12 UNL     1      61.784  63.217  27.591  1.00  0.00     0.213 C 
ENDBRANCH  21  23
ENDBRANCH  13  21
TORSDOF 5
ENDMDL
MODEL 4
REMARK VINA RESULT: -5.229032078      2.436      6.102
REMARK  5 active torsions:
REMARK  status: ('A' for Active; 'I' for Inactive)
REMARK    1  A    between atoms: N1_2  and  C2_4 
REMARK    2  A    between atoms: C4_8  and  C5_9 
REMARK    3  A    between atoms: C5_9  and  O2_11 
REMARK    4  A    between atoms: C10_20  and  C11_21 
REMARK    5  A    between atoms: C11_21  and  O5_23 
ROOT
HETATM    1  C2  UNL     1      57.841  65.529  24.359  1.00  0.00     0.124 A 
HETATM    2  N2  UNL     1      58.687  65.985  25.342  1.00  0.00    -0.325 N 
ATOM      3  H2  UNL     1      58.291  66.514  26.119  1.00  0.00     0.169 HD
HETATM    4  C3  UNL     1      60.008  65.766  25.323  1.00  0.00     0.150 A 
HETATM    5  C4  UNL     1      61.008  66.136  26.203  1.00  0.00     0.109 A 
HETATM    6  C7  UNL     1      62.178  65.635  25.677  1.00  0.00     0.043 A 
HETATM    7  C8  UNL     1      63.516  65.790  26.285  1.00  0.00     0.071 C 
HETATM    8  N3  UNL     1      61.886  64.997  24.537  1.00  0.00    -0.293 N 
ATOM      9  H3  UNL     1      62.564  64.529  23.935  1.00  0.00     0.187 HD
HETATM   10  N4  UNL     1      60.567  65.067  24.306  1.00  0.00    -0.202 N 
HETATM   11  C9  UNL     1      59.766  64.620  23.350  1.00  0.00     0.288 A 
HETATM   12  O3  UNL     1      60.273  63.969  22.399  1.00  0.00    -0.265 OA
HETATM   13  C10 UNL     1      58.368  64.825  23.325  1.00  0.00     0.152 A 
ENDROOT
BRANCH   5  14
HETATM   14  C5  UNL     1      60.857  66.906  27.446  1.00  0.00     0.298 C 
HETATM   15  O1  UNL     1      61.263  68.097  27.484  1.00  0.00    -0.259 OA
BRANCH  14  16
HETATM   16  O2  UNL     1      60.293  66.412  28.602  1.00  0.00    -0.322 OA
HETATM   17  C6  UNL     1      60.438  65.040  28.975  1.00  0.00     0.213 C 
ENDBRANCH  14  16
ENDBRANCH   5  14
BRANCH   1  18
HETATM   18  N1  UNL     1      56.482  65.823  24.490  1.00  0.00    -0.380 N 
HETATM   19  C1  UNL     1      55.912  67.048  23.899  1.00  0.00     0.147 C 
ATOM     20  H1  UNL     1      55.874  65.182  25.001  1.00  0.00     0.160 HD
ENDBRANCH   1  18
BRANCH  13  21
HETATM   21  C11 UNL     1      57.584  64.298  22.239  1.00  0.00     0.302 C 
HETATM   22  O4  UNL     1      56.849  63.288  22.515  1.00  0.00    -0.259 OA
BRANCH  21  23
HETATM   23  O5  UNL     1      57.527  64.735  20.971  1.00  0.00    -0.322 OA
HETATM   24  C12 UNL     1      57.810  63.977  19.811  1.00  0.00     0.213 C 
ENDBRANCH  21  23
ENDBRANCH  13  21
TORSDOF 5
ENDMDL
MODEL 5
REMARK VINA RESULT: -5.224639192      1.998      3.287
REMARK  5 active torsions:
REMARK  status: ('A' for Active; 'I' for Inactive)
REMARK    1  A    between atoms: N1_2  and  C2_4 
REMARK    2  A    between atoms: C4_8  and  C5_9 
REMARK    3  A    between atoms: C5_9  and  O2_11 
REMARK    4  A    between atoms: C10_20  and  C11_21 
REMARK    5  A    between atoms: C11_21  and  O5_23 
ROOT
HETATM    1  C2  UNL     1      61.821  65.044  25.002  1.00  0.00     0.124 A 
HETATM    2  N2  UNL     1      60.861  64.912  24.027  1.00  0.00    -0.325 N 
ATOM      3  H2  UNL     1      61.100  64.408  23.173  1.00  0.00     0.169 HD
HETATM    4  C3  UNL     1      59.626  65.415  24.150  1.00  0.00     0.150 A 
HETATM    5  C4  UNL     1      58.540  65.386  23.296  1.00  0.00     0.109 A 
HETATM    6  C7  UNL     1      57.532  66.065  23.946  1.00  0.00     0.043 A 
HETATM    7  C8  UNL     1      56.174  66.288  23.405  1.00  0.00     0.071 C 
HETATM    8  N3  UNL     1      57.999  66.476  25.131  1.00  0.00    -0.293 N 
ATOM      9  H3  UNL     1      57.465  67.004  25.821  1.00  0.00     0.187 HD
HETATM   10  N4  UNL     1      59.275  66.089  25.272  1.00  0.00    -0.202 N 
HETATM   11  C9  UNL     1      60.188  66.226  26.222  1.00  0.00     0.288 A 
HETATM   12  O3  UNL     1      59.873  66.850  27.269  1.00  0.00    -0.265 OA
HETATM   13  C10 UNL     1      61.502  65.714  26.140  1.00  0.00     0.152 A 
ENDROOT
BRANCH   5  14
HETATM   14  C5  UNL     1      58.470  64.763  21.968  1.00  0.00     0.298 C 
HETATM   15  O1  UNL     1      59.312  65.087  21.091  1.00  0.00    -0.259 OA
BRANCH  14  16
HETATM   16  O2  UNL     1      57.528  63.827  21.598  1.00  0.00    -0.322 OA
HETATM   17  C6  UNL     1      56.653  64.047  20.490  1.00  0.00     0.213 C 
ENDBRANCH  14  16
ENDBRANCH   5  14
BRANCH   1  18
HETATM   18  N1  UNL     1      63.073  64.476  24.757  1.00  0.00    -0.380 N 
HETATM   19  C1  UNL     1      63.304  63.035  24.965  1.00  0.00     0.147 C 
ATOM     20  H1  UNL     1      63.839  65.066  24.429  1.00  0.00     0.160 HD
ENDBRANCH   1  18
BRANCH  13  21
HETATM   21  C11 UNL     1      62.422  65.917  27.228  1.00  0.00     0.302 C 
HETATM   22  O4  UNL     1      62.648  64.901  27.971  1.00  0.00    -0.259 OA
BRANCH  21  23
HETATM   23  O5  UNL     1      63.074  67.042  27.561  1.00  0.00    -0.322 OA
HETATM   24  C12 UNL     1      64.121  67.155  28.504  1.00  0.00     0.213 C 
ENDBRANCH  21  23
ENDBRANCH  13  21
TORSDOF 5
ENDMDL
