MODEL 1
REMARK VINA RESULT: -3.937390968      0.000      0.000
REMARK  4 active torsions:
REMARK  status: ('A' for Active; 'I' for Inactive)
REMARK    1  A    between atoms: O1_2  and  C2_3 
REMARK    2  A    between atoms: C3_6  and  N2_7 
REMARK    3  A    between atoms: N5_17  and  C6_18 
REMARK    4  A    between atoms: C7_22  and  N7_23 
ROOT
HETATM    1  C2  UNL     1      57.250  36.763  22.846  1.00  0.00     0.189 A 
HETATM    2  N1  UNL     1      56.279  36.099  23.507  1.00  0.00    -0.168 N 
ATOM      3  H1  UNL     1      56.504  35.463  24.272  1.00  0.00     0.186 HD
HETATM    4  C3  UNL     1      55.004  36.302  23.125  1.00  0.00     0.679 A 
HETATM    5  N3  UNL     1      54.693  37.149  22.107  1.00  0.00    -0.174 N 
ATOM      6  H3  UNL     1      53.714  37.276  21.848  1.00  0.00     0.186 HD
HETATM    7  C4  UNL     1      55.647  37.825  21.430  1.00  0.00     0.157 A 
HETATM    8  N4  UNL     1      55.642  38.704  20.410  1.00  0.00    -0.291 N 
ATOM      9  H4  UNL     1      54.824  39.054  19.910  1.00  0.00     0.172 HD
HETATM   10  C5  UNL     1      56.913  39.025  20.181  1.00  0.00     0.347 A 
HETATM   11  O2  UNL     1      57.290  39.842  19.277  1.00  0.00    -0.245 OA
HETATM   12  N5  UNL     1      57.733  38.371  21.034  1.00  0.00    -0.086 N 
HETATM   13  C8  UNL     1      56.956  37.618  21.820  1.00  0.00     0.158 A 
ENDROOT
BRANCH  12  14
HETATM   14  C6  UNL     1      59.144  38.511  21.034  1.00  0.00     0.717 A 
HETATM   15  N6  UNL     1      59.771  39.697  21.115  1.00  0.00    -0.087 N 
HETATM   16  O3  UNL     1      61.053  39.494  21.092  1.00  0.00    -0.186 OA
ATOM     17  H6  UNL     1      59.314  40.606  21.184  1.00  0.00     0.214 HD
HETATM   18  C7  UNL     1      61.329  38.216  20.998  1.00  0.00     0.256 A 
HETATM   19  N8  UNL     1      60.130  37.602  20.962  1.00  0.00    -0.151 N 
ATOM     20  H8  UNL     1      59.992  36.594  20.890  1.00  0.00     0.188 HD
BRANCH  18  21
HETATM   21  N7  UNL     1      62.452  37.591  20.946  1.00  0.00    -0.363 N 
ATOM     22  H72 UNL     1      63.351  38.024  21.159  1.00  0.00     0.159 HD
ATOM     23  H71 UNL     1      62.674  36.624  20.706  1.00  0.00     0.159 HD
ENDBRANCH  18  21
ENDBRANCH  12  14
BRANCH   1  24
HETATM   24  O1  UNL     1      58.564  36.575  23.215  1.00  0.00    -0.339 OA
HETATM   25  C1  UNL     1      59.252  37.492  24.059  1.00  0.00     0.211 C 
ENDBRANCH   1  24
BRANCH   4  26
HETATM   26  N2  UNL     1      54.039  35.710  23.701  1.00  0.00    -0.234 N 
ATOM     27  H22 UNL     1      54.075  35.644  24.718  1.00  0.00     0.174 HD
ATOM     28  H21 UNL     1      53.263  35.318  23.168  1.00  0.00     0.174 HD
ENDBRANCH   4  26
TORSDOF 4
ENDMDL
MODEL 2
REMARK VINA RESULT: -3.855267067      7.924      9.632
REMARK  4 active torsions:
REMARK  status: ('A' for Active; 'I' for Inactive)
REMARK    1  A    between atoms: O1_2  and  C2_3 
REMARK    2  A    between atoms: C3_6  and  N2_7 
REMARK    3  A    between atoms: N5_17  and  C6_18 
REMARK    4  A    between atoms: C7_22  and  N7_23 
ROOT
HETATM    1  C2  UNL     1      60.392  31.367  25.509  1.00  0.00     0.189 A 
HETATM    2  N1  UNL     1      59.641  31.196  24.401  1.00  0.00    -0.168 N 
ATOM      3  H1  UNL     1      59.991  31.467  23.482  1.00  0.00     0.186 HD
HETATM    4  C3  UNL     1      58.416  30.657  24.547  1.00  0.00     0.679 A 
HETATM    5  N3  UNL     1      57.941  30.291  25.768  1.00  0.00    -0.174 N 
ATOM      6  H3  UNL     1      57.007  29.885  25.836  1.00  0.00     0.186 HD
HETATM    7  C4  UNL     1      58.672  30.452  26.892  1.00  0.00     0.157 A 
HETATM    8  N4  UNL     1      58.473  30.193  28.197  1.00  0.00    -0.291 N 
ATOM      9  H4  UNL     1      57.639  29.782  28.618  1.00  0.00     0.172 HD
HETATM   10  C5  UNL     1      59.577  30.577  28.833  1.00  0.00     0.347 A 
HETATM   11  O2  UNL     1      59.746  30.480  30.093  1.00  0.00    -0.245 OA
HETATM   12  N5  UNL     1      60.481  31.078  27.961  1.00  0.00    -0.086 N 
HETATM   13  C8  UNL     1      59.930  31.006  26.744  1.00  0.00     0.158 A 
ENDROOT
BRANCH  12  14
HETATM   14  C6  UNL     1      61.756  31.568  28.342  1.00  0.00     0.717 A 
HETATM   15  N6  UNL     1      62.775  30.773  28.710  1.00  0.00    -0.087 N 
HETATM   16  O3  UNL     1      63.802  31.516  28.998  1.00  0.00    -0.186 OA
ATOM     17  H6  UNL     1      62.747  29.755  28.757  1.00  0.00     0.214 HD
HETATM   18  C7  UNL     1      63.525  32.787  28.840  1.00  0.00     0.256 A 
HETATM   19  N8  UNL     1      62.242  32.817  28.429  1.00  0.00    -0.151 N 
ATOM     20  H8  UNL     1      61.717  33.665  28.215  1.00  0.00     0.188 HD
BRANCH  18  21
HETATM   21  N7  UNL     1      64.243  33.841  29.012  1.00  0.00    -0.363 N 
ATOM     22  H72 UNL     1      64.204  34.421  29.849  1.00  0.00     0.159 HD
ATOM     23  H71 UNL     1      64.940  34.286  28.414  1.00  0.00     0.159 HD
ENDBRANCH  18  21
ENDBRANCH  12  14
BRANCH   1  24
HETATM   24  O1  UNL     1      61.650  31.917  25.391  1.00  0.00    -0.339 OA
HETATM   25  C1  UNL     1      62.785  31.140  25.024  1.00  0.00     0.211 C 
ENDBRANCH   1  24
BRANCH   4  26
HETATM   26  N2  UNL     1      57.654  30.467  23.548  1.00  0.00    -0.234 N 
ATOM     27  H22 UNL     1      57.137  29.589  23.519  1.00  0.00     0.174 HD
ATOM     28  H21 UNL     1      57.565  31.165  22.808  1.00  0.00     0.174 HD
ENDBRANCH   4  26
TORSDOF 4
ENDMDL
MODEL 3
REMARK VINA RESULT: -3.768002617      3.061      6.147
REMARK  4 active torsions:
REMARK  status: ('A' for Active; 'I' for Inactive)
REMARK    1  A    between atoms: O1_2  and  C2_3 
REMARK    2  A    between atoms: C3_6  and  N2_7 
REMARK    3  A    between atoms: N5_17  and  C6_18 
REMARK    4  A    between atoms: C7_22  and  N7_23 
ROOT
HETATM    1  C2  UNL     1      61.553  36.717  20.228  1.00  0.00     0.189 A 
HETATM    2  N1  UNL     1      62.351  35.771  19.691  1.00  0.00    -0.168 N 
ATOM      3  H1  UNL     1      61.967  35.035  19.098  1.00  0.00     0.186 HD
HETATM    4  C3  UNL     1      63.667  35.827  19.964  1.00  0.00     0.679 A 
HETATM    5  N3  UNL     1      64.189  36.804  20.753  1.00  0.00    -0.174 N 
ATOM      6  H3  UNL     1      65.193  36.813  20.935  1.00  0.00     0.186 HD
HETATM    7  C4  UNL     1      63.412  37.763  21.303  1.00  0.00     0.157 A 
HETATM    8  N4  UNL     1      63.637  38.824  22.100  1.00  0.00    -0.291 N 
ATOM      9  H4  UNL     1      64.537  39.126  22.474  1.00  0.00     0.172 HD
HETATM   10  C5  UNL     1      62.456  39.401  22.306  1.00  0.00     0.347 A 
HETATM   11  O2  UNL     1      62.286  40.443  23.020  1.00  0.00    -0.245 OA
HETATM   12  N5  UNL     1      61.477  38.732  21.656  1.00  0.00    -0.086 N 
HETATM   13  C8  UNL     1      62.060  37.706  21.025  1.00  0.00     0.158 A 
ENDROOT
BRANCH  12  14
HETATM   14  C6  UNL     1      60.111  39.110  21.685  1.00  0.00     0.717 A 
HETATM   15  N6  UNL     1      59.365  39.107  22.802  1.00  0.00    -0.087 N 
HETATM   16  O3  UNL     1      58.164  39.500  22.505  1.00  0.00    -0.186 OA
ATOM     17  H6  UNL     1      59.689  38.841  23.732  1.00  0.00     0.214 HD
HETATM   18  C7  UNL     1      58.057  39.772  21.227  1.00  0.00     0.256 A 
HETATM   19  N8  UNL     1      59.280  39.526  20.715  1.00  0.00    -0.151 N 
ATOM     20  H8  UNL     1      59.536  39.639  19.734  1.00  0.00     0.188 HD
BRANCH  18  21
HETATM   21  N7  UNL     1      57.061  40.184  20.525  1.00  0.00    -0.363 N 
ATOM     22  H72 UNL     1      56.094  40.164  20.851  1.00  0.00     0.159 HD
ATOM     23  H71 UNL     1      57.016  40.581  19.587  1.00  0.00     0.159 HD
ENDBRANCH  18  21
ENDBRANCH  12  14
BRANCH   1  24
HETATM   24  O1  UNL     1      60.200  36.685  19.967  1.00  0.00    -0.339 OA
HETATM   25  C1  UNL     1      59.251  36.272  20.945  1.00  0.00     0.211 C 
ENDBRANCH   1  24
BRANCH   4  26
HETATM   26  N2  UNL     1      64.477  34.969  19.493  1.00  0.00    -0.234 N 
ATOM     27  H22 UNL     1      64.373  34.722  18.509  1.00  0.00     0.174 HD
ATOM     28  H21 UNL     1      65.201  34.546  20.076  1.00  0.00     0.174 HD
ENDBRANCH   4  26
TORSDOF 4
ENDMDL
MODEL 4
REMARK VINA RESULT: -3.630307830      1.600      3.399
REMARK  4 active torsions:
REMARK  status: ('A' for Active; 'I' for Inactive)
REMARK    1  A    between atoms: O1_2  and  C2_3 
REMARK    2  A    between atoms: C3_6  and  N2_7 
REMARK    3  A    between atoms: N5_17  and  C6_18 
REMARK    4  A    between atoms: C7_22  and  N7_23 
ROOT
HETATM    1  C2  UNL     1      56.975  39.807  20.561  1.00  0.00     0.189 A 
HETATM    2  N1  UNL     1      55.981  40.542  20.021  1.00  0.00    -0.168 N 
ATOM      3  H1  UNL     1      56.179  41.414  19.528  1.00  0.00     0.186 HD
HETATM    4  C3  UNL     1      54.720  40.091  20.153  1.00  0.00     0.679 A 
HETATM    5  N3  UNL     1      54.445  38.930  20.807  1.00  0.00    -0.174 N 
ATOM      6  H3  UNL     1      53.475  38.622  20.884  1.00  0.00     0.186 HD
HETATM    7  C4  UNL     1      55.422  38.177  21.357  1.00  0.00     0.157 A 
HETATM    8  N4  UNL     1      55.453  37.019  22.043  1.00  0.00    -0.291 N 
ATOM      9  H4  UNL     1      54.653  36.439  22.298  1.00  0.00     0.172 HD
HETATM   10  C5  UNL     1      56.732  36.779  22.322  1.00  0.00     0.347 A 
HETATM   11  O2  UNL     1      57.141  35.758  22.967  1.00  0.00    -0.245 OA
HETATM   12  N5  UNL     1      57.522  37.759  21.829  1.00  0.00    -0.086 N 
HETATM   13  C8  UNL     1      56.717  38.639  21.223  1.00  0.00     0.158 A 
ENDROOT
BRANCH  12  14
HETATM   14  C6  UNL     1      58.933  37.779  21.968  1.00  0.00     0.717 A 
HETATM   15  N6  UNL     1      59.559  37.945  23.144  1.00  0.00    -0.087 N 
HETATM   16  O3  UNL     1      60.842  37.918  22.943  1.00  0.00    -0.186 OA
ATOM     17  H6  UNL     1      59.102  38.073  24.047  1.00  0.00     0.214 HD
HETATM   18  C7  UNL     1      61.118  37.738  21.675  1.00  0.00     0.256 A 
HETATM   19  N8  UNL     1      59.920  37.652  21.065  1.00  0.00    -0.151 N 
ATOM     20  H8  UNL     1      59.782  37.510  20.064  1.00  0.00     0.188 HD
BRANCH  18  21
HETATM   21  N7  UNL     1      62.242  37.651  21.054  1.00  0.00    -0.363 N 
ATOM     22  H72 UNL     1      63.077  37.225  21.455  1.00  0.00     0.159 HD
ATOM     23  H71 UNL     1      62.521  37.954  20.121  1.00  0.00     0.159 HD
ENDBRANCH  18  21
ENDBRANCH  12  14
BRANCH   1  24
HETATM   24  O1  UNL     1      58.276  40.245  20.443  1.00  0.00    -0.339 OA
HETATM   25  C1  UNL     1      58.953  40.904  21.509  1.00  0.00     0.211 C 
ENDBRANCH   1  24
BRANCH   4  26
HETATM   26  N2  UNL     1      53.735  40.731  19.670  1.00  0.00    -0.234 N 
ATOM     27  H22 UNL     1      53.308  40.356  18.823  1.00  0.00     0.174 HD
ATOM     28  H21 UNL     1      53.387  41.583  20.111  1.00  0.00     0.174 HD
ENDBRANCH   4  26
TORSDOF 4
ENDMDL
MODEL 5
REMARK VINA RESULT: -3.504035840      0.885      1.086
REMARK  4 active torsions:
REMARK  status: ('A' for Active; 'I' for Inactive)
REMARK    1  A    between atoms: O1_2  and  C2_3 
REMARK    2  A    between atoms: C3_6  and  N2_7 
REMARK    3  A    between atoms: N5_17  and  C6_18 
REMARK    4  A    between atoms: C7_22  and  N7_23 
ROOT
HETATM    1  C2  UNL     1      57.401  36.812  22.857  1.00  0.00     0.189 A 
HETATM    2  N1  UNL     1      56.380  36.092  23.369  1.00  0.00    -0.168 N 
ATOM      3  H1  UNL     1      56.546  35.371  24.071  1.00  0.00     0.186 HD
HETATM    4  C3  UNL     1      55.138  36.356  22.924  1.00  0.00     0.679 A 
HETATM    5  N3  UNL     1      54.906  37.316  21.988  1.00  0.00    -0.174 N 
ATOM      6  H3  UNL     1      53.949  37.486  21.678  1.00  0.00     0.186 HD
HETATM    7  C4  UNL     1      55.910  38.050  21.461  1.00  0.00     0.157 A 
HETATM    8  N4  UNL     1      55.985  39.037  20.549  1.00  0.00    -0.291 N 
ATOM      9  H4  UNL     1      55.207  39.454  20.036  1.00  0.00     0.172 HD
HETATM   10  C5  UNL     1      57.271  39.363  20.448  1.00  0.00     0.347 A 
HETATM   11  O2  UNL     1      57.717  40.270  19.670  1.00  0.00    -0.245 OA
HETATM   12  N5  UNL     1      58.023  38.605  21.277  1.00  0.00    -0.086 N 
HETATM   13  C8  UNL     1      57.187  37.780  21.916  1.00  0.00     0.158 A 
ENDROOT
BRANCH  12  14
HETATM   14  C6  UNL     1      59.432  38.723  21.392  1.00  0.00     0.717 A 
HETATM   15  N6  UNL     1      60.296  37.906  20.768  1.00  0.00    -0.087 N 
HETATM   16  O3  UNL     1      61.506  38.268  21.071  1.00  0.00    -0.186 OA
ATOM     17  H6  UNL     1      60.044  37.128  20.158  1.00  0.00     0.214 HD
HETATM   18  C7  UNL     1      61.504  39.301  21.877  1.00  0.00     0.256 A 
HETATM   19  N8  UNL     1      60.201  39.585  22.077  1.00  0.00    -0.151 N 
ATOM     20  H8  UNL     1      59.852  40.343  22.662  1.00  0.00     0.188 HD
BRANCH  18  21
HETATM   21  N7  UNL     1      62.468  39.965  22.410  1.00  0.00    -0.363 N 
ATOM     22  H72 UNL     1      63.437  39.902  22.100  1.00  0.00     0.159 HD
ATOM     23  H71 UNL     1      62.480  40.633  23.182  1.00  0.00     0.159 HD
ENDBRANCH  18  21
ENDBRANCH  12  14
BRANCH   1  24
HETATM   24  O1  UNL     1      58.684  36.564  23.293  1.00  0.00    -0.339 OA
HETATM   25  C1  UNL     1      59.336  37.401  24.243  1.00  0.00     0.211 C 
ENDBRANCH   1  24
BRANCH   4  26
HETATM   26  N2  UNL     1      54.130  35.717  23.360  1.00  0.00    -0.234 N 
ATOM     27  H22 UNL     1      53.306  36.265  23.608  1.00  0.00     0.174 HD
ATOM     28  H21 UNL     1      54.146  34.702  23.458  1.00  0.00     0.174 HD
ENDBRANCH   4  26
TORSDOF 4
ENDMDL
