MODEL 1
REMARK VINA RESULT: -8.902378549      0.000      0.000
REMARK  8 active torsions:
REMARK  status: ('A' for Active; 'I' for Inactive)
REMARK    1  A    between atoms: C2_2  and  C3_3 
REMARK    2  A    between atoms: C4_4  and  C5_5 
REMARK    3  A    between atoms: C6_6  and  C7_7 
REMARK    4  A    between atoms: C15_15  and  O1_16 
REMARK    5  A    between atoms: C16_21  and  C17_22 
REMARK    6  A    between atoms: C17_22  and  O2_24 
REMARK    7  A    between atoms: C17_22  and  C19_26 
REMARK    8  A    between atoms: C20_29  and  O5_30 
ROOT
HETATM    1  C3  UNL     1      50.737  49.999  19.303  1.00  0.00     0.050 C 
HETATM    2  C4  UNL     1      51.340  51.218  18.693  1.00  0.00     0.215 C 
HETATM    3  N1  UNL     1      50.538  51.560  17.515  1.00  0.00    -0.057 N 
ATOM      4  H11 UNL     1      51.095  51.888  16.726  1.00  0.00     0.278 HD
ATOM      5  H12 UNL     1      49.981  52.405  17.634  1.00  0.00     0.278 HD
HETATM    6  C16 UNL     1      49.759  50.406  17.218  1.00  0.00     0.260 C 
HETATM    7  C20 UNL     1      49.381  49.937  18.630  1.00  0.00     0.158 C 
ENDROOT
BRANCH   2   8
HETATM    8  C5  UNL     1      51.484  52.362  19.600  1.00  0.00     0.003 C 
HETATM    9  C6  UNL     1      50.613  53.361  19.676  1.00  0.00    -0.016 C 
BRANCH   9  10
HETATM   10  C7  UNL     1      50.776  54.496  20.592  1.00  0.00     0.007 C 
HETATM   11  C8  UNL     1      50.888  53.982  22.031  1.00  0.00     0.017 C 
HETATM   12  C9  UNL     1      49.352  53.977  22.025  1.00  0.00     0.007 C 
HETATM   13  C10 UNL     1      49.462  55.092  20.971  1.00  0.00     0.004 C 
HETATM   14  C11 UNL     1      49.516  56.409  21.641  1.00  0.00    -0.013 C 
HETATM   15  C12 UNL     1      48.218  57.154  21.297  1.00  0.00     0.010 C 
HETATM   16  C13 UNL     1      50.648  57.294  21.265  1.00  0.00     0.007 C 
HETATM   17  C14 UNL     1      51.973  56.604  21.152  1.00  0.00     0.033 C 
HETATM   18  C15 UNL     1      51.822  55.461  20.186  1.00  0.00     0.130 C 
BRANCH  18  19
HETATM   19  O1  UNL     1      51.499  55.972  18.937  1.00  0.00    -0.394 OA
ATOM     20  H1  UNL     1      52.234  56.481  18.615  1.00  0.00     0.210 HD
ENDBRANCH  18  19
ENDBRANCH   9  10
ENDBRANCH   2   8
BRANCH   1  21
HETATM   21  C2  UNL     1      50.622  50.055  20.805  1.00  0.00     0.005 C 
HETATM   22  C1  UNL     1      50.544  48.637  21.326  1.00  0.00     0.005 C 
ENDBRANCH   1  21
BRANCH   7  23
HETATM   23  O5  UNL     1      48.859  48.664  18.616  1.00  0.00    -0.393 OA
ATOM     24  H5  UNL     1      48.697  48.348  17.734  1.00  0.00     0.210 HD
ENDBRANCH   7  23
BRANCH   6  25
HETATM   25  C17 UNL     1      48.578  50.585  16.337  1.00  0.00     0.172 C 
HETATM   26  C18 UNL     1      48.060  51.994  16.541  1.00  0.00     0.060 C 
BRANCH  25  27
HETATM   27  O2  UNL     1      49.083  50.562  15.008  1.00  0.00    -0.377 OA
ATOM     28  H2  UNL     1      49.391  49.675  14.866  1.00  0.00     0.211 HD
ENDBRANCH  25  27
BRANCH  25  29
HETATM   29  C19 UNL     1      47.530  49.581  16.415  1.00  0.00     0.210 C 
HETATM   30  O3  UNL     1      47.662  48.455  15.904  1.00  0.00    -0.646 OA
HETATM   31  O4  UNL     1      46.334  49.840  17.065  1.00  0.00    -0.646 OA
ENDBRANCH  25  29
ENDBRANCH   6  25
TORSDOF 8
ENDMDL
MODEL 2
REMARK VINA RESULT: -8.730952738      0.995      1.346
REMARK  8 active torsions:
REMARK  status: ('A' for Active; 'I' for Inactive)
REMARK    1  A    between atoms: C2_2  and  C3_3 
REMARK    2  A    between atoms: C4_4  and  C5_5 
REMARK    3  A    between atoms: C6_6  and  C7_7 
REMARK    4  A    between atoms: C15_15  and  O1_16 
REMARK    5  A    between atoms: C16_21  and  C17_22 
REMARK    6  A    between atoms: C17_22  and  O2_24 
REMARK    7  A    between atoms: C17_22  and  C19_26 
REMARK    8  A    between atoms: C20_29  and  O5_30 
ROOT
HETATM    1  C3  UNL     1      50.378  50.004  19.191  1.00  0.00     0.050 C 
HETATM    2  C4  UNL     1      50.610  51.357  18.608  1.00  0.00     0.215 C 
HETATM    3  N1  UNL     1      49.663  51.524  17.502  1.00  0.00    -0.057 N 
ATOM      4  H11 UNL     1      50.060  52.009  16.698  1.00  0.00     0.278 HD
ATOM      5  H12 UNL     1      48.923  52.196  17.700  1.00  0.00     0.278 HD
HETATM    6  C16 UNL     1      49.178  50.221  17.196  1.00  0.00     0.260 C 
HETATM    7  C20 UNL     1      49.036  49.624  18.603  1.00  0.00     0.158 C 
ENDROOT
BRANCH   2   8
HETATM    8  C5  UNL     1      50.530  52.468  19.562  1.00  0.00     0.003 C 
HETATM    9  C6  UNL     1      49.710  53.504  19.426  1.00  0.00    -0.016 C 
BRANCH   9  10
HETATM   10  C7  UNL     1      49.645  54.605  20.392  1.00  0.00     0.007 C 
HETATM   11  C8  UNL     1      49.052  54.096  21.710  1.00  0.00     0.017 C 
HETATM   12  C9  UNL     1      47.685  54.350  21.058  1.00  0.00     0.007 C 
HETATM   13  C10 UNL     1      48.406  55.418  20.219  1.00  0.00     0.004 C 
HETATM   14  C11 UNL     1      48.377  56.715  20.930  1.00  0.00    -0.013 C 
HETATM   15  C12 UNL     1      47.484  57.665  20.118  1.00  0.00     0.010 C 
HETATM   16  C13 UNL     1      49.686  57.392  21.121  1.00  0.00     0.007 C 
HETATM   17  C14 UNL     1      50.806  56.487  21.534  1.00  0.00     0.033 C 
HETATM   18  C15 UNL     1      50.902  55.375  20.524  1.00  0.00     0.130 C 
BRANCH  18  19
HETATM   19  O1  UNL     1      51.225  55.919  19.290  1.00  0.00    -0.394 OA
ATOM     20  H1  UNL     1      51.748  56.701  19.427  1.00  0.00     0.210 HD
ENDBRANCH  18  19
ENDBRANCH   9  10
ENDBRANCH   2   8
BRANCH   1  21
HETATM   21  C2  UNL     1      50.364  49.979  20.698  1.00  0.00     0.005 C 
HETATM   22  C1  UNL     1      50.716  48.578  21.150  1.00  0.00     0.005 C 
ENDBRANCH   1  21
BRANCH   7  23
HETATM   23  O5  UNL     1      48.850  48.261  18.556  1.00  0.00    -0.393 OA
ATOM     24  H5  UNL     1      48.194  47.963  19.176  1.00  0.00     0.210 HD
ENDBRANCH   7  23
BRANCH   6  25
HETATM   25  C17 UNL     1      47.928  50.125  16.401  1.00  0.00     0.172 C 
HETATM   26  C18 UNL     1      48.187  50.766  15.054  1.00  0.00     0.060 C 
BRANCH  25  27
HETATM   27  O2  UNL     1      47.753  48.740  16.127  1.00  0.00    -0.377 OA
ATOM     28  H2  UNL     1      48.535  48.471  15.661  1.00  0.00     0.211 HD
ENDBRANCH  25  27
BRANCH  25  29
HETATM   29  C19 UNL     1      46.704  50.597  17.025  1.00  0.00     0.210 C 
HETATM   30  O3  UNL     1      45.770  49.824  17.304  1.00  0.00    -0.646 OA
HETATM   31  O4  UNL     1      46.526  51.935  17.336  1.00  0.00    -0.646 OA
ENDBRANCH  25  29
ENDBRANCH   6  25
TORSDOF 8
ENDMDL
MODEL 3
REMARK VINA RESULT: -8.146375440      1.664      2.420
REMARK  8 active torsions:
REMARK  status: ('A' for Active; 'I' for Inactive)
REMARK    1  A    between atoms: C2_2  and  C3_3 
REMARK    2  A    between atoms: C4_4  and  C5_5 
REMARK    3  A    between atoms: C6_6  and  C7_7 
REMARK    4  A    between atoms: C15_15  and  O1_16 
REMARK    5  A    between atoms: C16_21  and  C17_22 
REMARK    6  A    between atoms: C17_22  and  O2_24 
REMARK    7  A    between atoms: C17_22  and  C19_26 
REMARK    8  A    between atoms: C20_29  and  O5_30 
ROOT
HETATM    1  C3  UNL     1      49.795  50.873  17.295  1.00  0.00     0.050 C 
HETATM    2  C4  UNL     1      48.877  52.005  17.610  1.00  0.00     0.215 C 
HETATM    3  N1  UNL     1      47.514  51.469  17.636  1.00  0.00    -0.057 N 
ATOM      4  H11 UNL     1      46.823  52.097  17.227  1.00  0.00     0.278 HD
ATOM      5  H12 UNL     1      47.111  51.431  18.572  1.00  0.00     0.278 HD
HETATM    6  C16 UNL     1      47.576  50.199  16.995  1.00  0.00     0.260 C 
HETATM    7  C20 UNL     1      48.912  49.666  17.532  1.00  0.00     0.158 C 
ENDROOT
BRANCH   2   8
HETATM    8  C5  UNL     1      49.194  52.740  18.839  1.00  0.00     0.003 C 
HETATM    9  C6  UNL     1      49.199  54.066  18.929  1.00  0.00    -0.016 C 
BRANCH   9  10
HETATM   10  C7  UNL     1      49.518  54.782  20.169  1.00  0.00     0.007 C 
HETATM   11  C8  UNL     1      48.878  54.057  21.358  1.00  0.00     0.017 C 
HETATM   12  C9  UNL     1      47.612  54.855  21.012  1.00  0.00     0.007 C 
HETATM   13  C10 UNL     1      48.567  55.903  20.418  1.00  0.00     0.004 C 
HETATM   14  C11 UNL     1      48.962  56.869  21.466  1.00  0.00    -0.013 C 
HETATM   15  C12 UNL     1      48.344  58.226  21.099  1.00  0.00     0.010 C 
HETATM   16  C13 UNL     1      50.421  57.081  21.649  1.00  0.00     0.007 C 
HETATM   17  C14 UNL     1      51.247  55.832  21.618  1.00  0.00     0.033 C 
HETATM   18  C15 UNL     1      50.951  55.111  20.331  1.00  0.00     0.130 C 
BRANCH  18  19
HETATM   19  O1  UNL     1      51.349  55.912  19.270  1.00  0.00    -0.394 OA
ATOM     20  H1  UNL     1      52.289  56.040  19.319  1.00  0.00     0.210 HD
ENDBRANCH  18  19
ENDBRANCH   9  10
ENDBRANCH   2   8
BRANCH   1  21
HETATM   21  C2  UNL     1      51.041  50.838  18.142  1.00  0.00     0.005 C 
HETATM   22  C1  UNL     1      52.179  51.421  17.333  1.00  0.00     0.005 C 
ENDBRANCH   1  21
BRANCH   7  23
HETATM   23  O5  UNL     1      49.333  48.561  16.827  1.00  0.00    -0.393 OA
ATOM     24  H5  UNL     1      49.584  47.842  17.396  1.00  0.00     0.210 HD
ENDBRANCH   7  23
BRANCH   6  25
HETATM   25  C17 UNL     1      46.449  49.260  17.225  1.00  0.00     0.172 C 
HETATM   26  C18 UNL     1      46.755  48.471  18.481  1.00  0.00     0.060 C 
BRANCH  25  27
HETATM   27  O2  UNL     1      45.333  50.075  17.559  1.00  0.00    -0.377 OA
ATOM     28  H2  UNL     1      45.270  50.047  18.506  1.00  0.00     0.211 HD
ENDBRANCH  25  27
BRANCH  25  29
HETATM   29  C19 UNL     1      46.048  48.416  16.112  1.00  0.00     0.210 C 
HETATM   30  O3  UNL     1      46.611  48.481  15.005  1.00  0.00    -0.646 OA
HETATM   31  O4  UNL     1      45.015  47.501  16.240  1.00  0.00    -0.646 OA
ENDBRANCH  25  29
ENDBRANCH   6  25
TORSDOF 8
ENDMDL
MODEL 4
REMARK VINA RESULT: -8.105161410      1.409      2.149
REMARK  8 active torsions:
REMARK  status: ('A' for Active; 'I' for Inactive)
REMARK    1  A    between atoms: C2_2  and  C3_3 
REMARK    2  A    between atoms: C4_4  and  C5_5 
REMARK    3  A    between atoms: C6_6  and  C7_7 
REMARK    4  A    between atoms: C15_15  and  O1_16 
REMARK    5  A    between atoms: C16_21  and  C17_22 
REMARK    6  A    between atoms: C17_22  and  O2_24 
REMARK    7  A    between atoms: C17_22  and  C19_26 
REMARK    8  A    between atoms: C20_29  and  O5_30 
ROOT
HETATM    1  C3  UNL     1      50.369  49.800  19.061  1.00  0.00     0.050 C 
HETATM    2  C4  UNL     1      50.770  51.002  18.275  1.00  0.00     0.215 C 
HETATM    3  N1  UNL     1      49.809  51.148  17.178  1.00  0.00    -0.057 N 
ATOM      4  H11 UNL     1      50.237  51.445  16.301  1.00  0.00     0.278 HD
ATOM      5  H12 UNL     1      49.185  51.946  17.289  1.00  0.00     0.278 HD
HETATM    6  C16 UNL     1      49.125  49.902  17.083  1.00  0.00     0.260 C 
HETATM    7  C20 UNL     1      48.960  49.546  18.567  1.00  0.00     0.158 C 
ENDROOT
BRANCH   2   8
HETATM    8  C5  UNL     1      50.896  52.240  19.052  1.00  0.00     0.003 C 
HETATM    9  C6  UNL     1      49.862  52.939  19.505  1.00  0.00    -0.016 C 
BRANCH   9  10
HETATM   10  C7  UNL     1      50.010  54.174  20.282  1.00  0.00     0.007 C 
HETATM   11  C8  UNL     1      48.866  55.135  19.939  1.00  0.00     0.017 C 
HETATM   12  C9  UNL     1      49.740  55.565  18.751  1.00  0.00     0.007 C 
HETATM   13  C10 UNL     1      50.936  55.136  19.616  1.00  0.00     0.004 C 
HETATM   14  C11 UNL     1      51.390  56.276  20.442  1.00  0.00    -0.013 C 
HETATM   15  C12 UNL     1      52.781  56.686  19.936  1.00  0.00     0.010 C 
HETATM   16  C13 UNL     1      51.504  56.028  21.902  1.00  0.00     0.007 C 
HETATM   17  C14 UNL     1      50.373  55.248  22.497  1.00  0.00     0.033 C 
HETATM   18  C15 UNL     1      50.240  53.961  21.728  1.00  0.00     0.130 C 
BRANCH  18  19
HETATM   19  O1  UNL     1      51.401  53.221  21.892  1.00  0.00    -0.394 OA
ATOM     20  H1  UNL     1      51.949  53.650  22.539  1.00  0.00     0.210 HD
ENDBRANCH  18  19
ENDBRANCH   9  10
ENDBRANCH   2   8
BRANCH   1  21
HETATM   21  C2  UNL     1      50.419  49.997  20.554  1.00  0.00     0.005 C 
HETATM   22  C1  UNL     1      50.608  48.643  21.203  1.00  0.00     0.005 C 
ENDBRANCH   1  21
BRANCH   7  23
HETATM   23  O5  UNL     1      48.575  48.234  18.730  1.00  0.00    -0.393 OA
ATOM     24  H5  UNL     1      49.312  47.657  18.892  1.00  0.00     0.210 HD
ENDBRANCH   7  23
BRANCH   6  25
HETATM   25  C17 UNL     1      47.840  49.882  16.340  1.00  0.00     0.172 C 
HETATM   26  C18 UNL     1      48.096  50.450  14.960  1.00  0.00     0.060 C 
BRANCH  25  27
HETATM   27  O2  UNL     1      47.542  48.508  16.128  1.00  0.00    -0.377 OA
ATOM     28  H2  UNL     1      47.039  48.476  15.323  1.00  0.00     0.211 HD
ENDBRANCH  25  27
BRANCH  25  29
HETATM   29  C19 UNL     1      46.685  50.477  16.991  1.00  0.00     0.210 C 
HETATM   30  O3  UNL     1      45.704  49.795  17.336  1.00  0.00    -0.646 OA
HETATM   31  O4  UNL     1      46.630  51.836  17.253  1.00  0.00    -0.646 OA
ENDBRANCH  25  29
ENDBRANCH   6  25
TORSDOF 8
ENDMDL
MODEL 5
REMARK VINA RESULT: -8.020548910      2.063      7.131
REMARK  8 active torsions:
REMARK  status: ('A' for Active; 'I' for Inactive)
REMARK    1  A    between atoms: C2_2  and  C3_3 
REMARK    2  A    between atoms: C4_4  and  C5_5 
REMARK    3  A    between atoms: C6_6  and  C7_7 
REMARK    4  A    between atoms: C15_15  and  O1_16 
REMARK    5  A    between atoms: C16_21  and  C17_22 
REMARK    6  A    between atoms: C17_22  and  O2_24 
REMARK    7  A    between atoms: C17_22  and  C19_26 
REMARK    8  A    between atoms: C20_29  and  O5_30 
ROOT
HETATM    1  C3  UNL     1      49.774  53.329  21.385  1.00  0.00     0.050 C 
HETATM    2  C4  UNL     1      49.147  54.001  20.211  1.00  0.00     0.215 C 
HETATM    3  N1  UNL     1      49.809  55.297  20.043  1.00  0.00    -0.057 N 
ATOM      4  H11 UNL     1      49.172  56.047  19.776  1.00  0.00     0.278 HD
ATOM      5  H12 UNL     1      50.408  55.343  19.220  1.00  0.00     0.278 HD
HETATM    6  C16 UNL     1      50.502  55.549  21.262  1.00  0.00     0.260 C 
HETATM    7  C20 UNL     1      51.033  54.146  21.591  1.00  0.00     0.158 C 
ENDROOT
BRANCH   2   8
HETATM    8  C5  UNL     1      49.159  53.222  18.968  1.00  0.00     0.003 C 
HETATM    9  C6  UNL     1      48.278  52.270  18.682  1.00  0.00    -0.016 C 
BRANCH   9  10
HETATM   10  C7  UNL     1      48.307  51.502  17.433  1.00  0.00     0.007 C 
HETATM   11  C8  UNL     1      47.787  52.373  16.284  1.00  0.00     0.017 C 
HETATM   12  C9  UNL     1      46.388  51.927  16.735  1.00  0.00     0.007 C 
HETATM   13  C10 UNL     1      47.084  50.665  17.271  1.00  0.00     0.004 C 
HETATM   14  C11 UNL     1      47.138  49.635  16.211  1.00  0.00    -0.013 C 
HETATM   15  C12 UNL     1      46.221  48.481  16.642  1.00  0.00     0.010 C 
HETATM   16  C13 UNL     1      48.475  49.056  15.922  1.00  0.00     0.007 C 
HETATM   17  C14 UNL     1      49.593  50.051  15.874  1.00  0.00     0.033 C 
HETATM   18  C15 UNL     1      49.591  50.816  17.169  1.00  0.00     0.130 C 
BRANCH  18  19
HETATM   19  O1  UNL     1      49.849  49.935  18.209  1.00  0.00    -0.394 OA
ATOM     20  H1  UNL     1      49.285  49.175  18.113  1.00  0.00     0.210 HD
ENDBRANCH  18  19
ENDBRANCH   9  10
ENDBRANCH   2   8
BRANCH   1  21
HETATM   21  C2  UNL     1      50.075  51.869  21.169  1.00  0.00     0.005 C 
HETATM   22  C1  UNL     1      51.502  51.749  20.679  1.00  0.00     0.005 C 
ENDBRANCH   1  21
BRANCH   7  23
HETATM   23  O5  UNL     1      51.500  54.075  22.883  1.00  0.00    -0.393 OA
ATOM     24  H5  UNL     1      52.250  54.640  23.030  1.00  0.00     0.210 HD
ENDBRANCH   7  23
BRANCH   6  25
HETATM   25  C17 UNL     1      51.571  56.578  21.242  1.00  0.00     0.172 C 
HETATM   26  C18 UNL     1      50.908  57.935  21.359  1.00  0.00     0.060 C 
BRANCH  25  27
HETATM   27  O2  UNL     1      52.289  56.409  22.458  1.00  0.00    -0.377 OA
ATOM     28  H2  UNL     1      52.992  55.803  22.258  1.00  0.00     0.211 HD
ENDBRANCH  25  27
BRANCH  25  29
HETATM   29  C19 UNL     1      52.538  56.514  20.159  1.00  0.00     0.210 C 
HETATM   30  O3  UNL     1      52.231  56.087  19.032  1.00  0.00    -0.646 OA
HETATM   31  O4  UNL     1      53.848  56.927  20.341  1.00  0.00    -0.646 OA
ENDBRANCH  25  29
ENDBRANCH   6  25
TORSDOF 8
ENDMDL
