MODEL 1
REMARK VINA RESULT: -8.424445397      0.000      0.000
REMARK  13 active torsions:
REMARK  status: ('A' for Active; 'I' for Inactive)
REMARK    1  A    between atoms: C2_2  and  C4_4 
REMARK    2  A    between atoms: C4_4  and  C5_5 
REMARK    3  A    between atoms: C4_4  and  C28_38 
REMARK    4  A    between atoms: C6_6  and  C7_7 
REMARK    5  A    between atoms: C7_7  and  O1_8 
REMARK    6  A    between atoms: C7_7  and  C8_10 
REMARK    7  A    between atoms: C8_10  and  O2_11 
REMARK    8  A    between atoms: O2_11  and  C9_12 
REMARK    9  A    between atoms: C9_12  and  C10_13 
REMARK   10  A    between atoms: C11_14  and  C13_16 
REMARK   11  A    between atoms: C14_17  and  C15_18 
REMARK   12  A    between atoms: C15_18  and  O3_19 
REMARK   13  A    between atoms: C16_21  and  O4_22 
ROOT
HETATM    1  C15 UNL     1      48.427  49.057  17.230  1.00  0.00     0.127 C 
HETATM    2  C16 UNL     1      49.088  49.648  16.020  1.00  0.00     0.189 C 
HETATM    3  C17 UNL     1      48.140  49.342  14.908  1.00  0.00     0.185 A 
HETATM    4  O5  UNL     1      47.017  50.182  14.734  1.00  0.00    -0.371 OA
HETATM    5  C18 UNL     1      46.844  49.030  15.475  1.00  0.00     0.179 A 
HETATM    6  C19 UNL     1      46.964  49.101  16.989  1.00  0.00     0.111 C 
HETATM    7  C20 UNL     1      46.281  50.334  17.468  1.00  0.00     0.038 C 
HETATM    8  C21 UNL     1      46.255  47.932  17.511  1.00  0.00     0.075 C 
HETATM    9  N1  UNL     1      45.695  47.010  17.923  1.00  0.00    -0.196 NA
ENDROOT
BRANCH   1  10
HETATM   10  C14 UNL     1      48.882  49.684  18.491  1.00  0.00     0.016 C 
HETATM   11  C13 UNL     1      49.279  49.024  19.545  1.00  0.00     0.005 C 
BRANCH  11  12
HETATM   12  C11 UNL     1      49.711  49.756  20.748  1.00  0.00    -0.064 C 
HETATM   13  C10 UNL     1      49.863  51.051  20.630  1.00  0.00     0.006 C 
HETATM   14  C12 UNL     1      49.944  48.995  21.990  1.00  0.00     0.048 C 
BRANCH  13  15
HETATM   15  C9  UNL     1      50.281  52.038  21.649  1.00  0.00     0.197 C 
BRANCH  15  16
HETATM   16  O2  UNL     1      50.091  53.285  21.446  1.00  0.00    -0.364 OA
BRANCH  16  17
HETATM   17  C8  UNL     1      50.371  54.293  20.702  1.00  0.00     0.164 C 
HETATM   18  C22 UNL     1      51.123  55.431  21.298  1.00  0.00     0.187 C 
HETATM   19  O6  UNL     1      51.414  55.657  22.467  1.00  0.00    -0.290 OA
HETATM   20  C23 UNL     1      51.451  56.254  20.153  1.00  0.00     0.050 C 
HETATM   21  C24 UNL     1      51.457  55.540  19.052  1.00  0.00    -0.011 C 
HETATM   22  C25 UNL     1      51.127  54.159  19.418  1.00  0.00     0.012 C 
HETATM   23  C26 UNL     1      52.502  53.544  19.620  1.00  0.00     0.023 C 
HETATM   24  C27 UNL     1      50.425  53.394  18.346  1.00  0.00     0.023 C 
BRANCH  17  25
HETATM   25  C7  UNL     1      48.981  54.951  20.412  1.00  0.00     0.184 C 
BRANCH  25  26
HETATM   26  C6  UNL     1      48.833  56.231  21.105  1.00  0.00     0.005 C 
HETATM   27  C5  UNL     1      47.975  57.173  20.860  1.00  0.00    -0.019 C 
BRANCH  27  28
HETATM   28  C4  UNL     1      46.928  57.159  19.799  1.00  0.00     0.035 C 
BRANCH  28  29
HETATM   29  C2  UNL     1      47.370  57.831  18.566  1.00  0.00    -0.085 C 
HETATM   30  C1  UNL     1      47.543  57.149  17.412  1.00  0.00     0.014 C 
HETATM   31  C3  UNL     1      47.669  59.283  18.507  1.00  0.00     0.043 C 
ENDBRANCH  28  29
BRANCH  28  32
HETATM   32  C28 UNL     1      45.641  57.675  20.385  1.00  0.00     0.008 C 
HETATM   33  C29 UNL     1      44.602  58.094  19.407  1.00  0.00     0.006 C 
ENDBRANCH  28  32
ENDBRANCH  27  28
ENDBRANCH  25  26
BRANCH  25  34
HETATM   34  O1  UNL     1      47.942  54.089  20.442  1.00  0.00    -0.388 OA
ATOM     35  H1  UNL     1      47.634  53.732  19.617  1.00  0.00     0.210 HD
ENDBRANCH  25  34
ENDBRANCH  17  25
ENDBRANCH  16  17
ENDBRANCH  15  16
ENDBRANCH  13  15
ENDBRANCH  11  12
ENDBRANCH   1  10
BRANCH   1  36
HETATM   36  O3  UNL     1      48.817  47.700  17.291  1.00  0.00    -0.381 OA
ATOM     37  H3  UNL     1      48.117  47.236  17.735  1.00  0.00     0.211 HD
ENDBRANCH   1  36
BRANCH   2  38
HETATM   38  O4  UNL     1      49.373  50.997  16.158  1.00  0.00    -0.389 OA
ATOM     39  H4  UNL     1      50.304  51.185  16.149  1.00  0.00     0.210 HD
ENDBRANCH   2  38
TORSDOF 13
ENDMDL
MODEL 2
REMARK VINA RESULT: -8.113327287      1.999      5.165
REMARK  13 active torsions:
REMARK  status: ('A' for Active; 'I' for Inactive)
REMARK    1  A    between atoms: C2_2  and  C4_4 
REMARK    2  A    between atoms: C4_4  and  C5_5 
REMARK    3  A    between atoms: C4_4  and  C28_38 
REMARK    4  A    between atoms: C6_6  and  C7_7 
REMARK    5  A    between atoms: C7_7  and  O1_8 
REMARK    6  A    between atoms: C7_7  and  C8_10 
REMARK    7  A    between atoms: C8_10  and  O2_11 
REMARK    8  A    between atoms: O2_11  and  C9_12 
REMARK    9  A    between atoms: C9_12  and  C10_13 
REMARK   10  A    between atoms: C11_14  and  C13_16 
REMARK   11  A    between atoms: C14_17  and  C15_18 
REMARK   12  A    between atoms: C15_18  and  O3_19 
REMARK   13  A    between atoms: C16_21  and  O4_22 
ROOT
HETATM    1  C15 UNL     1      47.707  50.244  16.020  1.00  0.00     0.127 C 
HETATM    2  C16 UNL     1      46.515  49.581  16.645  1.00  0.00     0.189 C 
HETATM    3  C17 UNL     1      46.908  48.144  16.733  1.00  0.00     0.185 A 
HETATM    4  O5  UNL     1      47.727  47.738  17.811  1.00  0.00    -0.371 OA
HETATM    5  C18 UNL     1      48.349  48.049  16.618  1.00  0.00     0.179 A 
HETATM    6  C19 UNL     1      48.898  49.452  16.415  1.00  0.00     0.111 C 
HETATM    7  C20 UNL     1      49.564  49.894  17.670  1.00  0.00     0.038 C 
HETATM    8  C21 UNL     1      49.903  49.349  15.355  1.00  0.00     0.075 C 
HETATM    9  N1  UNL     1      50.695  49.269  14.520  1.00  0.00    -0.196 NA
ENDROOT
BRANCH   1  10
HETATM   10  C14 UNL     1      47.778  51.691  16.323  1.00  0.00     0.016 C 
HETATM   11  C13 UNL     1      46.982  52.593  15.818  1.00  0.00     0.005 C 
BRANCH  11  12
HETATM   12  C11 UNL     1      47.147  54.009  16.192  1.00  0.00    -0.064 C 
HETATM   13  C10 UNL     1      48.033  54.276  17.118  1.00  0.00     0.006 C 
HETATM   14  C12 UNL     1      46.313  55.018  15.511  1.00  0.00     0.048 C 
BRANCH  13  15
HETATM   15  C9  UNL     1      48.414  55.585  17.693  1.00  0.00     0.197 C 
BRANCH  15  16
HETATM   16  O2  UNL     1      48.975  55.638  18.839  1.00  0.00    -0.364 OA
BRANCH  16  17
HETATM   17  C8  UNL     1      48.937  56.150  20.016  1.00  0.00     0.164 C 
HETATM   18  C22 UNL     1      50.164  56.797  20.553  1.00  0.00     0.187 C 
HETATM   19  O6  UNL     1      51.307  56.807  20.110  1.00  0.00    -0.290 OA
HETATM   20  C23 UNL     1      49.703  57.443  21.763  1.00  0.00     0.050 C 
HETATM   21  C24 UNL     1      48.413  57.677  21.705  1.00  0.00    -0.011 C 
HETATM   22  C25 UNL     1      47.933  57.188  20.409  1.00  0.00     0.012 C 
HETATM   23  C26 UNL     1      48.024  58.434  19.543  1.00  0.00     0.023 C 
HETATM   24  C27 UNL     1      46.514  56.726  20.418  1.00  0.00     0.023 C 
BRANCH  17  25
HETATM   25  C7  UNL     1      48.792  54.913  20.964  1.00  0.00     0.184 C 
BRANCH  25  26
HETATM   26  C6  UNL     1      50.082  54.507  21.525  1.00  0.00     0.005 C 
HETATM   27  C5  UNL     1      50.768  53.441  21.250  1.00  0.00    -0.019 C 
BRANCH  27  28
HETATM   28  C4  UNL     1      50.388  52.373  20.283  1.00  0.00     0.035 C 
BRANCH  28  29
HETATM   29  C2  UNL     1      50.767  51.030  20.753  1.00  0.00    -0.085 C 
HETATM   30  C1  UNL     1      49.965  50.316  21.575  1.00  0.00     0.014 C 
HETATM   31  C3  UNL     1      52.047  50.379  20.378  1.00  0.00     0.043 C 
ENDBRANCH  28  29
BRANCH  28  32
HETATM   32  C28 UNL     1      50.912  52.746  18.922  1.00  0.00     0.008 C 
HETATM   33  C29 UNL     1      52.149  53.571  18.904  1.00  0.00     0.006 C 
ENDBRANCH  28  32
ENDBRANCH  27  28
ENDBRANCH  25  26
BRANCH  25  34
HETATM   34  O1  UNL     1      47.971  53.948  20.498  1.00  0.00    -0.388 OA
ATOM     35  H1  UNL     1      47.080  54.189  20.276  1.00  0.00     0.210 HD
ENDBRANCH  25  34
ENDBRANCH  17  25
ENDBRANCH  16  17
ENDBRANCH  15  16
ENDBRANCH  13  15
ENDBRANCH  11  12
ENDBRANCH   1  10
BRANCH   1  36
HETATM   36  O3  UNL     1      47.554  50.132  14.621  1.00  0.00    -0.381 OA
ATOM     37  H3  UNL     1      46.620  50.089  14.452  1.00  0.00     0.211 HD
ENDBRANCH   1  36
BRANCH   2  38
HETATM   38  O4  UNL     1      46.155  50.139  17.862  1.00  0.00    -0.389 OA
ATOM     39  H4  UNL     1      45.368  49.757  18.230  1.00  0.00     0.210 HD
ENDBRANCH   2  38
TORSDOF 13
ENDMDL
MODEL 3
REMARK VINA RESULT: -8.088065568      1.779      4.736
REMARK  13 active torsions:
REMARK  status: ('A' for Active; 'I' for Inactive)
REMARK    1  A    between atoms: C2_2  and  C4_4 
REMARK    2  A    between atoms: C4_4  and  C5_5 
REMARK    3  A    between atoms: C4_4  and  C28_38 
REMARK    4  A    between atoms: C6_6  and  C7_7 
REMARK    5  A    between atoms: C7_7  and  O1_8 
REMARK    6  A    between atoms: C7_7  and  C8_10 
REMARK    7  A    between atoms: C8_10  and  O2_11 
REMARK    8  A    between atoms: O2_11  and  C9_12 
REMARK    9  A    between atoms: C9_12  and  C10_13 
REMARK   10  A    between atoms: C11_14  and  C13_16 
REMARK   11  A    between atoms: C14_17  and  C15_18 
REMARK   12  A    between atoms: C15_18  and  O3_19 
REMARK   13  A    between atoms: C16_21  and  O4_22 
ROOT
HETATM    1  C15 UNL     1      47.282  49.152  17.434  1.00  0.00     0.127 C 
HETATM    2  C16 UNL     1      47.293  48.520  16.073  1.00  0.00     0.189 C 
HETATM    3  C17 UNL     1      46.854  47.116  16.325  1.00  0.00     0.185 A 
HETATM    4  O5  UNL     1      45.470  46.861  16.458  1.00  0.00    -0.371 OA
HETATM    5  C18 UNL     1      46.197  47.060  17.615  1.00  0.00     0.179 A 
HETATM    6  C19 UNL     1      46.243  48.451  18.227  1.00  0.00     0.111 C 
HETATM    7  C20 UNL     1      44.883  49.051  18.160  1.00  0.00     0.038 C 
HETATM    8  C21 UNL     1      46.612  48.268  19.632  1.00  0.00     0.075 C 
HETATM    9  N1  UNL     1      46.902  48.124  20.740  1.00  0.00    -0.196 NA
ENDROOT
BRANCH   1  10
HETATM   10  C14 UNL     1      47.151  50.625  17.377  1.00  0.00     0.016 C 
HETATM   11  C13 UNL     1      48.050  51.429  16.879  1.00  0.00     0.005 C 
BRANCH  11  12
HETATM   12  C11 UNL     1      47.811  52.883  16.875  1.00  0.00    -0.064 C 
HETATM   13  C10 UNL     1      48.564  53.608  17.664  1.00  0.00     0.006 C 
HETATM   14  C12 UNL     1      46.753  53.420  15.998  1.00  0.00     0.048 C 
BRANCH  13  15
HETATM   15  C9  UNL     1      48.557  55.073  17.872  1.00  0.00     0.197 C 
BRANCH  15  16
HETATM   16  O2  UNL     1      49.158  55.576  18.880  1.00  0.00    -0.364 OA
BRANCH  16  17
HETATM   17  C8  UNL     1      49.020  56.148  20.021  1.00  0.00     0.164 C 
HETATM   18  C22 UNL     1      50.160  56.932  20.569  1.00  0.00     0.187 C 
HETATM   19  O6  UNL     1      51.318  57.018  20.175  1.00  0.00    -0.290 OA
HETATM   20  C23 UNL     1      49.588  57.601  21.718  1.00  0.00     0.050 C 
HETATM   21  C24 UNL     1      48.288  57.715  21.591  1.00  0.00    -0.011 C 
HETATM   22  C25 UNL     1      47.913  57.113  20.307  1.00  0.00     0.012 C 
HETATM   23  C26 UNL     1      47.937  58.311  19.373  1.00  0.00     0.023 C 
HETATM   24  C27 UNL     1      46.540  56.528  20.284  1.00  0.00     0.023 C 
BRANCH  17  25
HETATM   25  C7  UNL     1      48.939  54.959  21.035  1.00  0.00     0.184 C 
BRANCH  25  26
HETATM   26  C6  UNL     1      50.255  54.620  21.579  1.00  0.00     0.005 C 
HETATM   27  C5  UNL     1      51.079  53.710  21.158  1.00  0.00    -0.019 C 
BRANCH  27  28
HETATM   28  C4  UNL     1      50.863  52.791  20.005  1.00  0.00     0.035 C 
BRANCH  28  29
HETATM   29  C2  UNL     1      50.679  51.393  20.428  1.00  0.00    -0.085 C 
HETATM   30  C1  UNL     1      49.515  50.739  20.217  1.00  0.00     0.014 C 
HETATM   31  C3  UNL     1      51.737  50.618  21.120  1.00  0.00     0.043 C 
ENDBRANCH  28  29
BRANCH  28  32
HETATM   32  C28 UNL     1      51.960  53.017  18.998  1.00  0.00     0.008 C 
HETATM   33  C29 UNL     1      51.925  52.148  17.792  1.00  0.00     0.006 C 
ENDBRANCH  28  32
ENDBRANCH  27  28
ENDBRANCH  25  26
BRANCH  25  34
HETATM   34  O1  UNL     1      48.134  53.948  20.643  1.00  0.00    -0.388 OA
ATOM     35  H1  UNL     1      47.267  53.892  21.027  1.00  0.00     0.210 HD
ENDBRANCH  25  34
ENDBRANCH  17  25
ENDBRANCH  16  17
ENDBRANCH  15  16
ENDBRANCH  13  15
ENDBRANCH  11  12
ENDBRANCH   1  10
BRANCH   1  36
HETATM   36  O3  UNL     1      48.536  48.881  18.024  1.00  0.00    -0.381 OA
ATOM     37  H3  UNL     1      48.383  48.789  18.957  1.00  0.00     0.211 HD
ENDBRANCH   1  36
BRANCH   2  38
HETATM   38  O4  UNL     1      46.509  49.196  15.151  1.00  0.00    -0.389 OA
ATOM     39  H4  UNL     1      45.578  49.093  15.305  1.00  0.00     0.210 HD
ENDBRANCH   2  38
TORSDOF 13
ENDMDL
MODEL 4
REMARK VINA RESULT: -8.004998800      1.373      2.212
REMARK  13 active torsions:
REMARK  status: ('A' for Active; 'I' for Inactive)
REMARK    1  A    between atoms: C2_2  and  C4_4 
REMARK    2  A    between atoms: C4_4  and  C5_5 
REMARK    3  A    between atoms: C4_4  and  C28_38 
REMARK    4  A    between atoms: C6_6  and  C7_7 
REMARK    5  A    between atoms: C7_7  and  O1_8 
REMARK    6  A    between atoms: C7_7  and  C8_10 
REMARK    7  A    between atoms: C8_10  and  O2_11 
REMARK    8  A    between atoms: O2_11  and  C9_12 
REMARK    9  A    between atoms: C9_12  and  C10_13 
REMARK   10  A    between atoms: C11_14  and  C13_16 
REMARK   11  A    between atoms: C14_17  and  C15_18 
REMARK   12  A    between atoms: C15_18  and  O3_19 
REMARK   13  A    between atoms: C16_21  and  O4_22 
ROOT
HETATM    1  C15 UNL     1      48.437  49.233  17.861  1.00  0.00     0.127 C 
HETATM    2  C16 UNL     1      49.100  49.324  16.518  1.00  0.00     0.189 C 
HETATM    3  C17 UNL     1      48.105  48.719  15.585  1.00  0.00     0.185 A 
HETATM    4  O5  UNL     1      47.032  49.522  15.136  1.00  0.00    -0.371 OA
HETATM    5  C18 UNL     1      46.808  48.711  16.231  1.00  0.00     0.179 A 
HETATM    6  C19 UNL     1      46.974  49.291  17.627  1.00  0.00     0.111 C 
HETATM    7  C20 UNL     1      46.383  50.657  17.653  1.00  0.00     0.038 C 
HETATM    8  C21 UNL     1      46.208  48.425  18.524  1.00  0.00     0.075 C 
HETATM    9  N1  UNL     1      45.604  47.742  19.232  1.00  0.00    -0.196 NA
ENDROOT
BRANCH   1  10
HETATM   10  C14 UNL     1      48.966  50.224  18.826  1.00  0.00     0.016 C 
HETATM   11  C13 UNL     1      49.926  49.988  19.678  1.00  0.00     0.005 C 
BRANCH  11  12
HETATM   12  C11 UNL     1      50.371  51.054  20.592  1.00  0.00    -0.064 C 
HETATM   13  C10 UNL     1      49.560  52.068  20.759  1.00  0.00     0.006 C 
HETATM   14  C12 UNL     1      51.684  50.913  21.250  1.00  0.00     0.048 C 
BRANCH  13  15
HETATM   15  C9  UNL     1      49.732  53.271  21.603  1.00  0.00     0.197 C 
BRANCH  15  16
HETATM   16  O2  UNL     1      49.441  54.424  21.136  1.00  0.00    -0.364 OA
BRANCH  16  17
HETATM   17  C8  UNL     1      49.903  55.527  20.671  1.00  0.00     0.164 C 
HETATM   18  C22 UNL     1      49.221  56.798  21.037  1.00  0.00     0.187 C 
HETATM   19  O6  UNL     1      48.157  56.981  21.617  1.00  0.00    -0.290 OA
HETATM   20  C23 UNL     1      50.119  57.818  20.540  1.00  0.00     0.050 C 
HETATM   21  C24 UNL     1      51.341  57.353  20.437  1.00  0.00    -0.011 C 
HETATM   22  C25 UNL     1      51.322  55.955  20.878  1.00  0.00     0.012 C 
HETATM   23  C26 UNL     1      51.678  56.078  22.350  1.00  0.00     0.023 C 
HETATM   24  C27 UNL     1      52.347  55.092  20.219  1.00  0.00     0.023 C 
BRANCH  17  25
HETATM   25  C7  UNL     1      49.612  55.444  19.135  1.00  0.00     0.184 C 
BRANCH  25  26
HETATM   26  C6  UNL     1      48.205  55.142  18.867  1.00  0.00     0.005 C 
HETATM   27  C5  UNL     1      47.335  55.885  18.257  1.00  0.00    -0.019 C 
BRANCH  27  28
HETATM   28  C4  UNL     1      47.579  57.238  17.681  1.00  0.00     0.035 C 
BRANCH  28  29
HETATM   29  C2  UNL     1      46.886  58.300  18.429  1.00  0.00    -0.085 C 
HETATM   30  C1  UNL     1      47.324  59.578  18.411  1.00  0.00     0.014 C 
HETATM   31  C3  UNL     1      45.682  58.043  19.257  1.00  0.00     0.043 C 
ENDBRANCH  28  29
BRANCH  28  32
HETATM   32  C28 UNL     1      47.282  57.194  16.205  1.00  0.00     0.008 C 
HETATM   33  C29 UNL     1      46.840  55.880  15.669  1.00  0.00     0.006 C 
ENDBRANCH  28  32
ENDBRANCH  27  28
ENDBRANCH  25  26
BRANCH  25  34
HETATM   34  O1  UNL     1      50.551  54.780  18.427  1.00  0.00    -0.388 OA
ATOM     35  H1  UNL     1      50.971  55.235  17.707  1.00  0.00     0.210 HD
ENDBRANCH  25  34
ENDBRANCH  17  25
ENDBRANCH  16  17
ENDBRANCH  15  16
ENDBRANCH  13  15
ENDBRANCH  11  12
ENDBRANCH   1  10
BRANCH   1  36
HETATM   36  O3  UNL     1      48.744  47.957  18.385  1.00  0.00    -0.381 OA
ATOM     37  H3  UNL     1      48.465  47.323  17.735  1.00  0.00     0.211 HD
ENDBRANCH   1  36
BRANCH   2  38
HETATM   38  O4  UNL     1      49.472  50.615  16.180  1.00  0.00    -0.389 OA
ATOM     39  H4  UNL     1      48.744  51.150  15.886  1.00  0.00     0.210 HD
ENDBRANCH   2  38
TORSDOF 13
ENDMDL
MODEL 5
REMARK VINA RESULT: -7.992934750      2.446      4.513
REMARK  13 active torsions:
REMARK  status: ('A' for Active; 'I' for Inactive)
REMARK    1  A    between atoms: C2_2  and  C4_4 
REMARK    2  A    between atoms: C4_4  and  C5_5 
REMARK    3  A    between atoms: C4_4  and  C28_38 
REMARK    4  A    between atoms: C6_6  and  C7_7 
REMARK    5  A    between atoms: C7_7  and  O1_8 
REMARK    6  A    between atoms: C7_7  and  C8_10 
REMARK    7  A    between atoms: C8_10  and  O2_11 
REMARK    8  A    between atoms: O2_11  and  C9_12 
REMARK    9  A    between atoms: C9_12  and  C10_13 
REMARK   10  A    between atoms: C11_14  and  C13_16 
REMARK   11  A    between atoms: C14_17  and  C15_18 
REMARK   12  A    between atoms: C15_18  and  O3_19 
REMARK   13  A    between atoms: C16_21  and  O4_22 
ROOT
HETATM    1  C15 UNL     1      46.383  47.310  17.344  1.00  0.00     0.127 C 
HETATM    2  C16 UNL     1      45.789  46.674  16.122  1.00  0.00     0.189 C 
HETATM    3  C17 UNL     1      44.476  46.145  16.595  1.00  0.00     0.185 A 
HETATM    4  O5  UNL     1      43.386  47.041  16.687  1.00  0.00    -0.371 OA
HETATM    5  C18 UNL     1      44.125  46.812  17.831  1.00  0.00     0.179 A 
HETATM    6  C19 UNL     1      45.252  47.769  18.186  1.00  0.00     0.111 C 
HETATM    7  C20 UNL     1      44.798  49.163  17.930  1.00  0.00     0.038 C 
HETATM    8  C21 UNL     1      45.492  47.604  19.621  1.00  0.00     0.075 C 
HETATM    9  N1  UNL     1      45.682  47.475  20.752  1.00  0.00    -0.196 NA
ENDROOT
BRANCH   1  10
HETATM   10  C14 UNL     1      47.391  48.343  17.016  1.00  0.00     0.016 C 
HETATM   11  C13 UNL     1      48.546  48.100  16.458  1.00  0.00     0.005 C 
BRANCH  11  12
HETATM   12  C11 UNL     1      49.472  49.210  16.178  1.00  0.00    -0.064 C 
HETATM   13  C10 UNL     1      49.826  49.956  17.194  1.00  0.00     0.006 C 
HETATM   14  C12 UNL     1      49.933  49.409  14.790  1.00  0.00     0.048 C 
BRANCH  13  15
HETATM   15  C9  UNL     1      50.731  51.127  17.220  1.00  0.00     0.197 C 
BRANCH  15  16
HETATM   16  O2  UNL     1      50.556  52.048  18.089  1.00  0.00    -0.364 OA
BRANCH  16  17
HETATM   17  C8  UNL     1      50.529  52.335  19.340  1.00  0.00     0.164 C 
HETATM   18  C22 UNL     1      49.341  53.049  19.882  1.00  0.00     0.187 C 
HETATM   19  O6  UNL     1      48.398  53.567  19.295  1.00  0.00    -0.290 OA
HETATM   20  C23 UNL     1      49.544  53.001  21.314  1.00  0.00     0.050 C 
HETATM   21  C24 UNL     1      50.321  51.996  21.641  1.00  0.00    -0.011 C 
HETATM   22  C25 UNL     1      50.685  51.296  20.405  1.00  0.00     0.012 C 
HETATM   23  C26 UNL     1      49.616  50.219  20.321  1.00  0.00     0.023 C 
HETATM   24  C27 UNL     1      52.019  50.629  20.451  1.00  0.00     0.023 C 
BRANCH  17  25
HETATM   25  C7  UNL     1      51.650  53.413  19.508  1.00  0.00     0.184 C 
BRANCH  25  26
HETATM   26  C6  UNL     1      51.253  54.700  18.932  1.00  0.00     0.005 C 
HETATM   27  C5  UNL     1      51.349  55.876  19.472  1.00  0.00    -0.019 C 
BRANCH  27  28
HETATM   28  C4  UNL     1      51.897  56.184  20.823  1.00  0.00     0.035 C 
BRANCH  28  29
HETATM   29  C2  UNL     1      50.865  56.130  21.872  1.00  0.00    -0.085 C 
HETATM   30  C1  UNL     1      51.049  55.420  23.008  1.00  0.00     0.014 C 
HETATM   31  C3  UNL     1      49.562  56.828  21.752  1.00  0.00     0.043 C 
ENDBRANCH  28  29
BRANCH  28  32
HETATM   32  C28 UNL     1      52.668  57.475  20.748  1.00  0.00     0.008 C 
HETATM   33  C29 UNL     1      53.642  57.716  21.845  1.00  0.00     0.006 C 
ENDBRANCH  28  32
ENDBRANCH  27  28
ENDBRANCH  25  26
BRANCH  25  34
HETATM   34  O1  UNL     1      52.898  52.963  19.255  1.00  0.00    -0.388 OA
ATOM     35  H1  UNL     1      52.998  52.063  18.968  1.00  0.00     0.210 HD
ENDBRANCH  25  34
ENDBRANCH  17  25
ENDBRANCH  16  17
ENDBRANCH  15  16
ENDBRANCH  13  15
ENDBRANCH  11  12
ENDBRANCH   1  10
BRANCH   1  36
HETATM   36  O3  UNL     1      47.064  46.291  18.048  1.00  0.00    -0.381 OA
ATOM     37  H3  UNL     1      46.418  45.862  18.596  1.00  0.00     0.211 HD
ENDBRANCH   1  36
BRANCH   2  38
HETATM   38  O4  UNL     1      45.688  47.545  15.048  1.00  0.00    -0.389 OA
ATOM     39  H4  UNL     1      44.792  47.782  14.841  1.00  0.00     0.210 HD
ENDBRANCH   2  38
TORSDOF 13
ENDMDL
