MODEL 1
REMARK VINA RESULT: -10.190567015      0.000      0.000
REMARK  12 active torsions:
REMARK  status: ('A' for Active; 'I' for Inactive)
REMARK    1  A    between atoms: C2_2  and  N1_3 
REMARK    2  A    between atoms: N1_3  and  C3_5 
REMARK    3  A    between atoms: C6_13  and  N4_14 
REMARK       I    between atoms: N4_14  and  C7_16 
REMARK    4  A    between atoms: C7_16  and  C8_18 
REMARK    5  A    between atoms: C9_23  and  O4_24 
REMARK    6  A    between atoms: O4_24  and  C10_25 
REMARK    7  A    between atoms: C13_28  and  O5_29 
REMARK    8  A    between atoms: C15_32  and  O6_33 
REMARK    9  A    between atoms: O6_33  and  C16_34 
REMARK   10  A    between atoms: C16_34  and  C17_35 
REMARK       I    between atoms: C17_35  and  N6_37 
REMARK   11  A    between atoms: N6_37  and  N7_39 
REMARK       I    between atoms: N7_39  and  C18_41 
REMARK   12  A    between atoms: C18_41  and  C19_43 
ROOT
HETATM    1  C10 UNL     1     -10.283  -2.105   6.886  1.00  0.00     0.111 A 
HETATM    2  C11 UNL     1      -9.337  -1.119   6.763  1.00  0.00     0.043 A 
HETATM    3  C12 UNL     1      -8.758  -0.495   7.865  1.00  0.00     0.039 A 
HETATM    4  C13 UNL     1      -9.122  -0.852   9.128  1.00  0.00     0.068 A 
HETATM    5  C14 UNL     1     -10.080  -1.851   9.241  1.00  0.00     0.076 A 
HETATM    6  C15 UNL     1     -10.669  -2.484   8.192  1.00  0.00     0.105 A 
ENDROOT
BRANCH   1   7
HETATM    7  O4  UNL     1     -10.874  -2.738   5.810  1.00  0.00    -0.287 OA
BRANCH   7   8
HETATM    8  C9  UNL     1     -11.377  -2.168   4.689  1.00  0.00     0.194 C 
HETATM    9  C3  UNL     1     -12.739  -1.882   4.745  1.00  0.00     0.155 C 
HETATM   10  N2  UNL     1     -13.468  -1.104   3.884  1.00  0.00    -0.326 N 
HETATM   11  C4  UNL     1     -13.117  -0.735   2.640  1.00  0.00     0.103 C 
ATOM     12  H2  UNL     1     -14.370  -0.771   4.222  1.00  0.00     0.169 HD
HETATM   13  N3  UNL     1     -13.871   0.137   2.074  1.00  0.00    -0.385 N 
HETATM   14  C5  UNL     1     -12.026  -1.194   1.889  1.00  0.00     0.096 C 
ATOM     15  H32 UNL     1     -14.664   0.470   2.620  1.00  0.00     0.157 HD
ATOM     16  H31 UNL     1     -13.605   0.417   1.130  1.00  0.00     0.157 HD
HETATM   17  C6  UNL     1     -10.935  -1.922   2.308  1.00  0.00     0.113 C 
HETATM   18  N5  UNL     1     -10.535  -1.928   3.627  1.00  0.00    -0.320 N 
ATOM     19  H5  UNL     1      -9.552  -1.744   3.829  1.00  0.00     0.169 HD
BRANCH   9  20
HETATM   20  N1  UNL     1     -13.334  -2.431   5.713  1.00  0.00    -0.373 N 
ATOM     21  H1  UNL     1     -12.943  -3.323   6.014  1.00  0.00     0.161 HD
BRANCH  20  22
HETATM   22  C2  UNL     1     -14.472  -1.991   6.446  1.00  0.00     0.117 C 
HETATM   23  C1  UNL     1     -13.947  -0.940   7.445  1.00  0.00     0.026 C 
ENDBRANCH  20  22
ENDBRANCH   9  20
BRANCH  17  24
HETATM   24  N4  UNL     1     -10.235  -2.717   1.370  1.00  0.00    -0.304 N 
HETATM   25  C7  UNL     1      -9.296  -2.272   0.466  1.00  0.00     0.323 C 
HETATM   26  O1  UNL     1      -8.967  -1.051   0.290  1.00  0.00    -0.260 OA
ATOM     27  H4  UNL     1     -10.446  -3.715   1.362  1.00  0.00     0.171 HD
BRANCH  25  28
HETATM   28  C8  UNL     1      -8.569  -3.217  -0.398  1.00  0.00     0.270 C 
HETATM   29  O2  UNL     1      -7.430  -3.595  -0.008  1.00  0.00    -0.640 OA
HETATM   30  O3  UNL     1      -9.065  -3.699  -1.581  1.00  0.00    -0.640 OA
ENDBRANCH  25  28
ENDBRANCH  17  24
ENDBRANCH   7   8
ENDBRANCH   1   7
BRANCH   6  31
HETATM   31  O6  UNL     1     -11.625  -3.480   8.266  1.00  0.00    -0.339 OA
BRANCH  31  32
HETATM   32  C16 UNL     1     -11.326  -4.760   8.746  1.00  0.00     0.280 C 
BRANCH  32  33
HETATM   33  C17 UNL     1     -10.912  -5.667   7.632  1.00  0.00     0.260 C 
HETATM   34  O7  UNL     1     -11.659  -5.775   6.643  1.00  0.00    -0.269 OA
HETATM   35  N6  UNL     1      -9.705  -6.366   7.730  1.00  0.00    -0.265 N 
ATOM     36  H6  UNL     1      -9.130  -6.246   8.564  1.00  0.00     0.190 HD
BRANCH  35  37
HETATM   37  N7  UNL     1      -9.270  -7.217   6.725  1.00  0.00    -0.261 N 
HETATM   38  C18 UNL     1      -7.965  -7.751   6.736  1.00  0.00     0.306 C 
HETATM   39  O8  UNL     1      -7.187  -7.466   7.666  1.00  0.00    -0.262 OA
ATOM     40  H7  UNL     1      -9.905  -7.461   5.965  1.00  0.00     0.190 HD
BRANCH  38  41
HETATM   41  C19 UNL     1      -7.526  -8.627   5.673  1.00  0.00     0.208 A 
HETATM   42  N8  UNL     1      -7.462  -9.970   5.721  1.00  0.00    -0.264 N 
HETATM   43  N9  UNL     1      -7.005 -10.377   4.557  1.00  0.00    -0.226 N 
ATOM     44  H8  UNL     1      -7.720 -10.561   6.511  1.00  0.00     0.190 HD
HETATM   45  N10 UNL     1      -6.767  -9.363   3.749  1.00  0.00    -0.226 N 
ATOM     46  H9  UNL     1      -6.854 -11.356   4.310  1.00  0.00     0.210 HD
HETATM   47  N11 UNL     1      -7.086  -8.281   4.431  1.00  0.00    -0.264 N 
ATOM     48  H10 UNL     1      -6.409  -9.406   2.795  1.00  0.00     0.210 HD
ATOM     49  H11 UNL     1      -7.014  -7.326   4.081  1.00  0.00     0.190 HD
ENDBRANCH  38  41
ENDBRANCH  35  37
ENDBRANCH  32  33
ENDBRANCH  31  32
ENDBRANCH   6  31
BRANCH   4  50
HETATM   50  O5  UNL     1      -8.609  -0.291  10.281  1.00  0.00    -0.361 OA
ATOM     51  H5  UNL     1      -9.066  -0.255  11.114  1.00  0.00     0.217 HD
ENDBRANCH   4  50
TORSDOF 12
ENDMDL
MODEL 2
REMARK VINA RESULT: -9.879639226      3.568      6.162
REMARK  12 active torsions:
REMARK  status: ('A' for Active; 'I' for Inactive)
REMARK    1  A    between atoms: C2_2  and  N1_3 
REMARK    2  A    between atoms: N1_3  and  C3_5 
REMARK    3  A    between atoms: C6_13  and  N4_14 
REMARK       I    between atoms: N4_14  and  C7_16 
REMARK    4  A    between atoms: C7_16  and  C8_18 
REMARK    5  A    between atoms: C9_23  and  O4_24 
REMARK    6  A    between atoms: O4_24  and  C10_25 
REMARK    7  A    between atoms: C13_28  and  O5_29 
REMARK    8  A    between atoms: C15_32  and  O6_33 
REMARK    9  A    between atoms: O6_33  and  C16_34 
REMARK   10  A    between atoms: C16_34  and  C17_35 
REMARK       I    between atoms: C17_35  and  N6_37 
REMARK   11  A    between atoms: N6_37  and  N7_39 
REMARK       I    between atoms: N7_39  and  C18_41 
REMARK   12  A    between atoms: C18_41  and  C19_43 
ROOT
HETATM    1  C10 UNL     1      -9.240  -1.246   6.895  1.00  0.00     0.111 A 
HETATM    2  C11 UNL     1      -8.359  -0.321   6.395  1.00  0.00     0.043 A 
HETATM    3  C12 UNL     1      -7.629   0.537   7.214  1.00  0.00     0.039 A 
HETATM    4  C13 UNL     1      -7.771   0.483   8.568  1.00  0.00     0.068 A 
HETATM    5  C14 UNL     1      -8.665  -0.457   9.063  1.00  0.00     0.076 A 
HETATM    6  C15 UNL     1      -9.396  -1.312   8.299  1.00  0.00     0.105 A 
ENDROOT
BRANCH   1   7
HETATM    7  O4  UNL     1      -9.977  -2.106   6.105  1.00  0.00    -0.287 OA
BRANCH   7   8
HETATM    8  C9  UNL     1     -10.697  -1.802   4.999  1.00  0.00     0.194 C 
HETATM    9  C3  UNL     1     -12.075  -1.772   5.194  1.00  0.00     0.155 C 
HETATM   10  N2  UNL     1     -13.030  -1.273   4.348  1.00  0.00    -0.326 N 
HETATM   11  C4  UNL     1     -12.890  -1.020   3.035  1.00  0.00     0.103 C 
ATOM     12  H2  UNL     1     -13.943  -1.071   4.757  1.00  0.00     0.169 HD
HETATM   13  N3  UNL     1     -13.858  -0.392   2.472  1.00  0.00    -0.385 N 
HETATM   14  C5  UNL     1     -11.810  -1.365   2.210  1.00  0.00     0.096 C 
ATOM     15  H32 UNL     1     -14.643  -0.141   3.072  1.00  0.00     0.157 HD
ATOM     16  H31 UNL     1     -13.752  -0.200   1.475  1.00  0.00     0.157 HD
HETATM   17  C6  UNL     1     -10.558  -1.811   2.568  1.00  0.00     0.113 C 
HETATM   18  N5  UNL     1     -10.033  -1.558   3.818  1.00  0.00    -0.320 N 
ATOM     19  H5  UNL     1      -9.093  -1.167   3.870  1.00  0.00     0.169 HD
BRANCH   9  20
HETATM   20  N1  UNL     1     -12.445  -2.284   6.287  1.00  0.00    -0.373 N 
ATOM     21  H1  UNL     1     -12.102  -1.814   7.124  1.00  0.00     0.161 HD
BRANCH  20  22
HETATM   22  C2  UNL     1     -13.270  -3.419   6.523  1.00  0.00     0.117 C 
HETATM   23  C1  UNL     1     -12.310  -4.568   6.886  1.00  0.00     0.026 C 
ENDBRANCH  20  22
ENDBRANCH   9  20
BRANCH  17  24
HETATM   24  N4  UNL     1      -9.810  -2.582   1.647  1.00  0.00    -0.304 N 
HETATM   25  C7  UNL     1      -9.400  -2.182   0.395  1.00  0.00     0.323 C 
HETATM   26  O1  UNL     1      -9.699  -1.069  -0.155  1.00  0.00    -0.260 OA
ATOM     27  H4  UNL     1      -9.551  -3.525   1.939  1.00  0.00     0.171 HD
BRANCH  25  28
HETATM   28  C8  UNL     1      -8.546  -3.048  -0.434  1.00  0.00     0.270 C 
HETATM   29  O2  UNL     1      -8.942  -3.296  -1.606  1.00  0.00    -0.640 OA
HETATM   30  O3  UNL     1      -7.361  -3.583  -0.002  1.00  0.00    -0.640 OA
ENDBRANCH  25  28
ENDBRANCH  17  24
ENDBRANCH   7   8
ENDBRANCH   1   7
BRANCH   6  31
HETATM   31  O6  UNL     1     -10.294  -2.258   8.755  1.00  0.00    -0.339 OA
BRANCH  31  32
HETATM   32  C16 UNL     1     -10.904  -2.156  10.010  1.00  0.00     0.280 C 
BRANCH  32  33
HETATM   33  C17 UNL     1     -12.395  -2.157   9.883  1.00  0.00     0.260 C 
HETATM   34  O7  UNL     1     -13.010  -3.216  10.104  1.00  0.00    -0.269 OA
HETATM   35  N6  UNL     1     -13.053  -0.978   9.523  1.00  0.00    -0.265 N 
ATOM     36  H6  UNL     1     -12.503  -0.137   9.349  1.00  0.00     0.190 HD
BRANCH  35  37
HETATM   37  N7  UNL     1     -14.433  -0.921   9.395  1.00  0.00    -0.261 N 
HETATM   38  C18 UNL     1     -15.038  -0.527   8.184  1.00  0.00     0.306 C 
HETATM   39  O8  UNL     1     -14.327  -0.234   7.203  1.00  0.00    -0.262 OA
ATOM     40  H7  UNL     1     -15.020  -1.167  10.191  1.00  0.00     0.190 HD
BRANCH  38  41
HETATM   41  C19 UNL     1     -16.478  -0.462   8.074  1.00  0.00     0.208 A 
HETATM   42  N8  UNL     1     -17.273  -1.362   7.468  1.00  0.00    -0.264 N 
HETATM   43  N9  UNL     1     -18.509  -0.927   7.585  1.00  0.00    -0.226 N 
ATOM     44  H8  UNL     1     -16.974  -2.220   7.005  1.00  0.00     0.190 HD
HETATM   45  N10 UNL     1     -18.559   0.216   8.240  1.00  0.00    -0.226 N 
ATOM     46  H9  UNL     1     -19.326  -1.413   7.215  1.00  0.00     0.210 HD
HETATM   47  N11 UNL     1     -17.310   0.508   8.545  1.00  0.00    -0.264 N 
ATOM     48  H10 UNL     1     -19.391   0.762   8.464  1.00  0.00     0.210 HD
ATOM     49  H11 UNL     1     -17.011   1.338   9.057  1.00  0.00     0.190 HD
ENDBRANCH  38  41
ENDBRANCH  35  37
ENDBRANCH  32  33
ENDBRANCH  31  32
ENDBRANCH   6  31
BRANCH   4  50
HETATM   50  O5  UNL     1      -7.096   1.291   9.461  1.00  0.00    -0.361 OA
ATOM     51  H5  UNL     1      -6.981   1.098  10.384  1.00  0.00     0.217 HD
ENDBRANCH   4  50
TORSDOF 12
ENDMDL
MODEL 3
REMARK VINA RESULT: -9.798405623      3.598      6.411
REMARK  12 active torsions:
REMARK  status: ('A' for Active; 'I' for Inactive)
REMARK    1  A    between atoms: C2_2  and  N1_3 
REMARK    2  A    between atoms: N1_3  and  C3_5 
REMARK    3  A    between atoms: C6_13  and  N4_14 
REMARK       I    between atoms: N4_14  and  C7_16 
REMARK    4  A    between atoms: C7_16  and  C8_18 
REMARK    5  A    between atoms: C9_23  and  O4_24 
REMARK    6  A    between atoms: O4_24  and  C10_25 
REMARK    7  A    between atoms: C13_28  and  O5_29 
REMARK    8  A    between atoms: C15_32  and  O6_33 
REMARK    9  A    between atoms: O6_33  and  C16_34 
REMARK   10  A    between atoms: C16_34  and  C17_35 
REMARK       I    between atoms: C17_35  and  N6_37 
REMARK   11  A    between atoms: N6_37  and  N7_39 
REMARK       I    between atoms: N7_39  and  C18_41 
REMARK   12  A    between atoms: C18_41  and  C19_43 
ROOT
HETATM    1  C10 UNL     1      -9.323  -1.290   6.722  1.00  0.00     0.111 A 
HETATM    2  C11 UNL     1      -8.418  -0.379   6.240  1.00  0.00     0.043 A 
HETATM    3  C12 UNL     1      -7.687   0.465   7.073  1.00  0.00     0.039 A 
HETATM    4  C13 UNL     1      -7.852   0.409   8.424  1.00  0.00     0.068 A 
HETATM    5  C14 UNL     1      -8.770  -0.517   8.902  1.00  0.00     0.076 A 
HETATM    6  C15 UNL     1      -9.503  -1.356   8.123  1.00  0.00     0.105 A 
ENDROOT
BRANCH   1   7
HETATM    7  O4  UNL     1     -10.062  -2.135   5.918  1.00  0.00    -0.287 OA
BRANCH   7   8
HETATM    8  C9  UNL     1     -10.746  -1.818   4.793  1.00  0.00     0.194 C 
HETATM    9  C3  UNL     1     -12.129  -1.776   4.948  1.00  0.00     0.155 C 
HETATM   10  N2  UNL     1     -13.055  -1.263   4.078  1.00  0.00    -0.326 N 
HETATM   11  C4  UNL     1     -12.874  -1.006   2.771  1.00  0.00     0.103 C 
ATOM     12  H2  UNL     1     -13.976  -1.055   4.460  1.00  0.00     0.169 HD
HETATM   13  N3  UNL     1     -13.819  -0.365   2.182  1.00  0.00    -0.385 N 
HETATM   14  C5  UNL     1     -11.773  -1.356   1.976  1.00  0.00     0.096 C 
ATOM     15  H32 UNL     1     -14.619  -0.110   2.761  1.00  0.00     0.157 HD
ATOM     16  H31 UNL     1     -13.682  -0.169   1.191  1.00  0.00     0.157 HD
HETATM   17  C6  UNL     1     -10.536  -1.815   2.368  1.00  0.00     0.113 C 
HETATM   18  N5  UNL     1     -10.046  -1.575   3.634  1.00  0.00    -0.320 N 
ATOM     19  H5  UNL     1      -9.104  -1.192   3.716  1.00  0.00     0.169 HD
BRANCH   9  20
HETATM   20  N1  UNL     1     -12.536  -2.290   6.027  1.00  0.00    -0.373 N 
ATOM     21  H1  UNL     1     -12.197  -1.841   6.877  1.00  0.00     0.161 HD
BRANCH  20  22
HETATM   22  C2  UNL     1     -13.397  -3.404   6.233  1.00  0.00     0.117 C 
HETATM   23  C1  UNL     1     -12.515  -4.510   6.845  1.00  0.00     0.026 C 
ENDBRANCH  20  22
ENDBRANCH   9  20
BRANCH  17  24
HETATM   24  N4  UNL     1      -9.769  -2.589   1.465  1.00  0.00    -0.304 N 
HETATM   25  C7  UNL     1      -9.365  -2.206   0.205  1.00  0.00     0.323 C 
HETATM   26  O1  UNL     1      -9.687  -1.112  -0.369  1.00  0.00    -0.260 OA
ATOM     27  H4  UNL     1      -9.490  -3.520   1.777  1.00  0.00     0.171 HD
BRANCH  25  28
HETATM   28  C8  UNL     1      -8.489  -3.070  -0.604  1.00  0.00     0.270 C 
HETATM   29  O2  UNL     1      -7.477  -3.561  -0.033  1.00  0.00    -0.640 OA
HETATM   30  O3  UNL     1      -8.722  -3.365  -1.922  1.00  0.00    -0.640 OA
ENDBRANCH  25  28
ENDBRANCH  17  24
ENDBRANCH   7   8
ENDBRANCH   1   7
BRANCH   6  31
HETATM   31  O6  UNL     1     -10.425  -2.288   8.563  1.00  0.00    -0.339 OA
BRANCH  31  32
HETATM   32  C16 UNL     1     -10.934  -2.269   9.865  1.00  0.00     0.280 C 
BRANCH  32  33
HETATM   33  C17 UNL     1     -12.146  -1.396   9.954  1.00  0.00     0.260 C 
HETATM   34  O7  UNL     1     -12.036  -0.278  10.489  1.00  0.00    -0.269 OA
HETATM   35  N6  UNL     1     -13.361  -1.856   9.438  1.00  0.00    -0.265 N 
ATOM     36  H6  UNL     1     -13.400  -2.782   9.012  1.00  0.00     0.190 HD
BRANCH  35  37
HETATM   37  N7  UNL     1     -14.514  -1.087   9.489  1.00  0.00    -0.261 N 
HETATM   38  C18 UNL     1     -14.917  -0.302   8.390  1.00  0.00     0.306 C 
HETATM   39  O8  UNL     1     -14.236  -0.301   7.347  1.00  0.00    -0.262 OA
ATOM     40  H7  UNL     1     -15.081  -1.089  10.338  1.00  0.00     0.190 HD
BRANCH  38  41
HETATM   41  C19 UNL     1     -16.116   0.502   8.467  1.00  0.00     0.208 A 
HETATM   42  N8  UNL     1     -17.379   0.045   8.546  1.00  0.00    -0.264 N 
HETATM   43  N9  UNL     1     -18.169   1.096   8.590  1.00  0.00    -0.226 N 
ATOM     44  H8  UNL     1     -17.670  -0.932   8.568  1.00  0.00     0.190 HD
HETATM   45  N10 UNL     1     -17.481   2.220   8.543  1.00  0.00    -0.226 N 
ATOM     46  H9  UNL     1     -19.186   1.048   8.652  1.00  0.00     0.210 HD
HETATM   47  N11 UNL     1     -16.215   1.860   8.468  1.00  0.00    -0.264 N 
ATOM     48  H10 UNL     1     -17.851   3.170   8.561  1.00  0.00     0.210 HD
ATOM     49  H11 UNL     1     -15.426   2.505   8.417  1.00  0.00     0.190 HD
ENDBRANCH  38  41
ENDBRANCH  35  37
ENDBRANCH  32  33
ENDBRANCH  31  32
ENDBRANCH   6  31
BRANCH   4  50
HETATM   50  O5  UNL     1      -7.178   1.203   9.330  1.00  0.00    -0.361 OA
ATOM     51  H5  UNL     1      -6.422   0.926   9.835  1.00  0.00     0.217 HD
ENDBRANCH   4  50
TORSDOF 12
ENDMDL
MODEL 4
REMARK VINA RESULT: -9.791049301      3.767      5.692
REMARK  12 active torsions:
REMARK  status: ('A' for Active; 'I' for Inactive)
REMARK    1  A    between atoms: C2_2  and  N1_3 
REMARK    2  A    between atoms: N1_3  and  C3_5 
REMARK    3  A    between atoms: C6_13  and  N4_14 
REMARK       I    between atoms: N4_14  and  C7_16 
REMARK    4  A    between atoms: C7_16  and  C8_18 
REMARK    5  A    between atoms: C9_23  and  O4_24 
REMARK    6  A    between atoms: O4_24  and  C10_25 
REMARK    7  A    between atoms: C13_28  and  O5_29 
REMARK    8  A    between atoms: C15_32  and  O6_33 
REMARK    9  A    between atoms: O6_33  and  C16_34 
REMARK   10  A    between atoms: C16_34  and  C17_35 
REMARK       I    between atoms: C17_35  and  N6_37 
REMARK   11  A    between atoms: N6_37  and  N7_39 
REMARK       I    between atoms: N7_39  and  C18_41 
REMARK   12  A    between atoms: C18_41  and  C19_43 
ROOT
HETATM    1  C10 UNL     1      -9.388  -1.263   6.774  1.00  0.00     0.111 A 
HETATM    2  C11 UNL     1      -8.421  -0.433   6.267  1.00  0.00     0.043 A 
HETATM    3  C12 UNL     1      -7.647   0.397   7.075  1.00  0.00     0.039 A 
HETATM    4  C13 UNL     1      -7.830   0.409   8.425  1.00  0.00     0.068 A 
HETATM    5  C14 UNL     1      -8.811  -0.436   8.927  1.00  0.00     0.076 A 
HETATM    6  C15 UNL     1      -9.587  -1.260   8.174  1.00  0.00     0.105 A 
ENDROOT
BRANCH   1   7
HETATM    7  O4  UNL     1     -10.170  -2.093   5.995  1.00  0.00    -0.287 OA
BRANCH   7   8
HETATM    8  C9  UNL     1     -10.837  -1.775   4.860  1.00  0.00     0.194 C 
HETATM    9  C3  UNL     1     -12.217  -1.661   5.011  1.00  0.00     0.155 C 
HETATM   10  N2  UNL     1     -13.115  -1.129   4.124  1.00  0.00    -0.326 N 
HETATM   11  C4  UNL     1     -12.921  -0.917   2.811  1.00  0.00     0.103 C 
ATOM     12  H2  UNL     1     -14.026  -0.865   4.499  1.00  0.00     0.169 HD
HETATM   13  N3  UNL     1     -13.833  -0.249   2.203  1.00  0.00    -0.385 N 
HETATM   14  C5  UNL     1     -11.839  -1.344   2.029  1.00  0.00     0.096 C 
ATOM     15  H32 UNL     1     -14.620   0.062   2.772  1.00  0.00     0.157 HD
ATOM     16  H31 UNL     1     -13.686  -0.088   1.206  1.00  0.00     0.157 HD
HETATM   17  C6  UNL     1     -10.625  -1.851   2.436  1.00  0.00     0.113 C 
HETATM   18  N5  UNL     1     -10.125  -1.599   3.696  1.00  0.00    -0.320 N 
ATOM     19  H5  UNL     1      -9.166  -1.261   3.769  1.00  0.00     0.169 HD
BRANCH   9  20
HETATM   20  N1  UNL     1     -12.649  -2.124   6.103  1.00  0.00    -0.373 N 
ATOM     21  H1  UNL     1     -12.145  -1.817   6.935  1.00  0.00     0.161 HD
BRANCH  20  22
HETATM   22  C2  UNL     1     -13.735  -3.010   6.346  1.00  0.00     0.117 C 
HETATM   23  C1  UNL     1     -13.313  -4.367   5.749  1.00  0.00     0.026 C 
ENDBRANCH  20  22
ENDBRANCH   9  20
BRANCH  17  24
HETATM   24  N4  UNL     1      -9.897  -2.687   1.557  1.00  0.00    -0.304 N 
HETATM   25  C7  UNL     1      -9.348  -2.316   0.349  1.00  0.00     0.323 C 
HETATM   26  O1  UNL     1      -9.480  -1.169  -0.196  1.00  0.00    -0.260 OA
ATOM     27  H4  UNL     1      -9.765  -3.657   1.846  1.00  0.00     0.171 HD
BRANCH  25  28
HETATM   28  C8  UNL     1      -8.531  -3.259  -0.432  1.00  0.00     0.270 C 
HETATM   29  O2  UNL     1      -7.375  -3.517   0.003  1.00  0.00    -0.640 OA
HETATM   30  O3  UNL     1      -8.962  -3.861  -1.585  1.00  0.00    -0.640 OA
ENDBRANCH  25  28
ENDBRANCH  17  24
ENDBRANCH   7   8
ENDBRANCH   1   7
BRANCH   6  31
HETATM   31  O6  UNL     1     -10.572  -2.112   8.638  1.00  0.00    -0.339 OA
BRANCH  31  32
HETATM   32  C16 UNL     1     -11.592  -1.672   9.489  1.00  0.00     0.280 C 
BRANCH  32  33
HETATM   33  C17 UNL     1     -12.093  -2.789  10.349  1.00  0.00     0.260 C 
HETATM   34  O7  UNL     1     -12.647  -3.759   9.800  1.00  0.00    -0.269 OA
HETATM   35  N6  UNL     1     -11.928  -2.715  11.734  1.00  0.00    -0.265 N 
ATOM     36  H6  UNL     1     -11.470  -1.897  12.136  1.00  0.00     0.190 HD
BRANCH  35  37
HETATM   37  N7  UNL     1     -12.368  -3.724  12.578  1.00  0.00    -0.261 N 
HETATM   38  C18 UNL     1     -12.703  -3.457  13.921  1.00  0.00     0.306 C 
HETATM   39  O8  UNL     1     -12.613  -2.296  14.363  1.00  0.00    -0.262 OA
ATOM     40  H7  UNL     1     -12.452  -4.675  12.220  1.00  0.00     0.190 HD
BRANCH  38  41
HETATM   41  C19 UNL     1     -13.149  -4.525  14.788  1.00  0.00     0.208 A 
HETATM   42  N8  UNL     1     -13.376  -5.801  14.429  1.00  0.00    -0.264 N 
HETATM   43  N9  UNL     1     -13.774  -6.442  15.507  1.00  0.00    -0.226 N 
ATOM     44  H8  UNL     1     -13.260  -6.198  13.497  1.00  0.00     0.190 HD
HETATM   45  N10 UNL     1     -13.818  -5.642  16.555  1.00  0.00    -0.226 N 
ATOM     46  H9  UNL     1     -14.018  -7.432  15.529  1.00  0.00     0.210 HD
HETATM   47  N11 UNL     1     -13.434  -4.460  16.118  1.00  0.00    -0.264 N 
ATOM     48  H10 UNL     1     -14.094  -5.888  17.505  1.00  0.00     0.210 HD
ATOM     49  H11 UNL     1     -13.361  -3.619  16.692  1.00  0.00     0.190 HD
ENDBRANCH  38  41
ENDBRANCH  35  37
ENDBRANCH  32  33
ENDBRANCH  31  32
ENDBRANCH   6  31
BRANCH   4  50
HETATM   50  O5  UNL     1      -7.117   1.196   9.307  1.00  0.00    -0.361 OA
ATOM     51  H5  UNL     1      -6.383   0.893   9.830  1.00  0.00     0.217 HD
ENDBRANCH   4  50
TORSDOF 12
ENDMDL
MODEL 5
REMARK VINA RESULT: -9.648392332      3.471      4.271
REMARK  12 active torsions:
REMARK  status: ('A' for Active; 'I' for Inactive)
REMARK    1  A    between atoms: C2_2  and  N1_3 
REMARK    2  A    between atoms: N1_3  and  C3_5 
REMARK    3  A    between atoms: C6_13  and  N4_14 
REMARK       I    between atoms: N4_14  and  C7_16 
REMARK    4  A    between atoms: C7_16  and  C8_18 
REMARK    5  A    between atoms: C9_23  and  O4_24 
REMARK    6  A    between atoms: O4_24  and  C10_25 
REMARK    7  A    between atoms: C13_28  and  O5_29 
REMARK    8  A    between atoms: C15_32  and  O6_33 
REMARK    9  A    between atoms: O6_33  and  C16_34 
REMARK   10  A    between atoms: C16_34  and  C17_35 
REMARK       I    between atoms: C17_35  and  N6_37 
REMARK   11  A    between atoms: N6_37  and  N7_39 
REMARK       I    between atoms: N7_39  and  C18_41 
REMARK   12  A    between atoms: C18_41  and  C19_43 
ROOT
HETATM    1  C10 UNL     1      -9.331  -1.229   6.744  1.00  0.00     0.111 A 
HETATM    2  C11 UNL     1      -8.318  -0.448   6.248  1.00  0.00     0.043 A 
HETATM    3  C12 UNL     1      -7.553   0.389   7.057  1.00  0.00     0.039 A 
HETATM    4  C13 UNL     1      -7.791   0.458   8.396  1.00  0.00     0.068 A 
HETATM    5  C14 UNL     1      -8.818  -0.338   8.887  1.00  0.00     0.076 A 
HETATM    6  C15 UNL     1      -9.588  -1.166   8.133  1.00  0.00     0.105 A 
ENDROOT
BRANCH   1   7
HETATM    7  O4  UNL     1     -10.106  -2.064   5.963  1.00  0.00    -0.287 OA
BRANCH   7   8
HETATM    8  C9  UNL     1     -10.782  -1.748   4.833  1.00  0.00     0.194 C 
HETATM    9  C3  UNL     1     -12.165  -1.681   4.985  1.00  0.00     0.155 C 
HETATM   10  N2  UNL     1     -13.080  -1.162   4.107  1.00  0.00    -0.326 N 
HETATM   11  C4  UNL     1     -12.892  -0.922   2.798  1.00  0.00     0.103 C 
ATOM     12  H2  UNL     1     -13.999  -0.934   4.485  1.00  0.00     0.169 HD
HETATM   13  N3  UNL     1     -13.825  -0.272   2.200  1.00  0.00    -0.385 N 
HETATM   14  C5  UNL     1     -11.796  -1.301   2.009  1.00  0.00     0.096 C 
ATOM     15  H32 UNL     1     -14.621   0.003   2.774  1.00  0.00     0.157 HD
ATOM     16  H31 UNL     1     -13.683  -0.090   1.207  1.00  0.00     0.157 HD
HETATM   17  C6  UNL     1     -10.568  -1.776   2.408  1.00  0.00     0.113 C 
HETATM   18  N5  UNL     1     -10.076  -1.530   3.673  1.00  0.00    -0.320 N 
ATOM     19  H5  UNL     1      -9.128  -1.162   3.752  1.00  0.00     0.169 HD
BRANCH   9  20
HETATM   20  N1  UNL     1     -12.583  -2.175   6.068  1.00  0.00    -0.373 N 
ATOM     21  H1  UNL     1     -12.157  -1.794   6.913  1.00  0.00     0.161 HD
BRANCH  20  22
HETATM   22  C2  UNL     1     -13.559  -3.187   6.287  1.00  0.00     0.117 C 
HETATM   23  C1  UNL     1     -13.014  -4.453   5.598  1.00  0.00     0.026 C 
ENDBRANCH  20  22
ENDBRANCH   9  20
BRANCH  17  24
HETATM   24  N4  UNL     1      -9.813  -2.573   1.516  1.00  0.00    -0.304 N 
HETATM   25  C7  UNL     1      -9.383  -2.204   0.260  1.00  0.00     0.323 C 
HETATM   26  O1  UNL     1      -9.668  -1.103  -0.319  1.00  0.00    -0.260 OA
ATOM     27  H4  UNL     1      -9.563  -3.510   1.833  1.00  0.00     0.171 HD
BRANCH  25  28
HETATM   28  C8  UNL     1      -8.523  -3.094  -0.537  1.00  0.00     0.270 C 
HETATM   29  O2  UNL     1      -8.878  -3.325  -1.726  1.00  0.00    -0.640 OA
HETATM   30  O3  UNL     1      -7.375  -3.669  -0.059  1.00  0.00    -0.640 OA
ENDBRANCH  25  28
ENDBRANCH  17  24
ENDBRANCH   7   8
ENDBRANCH   1   7
BRANCH   6  31
HETATM   31  O6  UNL     1     -10.617  -1.970   8.586  1.00  0.00    -0.339 OA
BRANCH  31  32
HETATM   32  C16 UNL     1     -11.474  -1.566   9.616  1.00  0.00     0.280 C 
BRANCH  32  33
HETATM   33  C17 UNL     1     -11.524  -2.592  10.704  1.00  0.00     0.260 C 
HETATM   34  O7  UNL     1     -11.191  -2.255  11.854  1.00  0.00    -0.269 OA
HETATM   35  N6  UNL     1     -11.941  -3.891  10.402  1.00  0.00    -0.265 N 
ATOM     36  H6  UNL     1     -12.201  -4.118   9.442  1.00  0.00     0.190 HD
BRANCH  35  37
HETATM   37  N7  UNL     1     -12.011  -4.880  11.372  1.00  0.00    -0.261 N 
HETATM   38  C18 UNL     1     -11.446  -6.153  11.158  1.00  0.00     0.306 C 
HETATM   39  O8  UNL     1     -10.863  -6.400  10.085  1.00  0.00    -0.262 OA
ATOM     40  H7  UNL     1     -12.481  -4.682  12.256  1.00  0.00     0.190 HD
BRANCH  38  41
HETATM   41  C19 UNL     1     -11.541  -7.175  12.177  1.00  0.00     0.208 A 
HETATM   42  N8  UNL     1     -11.916  -6.992  13.456  1.00  0.00    -0.264 N 
HETATM   43  N9  UNL     1     -11.860  -8.166  14.047  1.00  0.00    -0.226 N 
ATOM     44  H8  UNL     1     -12.191  -6.110  13.887  1.00  0.00     0.190 HD
HETATM   45  N10 UNL     1     -11.466  -9.109  13.213  1.00  0.00    -0.226 N 
ATOM     46  H9  UNL     1     -12.093  -8.328  15.027  1.00  0.00     0.210 HD
HETATM   47  N11 UNL     1     -11.268  -8.503  12.059  1.00  0.00    -0.264 N 
ATOM     48  H10 UNL     1     -11.340 -10.100  13.418  1.00  0.00     0.210 HD
ATOM     49  H11 UNL     1     -10.956  -8.963  11.203  1.00  0.00     0.190 HD
ENDBRANCH  38  41
ENDBRANCH  35  37
ENDBRANCH  32  33
ENDBRANCH  31  32
ENDBRANCH   6  31
BRANCH   4  50
HETATM   50  O5  UNL     1      -7.091   1.256   9.278  1.00  0.00    -0.361 OA
ATOM     51  H5  UNL     1      -7.194   1.239  10.223  1.00  0.00     0.217 HD
ENDBRANCH   4  50
TORSDOF 12
ENDMDL
