MODEL 1
REMARK VINA RESULT: -6.924630122      0.000      0.000
REMARK  7 active torsions:
REMARK  status: ('A' for Active; 'I' for Inactive)
REMARK    1  A    between atoms: C3_5  and  N2_6 
REMARK    2  A    between atoms: N2_6  and  C4_8 
REMARK    3  A    between atoms: C4_8  and  C5_9 
REMARK    4  A    between atoms: C5_9  and  N3_10 
REMARK    5  A    between atoms: N3_10  and  C6_13 
REMARK    6  A    between atoms: C6_13  and  C7_14 
REMARK    7  A    between atoms: C7_14  and  C8_15 
ROOT
HETATM    1  N3  UNL     1      11.267   6.400   9.765  1.00  0.00    -0.073 N 
ATOM      2  H31 UNL     1      11.102   7.252  10.301  1.00  0.00     0.277 HD
ATOM      3  H32 UNL     1      10.424   6.394   9.190  1.00  0.00     0.277 HD
ENDROOT
BRANCH   1   4
HETATM    4  C5  UNL     1      11.300   5.251  10.632  1.00  0.00     0.251 C 
BRANCH   4   5
HETATM    5  C4  UNL     1      10.930   5.743  12.037  1.00  0.00     0.148 C 
BRANCH   5   6
HETATM    6  N2  UNL     1      10.614   7.126  12.073  1.00  0.00    -0.374 N 
ATOM      7  H2  UNL     1      10.954   7.730  11.325  1.00  0.00     0.161 HD
BRANCH   6   8
HETATM    8  C3  UNL     1       9.916   7.640  13.014  1.00  0.00     0.116 A 
HETATM    9  N1  UNL     1      10.312   8.652  13.796  1.00  0.00    -0.350 N 
HETATM   10  C2  UNL     1       9.483   9.118  14.769  1.00  0.00     0.106 A 
ATOM     11  H1  UNL     1      11.232   9.072  13.663  1.00  0.00     0.166 HD
HETATM   12  C1  UNL     1       8.231   8.593  14.998  1.00  0.00     0.104 A 
HETATM   13  N6  UNL     1       7.839   7.580  14.215  1.00  0.00    -0.371 N 
HETATM   14  C12 UNL     1       8.659   7.110  13.243  1.00  0.00     0.136 A 
ATOM     15  H6  UNL     1       6.919   7.161  14.351  1.00  0.00     0.164 HD
ENDBRANCH   6   8
ENDBRANCH   5   6
ENDBRANCH   4   5
ENDBRANCH   1   4
BRANCH   1  16
HETATM   16  C6  UNL     1      12.434   6.534   8.950  1.00  0.00     0.239 C 
BRANCH  16  17
HETATM   17  C7  UNL     1      11.977   6.487   7.492  1.00  0.00     0.103 C 
BRANCH  17  18
HETATM   18  C8  UNL     1      12.289   5.155   6.899  1.00  0.00     0.074 C 
HETATM   19  N4  UNL     1      13.272   4.451   7.344  1.00  0.00    -0.380 N 
HETATM   20  C9  UNL     1      13.530   3.176   6.738  1.00  0.00     0.122 C 
ATOM     21  H4  UNL     1      13.853   4.791   8.110  1.00  0.00     0.160 HD
HETATM   22  C10 UNL     1      12.288   2.410   6.410  1.00  0.00     0.039 C 
HETATM   23  C11 UNL     1      11.272   3.219   5.658  1.00  0.00     0.122 C 
HETATM   24  N5  UNL     1      11.510   4.638   5.832  1.00  0.00    -0.380 N 
ATOM     25  H5  UNL     1      11.103   5.289   5.161  1.00  0.00     0.160 HD
ENDBRANCH  17  18
ENDBRANCH  16  17
ENDBRANCH   1  16
TORSDOF 7
ENDMDL
MODEL 2
REMARK VINA RESULT: -6.888172852      1.105      1.377
REMARK  7 active torsions:
REMARK  status: ('A' for Active; 'I' for Inactive)
REMARK    1  A    between atoms: C3_5  and  N2_6 
REMARK    2  A    between atoms: N2_6  and  C4_8 
REMARK    3  A    between atoms: C4_8  and  C5_9 
REMARK    4  A    between atoms: C5_9  and  N3_10 
REMARK    5  A    between atoms: N3_10  and  C6_13 
REMARK    6  A    between atoms: C6_13  and  C7_14 
REMARK    7  A    between atoms: C7_14  and  C8_15 
ROOT
HETATM    1  N3  UNL     1      11.776   5.421   9.763  1.00  0.00    -0.073 N 
ATOM      2  H31 UNL     1      12.757   5.201   9.591  1.00  0.00     0.277 HD
ATOM      3  H32 UNL     1      11.885   6.119  10.499  1.00  0.00     0.277 HD
ENDROOT
BRANCH   1   4
HETATM    4  C5  UNL     1      11.075   4.265  10.259  1.00  0.00     0.251 C 
BRANCH   4   5
HETATM    5  C4  UNL     1      11.296   4.226  11.776  1.00  0.00     0.148 C 
BRANCH   5   6
HETATM    6  N2  UNL     1      10.215   4.784  12.507  1.00  0.00    -0.374 N 
ATOM      7  H2  UNL     1       9.447   4.176  12.794  1.00  0.00     0.161 HD
BRANCH   6   8
HETATM    8  C3  UNL     1      10.171   6.024  12.817  1.00  0.00     0.116 A 
HETATM    9  N1  UNL     1      11.242   6.791  13.059  1.00  0.00    -0.350 N 
HETATM   10  C2  UNL     1      11.075   8.102  13.380  1.00  0.00     0.106 A 
ATOM     11  H1  UNL     1      12.179   6.393  13.002  1.00  0.00     0.166 HD
HETATM   12  C1  UNL     1       9.837   8.696  13.473  1.00  0.00     0.104 A 
HETATM   13  N6  UNL     1       8.768   7.927  13.231  1.00  0.00    -0.371 N 
HETATM   14  C12 UNL     1       8.926   6.619  12.909  1.00  0.00     0.136 A 
ATOM     15  H6  UNL     1       7.832   8.326  13.289  1.00  0.00     0.164 HD
ENDBRANCH   6   8
ENDBRANCH   5   6
ENDBRANCH   4   5
ENDBRANCH   1   4
BRANCH   1  16
HETATM   16  C6  UNL     1      11.175   5.999   8.603  1.00  0.00     0.239 C 
BRANCH  16  17
HETATM   17  C7  UNL     1      12.270   6.137   7.546  1.00  0.00     0.103 C 
BRANCH  17  18
HETATM   18  C8  UNL     1      12.495   4.829   6.866  1.00  0.00     0.074 C 
HETATM   19  N4  UNL     1      13.503   4.090   7.178  1.00  0.00    -0.380 N 
HETATM   20  C9  UNL     1      13.674   2.841   6.492  1.00  0.00     0.122 C 
ATOM     21  H4  UNL     1      14.164   4.385   7.896  1.00  0.00     0.160 HD
HETATM   22  C10 UNL     1      12.390   2.111   6.257  1.00  0.00     0.039 C 
HETATM   23  C11 UNL     1      11.321   2.969   5.649  1.00  0.00     0.122 C 
HETATM   24  N5  UNL     1      11.603   4.375   5.860  1.00  0.00    -0.380 N 
ATOM     25  H5  UNL     1      11.144   5.063   5.264  1.00  0.00     0.160 HD
ENDBRANCH  17  18
ENDBRANCH  16  17
ENDBRANCH   1  16
TORSDOF 7
ENDMDL
MODEL 3
REMARK VINA RESULT: -6.797424671      1.413      2.614
REMARK  7 active torsions:
REMARK  status: ('A' for Active; 'I' for Inactive)
REMARK    1  A    between atoms: C3_5  and  N2_6 
REMARK    2  A    between atoms: N2_6  and  C4_8 
REMARK    3  A    between atoms: C4_8  and  C5_9 
REMARK    4  A    between atoms: C5_9  and  N3_10 
REMARK    5  A    between atoms: N3_10  and  C6_13 
REMARK    6  A    between atoms: C6_13  and  C7_14 
REMARK    7  A    between atoms: C7_14  and  C8_15 
ROOT
HETATM    1  N3  UNL     1      10.362   4.226  12.265  1.00  0.00    -0.073 N 
ATOM      2  H31 UNL     1       9.551   4.614  11.783  1.00  0.00     0.277 HD
ATOM      3  H32 UNL     1       9.894   3.543  12.861  1.00  0.00     0.277 HD
ENDROOT
BRANCH   1   4
HETATM    4  C5  UNL     1      11.011   5.235  13.061  1.00  0.00     0.251 C 
BRANCH   4   5
HETATM    5  C4  UNL     1      11.095   6.499  12.196  1.00  0.00     0.148 C 
BRANCH   5   6
HETATM    6  N2  UNL     1       9.864   7.201  12.121  1.00  0.00    -0.374 N 
ATOM      7  H2  UNL     1       9.369   7.237  11.229  1.00  0.00     0.161 HD
BRANCH   6   8
HETATM    8  C3  UNL     1       9.353   7.789  13.136  1.00  0.00     0.116 A 
HETATM    9  N1  UNL     1       8.185   7.464  13.702  1.00  0.00    -0.350 N 
HETATM   10  C2  UNL     1       7.740   8.163  14.781  1.00  0.00     0.106 A 
ATOM     11  H1  UNL     1       7.630   6.696  13.325  1.00  0.00     0.166 HD
HETATM   12  C1  UNL     1       8.442   9.209  15.335  1.00  0.00     0.104 A 
HETATM   13  N6  UNL     1       9.611   9.532  14.766  1.00  0.00    -0.371 N 
HETATM   14  C12 UNL     1      10.061   8.840  13.690  1.00  0.00     0.136 A 
ATOM     15  H6  UNL     1      10.163  10.300  15.144  1.00  0.00     0.164 HD
ENDBRANCH   6   8
ENDBRANCH   5   6
ENDBRANCH   4   5
ENDBRANCH   1   4
BRANCH   1  16
HETATM   16  C6  UNL     1      11.237   3.576  11.341  1.00  0.00     0.239 C 
BRANCH  16  17
HETATM   17  C7  UNL     1      10.490   3.462  10.012  1.00  0.00     0.103 C 
BRANCH  17  18
HETATM   18  C8  UNL     1      11.291   4.083   8.918  1.00  0.00     0.074 C 
HETATM   19  N4  UNL     1      11.611   3.405   7.871  1.00  0.00    -0.380 N 
HETATM   20  C9  UNL     1      12.383   4.051   6.847  1.00  0.00     0.122 C 
ATOM     21  H4  UNL     1      11.323   2.432   7.770  1.00  0.00     0.160 HD
HETATM   22  C10 UNL     1      11.972   5.466   6.596  1.00  0.00     0.039 C 
HETATM   23  C11 UNL     1      11.862   6.285   7.848  1.00  0.00     0.122 C 
HETATM   24  N5  UNL     1      11.716   5.433   9.011  1.00  0.00    -0.380 N 
ATOM     25  H5  UNL     1      11.927   5.819   9.931  1.00  0.00     0.160 HD
ENDBRANCH  17  18
ENDBRANCH  16  17
ENDBRANCH   1  16
TORSDOF 7
ENDMDL
MODEL 4
REMARK VINA RESULT: -6.583902196      1.176      1.721
REMARK  7 active torsions:
REMARK  status: ('A' for Active; 'I' for Inactive)
REMARK    1  A    between atoms: C3_5  and  N2_6 
REMARK    2  A    between atoms: N2_6  and  C4_8 
REMARK    3  A    between atoms: C4_8  and  C5_9 
REMARK    4  A    between atoms: C5_9  and  N3_10 
REMARK    5  A    between atoms: N3_10  and  C6_13 
REMARK    6  A    between atoms: C6_13  and  C7_14 
REMARK    7  A    between atoms: C7_14  and  C8_15 
ROOT
HETATM    1  N3  UNL     1      11.876   5.216   9.622  1.00  0.00    -0.073 N 
ATOM      2  H31 UNL     1      12.764   4.825   9.307  1.00  0.00     0.277 HD
ATOM      3  H32 UNL     1      12.218   5.854  10.341  1.00  0.00     0.277 HD
ENDROOT
BRANCH   1   4
HETATM    4  C5  UNL     1      11.046   4.193  10.202  1.00  0.00     0.251 C 
BRANCH   4   5
HETATM    5  C4  UNL     1      11.286   4.231  11.717  1.00  0.00     0.148 C 
BRANCH   5   6
HETATM    6  N2  UNL     1      10.157   4.692  12.444  1.00  0.00    -0.374 N 
ATOM      7  H2  UNL     1       9.418   4.030  12.681  1.00  0.00     0.161 HD
BRANCH   6   8
HETATM    8  C3  UNL     1      10.036   5.911  12.810  1.00  0.00     0.116 A 
HETATM    9  N1  UNL     1       8.885   6.491  13.176  1.00  0.00    -0.350 N 
HETATM   10  C2  UNL     1       8.877   7.799  13.548  1.00  0.00     0.106 A 
ATOM     11  H1  UNL     1       8.019   5.953  13.175  1.00  0.00     0.166 HD
HETATM   12  C1  UNL     1      10.012   8.577  13.569  1.00  0.00     0.104 A 
HETATM   13  N6  UNL     1      11.160   7.995  13.203  1.00  0.00    -0.371 N 
HETATM   14  C12 UNL     1      11.178   6.691  12.831  1.00  0.00     0.136 A 
ATOM     15  H6  UNL     1      12.025   8.535  13.204  1.00  0.00     0.164 HD
ENDBRANCH   6   8
ENDBRANCH   5   6
ENDBRANCH   4   5
ENDBRANCH   1   4
BRANCH   1  16
HETATM   16  C6  UNL     1      11.239   5.938   8.566  1.00  0.00     0.239 C 
BRANCH  16  17
HETATM   17  C7  UNL     1      12.255   6.077   7.433  1.00  0.00     0.103 C 
BRANCH  17  18
HETATM   18  C8  UNL     1      12.509   4.748   6.806  1.00  0.00     0.074 C 
HETATM   19  N4  UNL     1      13.548   4.057   7.125  1.00  0.00    -0.380 N 
HETATM   20  C9  UNL     1      13.746   2.785   6.491  1.00  0.00     0.122 C 
ATOM     21  H4  UNL     1      14.215   4.406   7.813  1.00  0.00     0.160 HD
HETATM   22  C10 UNL     1      12.482   2.003   6.319  1.00  0.00     0.039 C 
HETATM   23  C11 UNL     1      11.371   2.798   5.699  1.00  0.00     0.122 C 
HETATM   24  N5  UNL     1      11.611   4.220   5.843  1.00  0.00    -0.380 N 
ATOM     25  H5  UNL     1      11.115   4.866   5.228  1.00  0.00     0.160 HD
ENDBRANCH  17  18
ENDBRANCH  16  17
ENDBRANCH   1  16
TORSDOF 7
ENDMDL
MODEL 5
REMARK VINA RESULT: -6.580458734      1.447      2.423
REMARK  7 active torsions:
REMARK  status: ('A' for Active; 'I' for Inactive)
REMARK    1  A    between atoms: C3_5  and  N2_6 
REMARK    2  A    between atoms: N2_6  and  C4_8 
REMARK    3  A    between atoms: C4_8  and  C5_9 
REMARK    4  A    between atoms: C5_9  and  N3_10 
REMARK    5  A    between atoms: N3_10  and  C6_13 
REMARK    6  A    between atoms: C6_13  and  C7_14 
REMARK    7  A    between atoms: C7_14  and  C8_15 
ROOT
HETATM    1  N3  UNL     1      11.357   3.415  11.706  1.00  0.00    -0.073 N 
ATOM      2  H31 UNL     1      11.157   2.624  12.318  1.00  0.00     0.277 HD
ATOM      3  H32 UNL     1      12.273   3.133  11.357  1.00  0.00     0.277 HD
ENDROOT
BRANCH   1   4
HETATM    4  C5  UNL     1      11.454   4.635  12.465  1.00  0.00     0.251 C 
BRANCH   4   5
HETATM    5  C4  UNL     1      10.072   5.299  12.421  1.00  0.00     0.148 C 
BRANCH   5   6
HETATM    6  N2  UNL     1      10.141   6.713  12.318  1.00  0.00    -0.374 N 
ATOM      7  H2  UNL     1      10.585   7.128  11.499  1.00  0.00     0.161 HD
BRANCH   6   8
HETATM    8  C3  UNL     1       9.666   7.484  13.222  1.00  0.00     0.116 A 
HETATM    9  N1  UNL     1      10.339   8.483  13.808  1.00  0.00    -0.350 N 
HETATM   10  C2  UNL     1       9.729   9.240  14.759  1.00  0.00     0.106 A 
ATOM     11  H1  UNL     1      11.304   8.674  13.541  1.00  0.00     0.166 HD
HETATM   12  C1  UNL     1       8.430   9.031  15.161  1.00  0.00     0.104 A 
HETATM   13  N6  UNL     1       7.760   8.032  14.574  1.00  0.00    -0.371 N 
HETATM   14  C12 UNL     1       8.360   7.272  13.624  1.00  0.00     0.136 A 
ATOM     15  H6  UNL     1       6.795   7.841  14.842  1.00  0.00     0.164 HD
ENDBRANCH   6   8
ENDBRANCH   5   6
ENDBRANCH   4   5
ENDBRANCH   1   4
BRANCH   1  16
HETATM   16  C6  UNL     1      10.408   3.480  10.639  1.00  0.00     0.239 C 
BRANCH  16  17
HETATM   17  C7  UNL     1      11.166   3.208   9.340  1.00  0.00     0.103 C 
BRANCH  17  18
HETATM   18  C8  UNL     1      11.287   4.463   8.544  1.00  0.00     0.074 C 
HETATM   19  N4  UNL     1      11.505   5.592   9.124  1.00  0.00    -0.380 N 
HETATM   20  C9  UNL     1      11.612   6.771   8.312  1.00  0.00     0.122 C 
ATOM     21  H4  UNL     1      11.599   5.648  10.138  1.00  0.00     0.160 HD
HETATM   22  C10 UNL     1      12.363   6.548   7.038  1.00  0.00     0.039 C 
HETATM   23  C11 UNL     1      11.888   5.350   6.269  1.00  0.00     0.122 C 
HETATM   24  N5  UNL     1      11.163   4.438   7.131  1.00  0.00    -0.380 N 
ATOM     25  H5  UNL     1      10.540   3.752   6.705  1.00  0.00     0.160 HD
ENDBRANCH  17  18
ENDBRANCH  16  17
ENDBRANCH   1  16
TORSDOF 7
ENDMDL
