MODEL 1
REMARK VINA RESULT: -7.319356210      0.000      0.000
REMARK  10 active torsions:
REMARK  status: ('A' for Active; 'I' for Inactive)
REMARK    1  A    between atoms: C2_2  and  O1_5 
REMARK    2  A    between atoms: O1_5  and  C5_6 
REMARK    3  A    between atoms: C5_6  and  C6_7 
REMARK    4  A    between atoms: C6_7  and  C7_8 
REMARK    5  A    between atoms: C7_8  and  C8_9 
REMARK    6  A    between atoms: C12_16  and  C13_17 
REMARK    7  A    between atoms: C13_17  and  O3_19 
REMARK    8  A    between atoms: O3_19  and  C14_20 
REMARK    9  A    between atoms: C14_20  and  C15_21 
REMARK       I    between atoms: C15_21  and  N2_23 
REMARK   10  A    between atoms: N2_23  and  C16_25 
ROOT
HETATM    1  C8  UNL     1       9.005   9.167  23.343  1.00  0.00     0.103 A 
HETATM    2  N1  UNL     1      10.351   9.322  23.527  1.00  0.00    -0.357 N 
ATOM      3  H1  UNL     1      10.900   9.854  22.852  1.00  0.00     0.166 HD
HETATM    4  C9  UNL     1      10.950   8.775  24.593  1.00  0.00     0.108 A 
HETATM    5  C10 UNL     1      10.265   8.048  25.537  1.00  0.00     0.027 A 
HETATM    6 BR1  UNL     1      11.189   7.287  27.051  1.00  0.00    -0.050 Br
HETATM    7  C11 UNL     1       8.913   7.872  25.384  1.00  0.00     0.041 A 
HETATM    8  C12 UNL     1       8.304   8.451  24.265  1.00  0.00     0.076 A 
ENDROOT
BRANCH   8   9
HETATM    9  C13 UNL     1       6.871   8.264  24.106  1.00  0.00     0.296 C 
HETATM   10  O2  UNL     1       5.997   9.086  24.379  1.00  0.00    -0.259 OA
BRANCH   9  11
HETATM   11  O3  UNL     1       6.389   7.035  23.592  1.00  0.00    -0.308 OA
BRANCH  11  12
HETATM   12  C14 UNL     1       5.493   7.005  22.496  1.00  0.00     0.281 C 
BRANCH  12  13
HETATM   13  C15 UNL     1       6.146   6.414  21.326  1.00  0.00     0.242 C 
HETATM   14  O4  UNL     1       6.748   7.184  20.526  1.00  0.00    -0.271 OA
HETATM   15  N2  UNL     1       6.150   5.027  21.028  1.00  0.00    -0.355 N 
ATOM     16  H2  UNL     1       5.665   4.403  21.671  1.00  0.00     0.162 HD
BRANCH  15  17
HETATM   17  C16 UNL     1       6.783   4.445  19.893  1.00  0.00     0.084 C 
HETATM   18  C17 UNL     1       5.832   3.565  19.083  1.00  0.00     0.025 C 
HETATM   19  C18 UNL     1       5.884   2.205  19.714  1.00  0.00     0.002 C 
HETATM   20  C19 UNL     1       7.223   2.126  20.412  1.00  0.00     0.002 C 
HETATM   21  C20 UNL     1       7.880   3.469  20.238  1.00  0.00     0.025 C 
ENDBRANCH  15  17
ENDBRANCH  12  13
ENDBRANCH  11  12
ENDBRANCH   9  11
ENDBRANCH   8   9
BRANCH   1  22
HETATM   22  C7  UNL     1       8.358   9.747  22.206  1.00  0.00    -0.045 C 
BRANCH  22  23
HETATM   23  C6  UNL     1       7.830  10.253  21.211  1.00  0.00    -0.073 C 
BRANCH  23  24
HETATM   24  C5  UNL     1       7.245  10.834  20.015  1.00  0.00     0.262 C 
BRANCH  24  25
HETATM   25  O1  UNL     1       7.428  10.106  18.903  1.00  0.00    -0.370 OA
BRANCH  25  26
HETATM   26  C2  UNL     1       6.559  10.110  17.881  1.00  0.00     0.051 C 
HETATM   27  C1  UNL     1       5.434   9.099  18.011  1.00  0.00     0.045 C 
HETATM   28  C3  UNL     1       5.813  11.483  17.956  1.00  0.00     0.045 C 
HETATM   29  C4  UNL     1       7.181  10.063  16.530  1.00  0.00     0.045 C 
ENDBRANCH  25  26
ENDBRANCH  24  25
ENDBRANCH  23  24
ENDBRANCH  22  23
ENDBRANCH   1  22
TORSDOF 10
ENDMDL
MODEL 2
REMARK VINA RESULT: -7.184523322      3.156      5.465
REMARK  10 active torsions:
REMARK  status: ('A' for Active; 'I' for Inactive)
REMARK    1  A    between atoms: C2_2  and  O1_5 
REMARK    2  A    between atoms: O1_5  and  C5_6 
REMARK    3  A    between atoms: C5_6  and  C6_7 
REMARK    4  A    between atoms: C6_7  and  C7_8 
REMARK    5  A    between atoms: C7_8  and  C8_9 
REMARK    6  A    between atoms: C12_16  and  C13_17 
REMARK    7  A    between atoms: C13_17  and  O3_19 
REMARK    8  A    between atoms: O3_19  and  C14_20 
REMARK    9  A    between atoms: C14_20  and  C15_21 
REMARK       I    between atoms: C15_21  and  N2_23 
REMARK   10  A    between atoms: N2_23  and  C16_25 
ROOT
HETATM    1  C8  UNL     1       8.767   7.756  25.195  1.00  0.00     0.103 A 
HETATM    2  N1  UNL     1       9.067   7.002  26.296  1.00  0.00    -0.357 N 
ATOM      3  H1  UNL     1       8.331   6.481  26.773  1.00  0.00     0.166 HD
HETATM    4  C9  UNL     1      10.327   6.946  26.748  1.00  0.00     0.108 A 
HETATM    5  C10 UNL     1      11.360   7.624  26.147  1.00  0.00     0.027 A 
HETATM    6 BR1  UNL     1      13.155   7.500  26.849  1.00  0.00    -0.050 Br
HETATM    7  C11 UNL     1      11.095   8.391  25.041  1.00  0.00     0.041 A 
HETATM    8  C12 UNL     1       9.774   8.437  24.583  1.00  0.00     0.076 A 
ENDROOT
BRANCH   8   9
HETATM    9  C13 UNL     1       9.496   9.251  23.410  1.00  0.00     0.296 C 
HETATM   10  O2  UNL     1       9.095  10.414  23.412  1.00  0.00    -0.259 OA
BRANCH   9  11
HETATM   11  O3  UNL     1       9.692   8.693  22.123  1.00  0.00    -0.308 OA
BRANCH  11  12
HETATM   12  C14 UNL     1       8.591   8.325  21.313  1.00  0.00     0.281 C 
BRANCH  12  13
HETATM   13  C15 UNL     1       8.410   9.300  20.234  1.00  0.00     0.242 C 
HETATM   14  O4  UNL     1       9.162  10.314  20.215  1.00  0.00    -0.271 OA
HETATM   15  N2  UNL     1       7.443   9.183  19.205  1.00  0.00    -0.355 N 
ATOM     16  H2  UNL     1       6.833   8.365  19.218  1.00  0.00     0.162 HD
BRANCH  15  17
HETATM   17  C16 UNL     1       7.260  10.125  18.153  1.00  0.00     0.084 C 
HETATM   18  C17 UNL     1       6.207  11.179  18.490  1.00  0.00     0.025 C 
HETATM   19  C18 UNL     1       4.887  10.591  18.088  1.00  0.00     0.002 C 
HETATM   20  C19 UNL     1       5.200   9.567  17.020  1.00  0.00     0.002 C 
HETATM   21  C20 UNL     1       6.699   9.529  16.887  1.00  0.00     0.025 C 
ENDBRANCH  15  17
ENDBRANCH  12  13
ENDBRANCH  11  12
ENDBRANCH   9  11
ENDBRANCH   8   9
BRANCH   1  22
HETATM   22  C7  UNL     1       7.423   7.822  24.707  1.00  0.00    -0.045 C 
BRANCH  22  23
HETATM   23  C6  UNL     1       6.272   7.856  24.261  1.00  0.00    -0.073 C 
BRANCH  23  24
HETATM   24  C5  UNL     1       4.933   7.880  23.698  1.00  0.00     0.262 C 
BRANCH  24  25
HETATM   25  O1  UNL     1       3.951   7.844  24.610  1.00  0.00    -0.370 OA
BRANCH  25  26
HETATM   26  C2  UNL     1       2.956   8.742  24.642  1.00  0.00     0.051 C 
HETATM   27  C1  UNL     1       3.296  10.029  25.372  1.00  0.00     0.045 C 
HETATM   28  C3  UNL     1       2.755   9.215  23.165  1.00  0.00     0.045 C 
HETATM   29  C4  UNL     1       1.638   8.204  25.074  1.00  0.00     0.045 C 
ENDBRANCH  25  26
ENDBRANCH  24  25
ENDBRANCH  23  24
ENDBRANCH  22  23
ENDBRANCH   1  22
TORSDOF 10
ENDMDL
MODEL 3
REMARK VINA RESULT: -7.085377894      0.890      1.079
REMARK  10 active torsions:
REMARK  status: ('A' for Active; 'I' for Inactive)
REMARK    1  A    between atoms: C2_2  and  O1_5 
REMARK    2  A    between atoms: O1_5  and  C5_6 
REMARK    3  A    between atoms: C5_6  and  C6_7 
REMARK    4  A    between atoms: C6_7  and  C7_8 
REMARK    5  A    between atoms: C7_8  and  C8_9 
REMARK    6  A    between atoms: C12_16  and  C13_17 
REMARK    7  A    between atoms: C13_17  and  O3_19 
REMARK    8  A    between atoms: O3_19  and  C14_20 
REMARK    9  A    between atoms: C14_20  and  C15_21 
REMARK       I    between atoms: C15_21  and  N2_23 
REMARK   10  A    between atoms: N2_23  and  C16_25 
ROOT
HETATM    1  C8  UNL     1       9.059   9.149  23.324  1.00  0.00     0.103 A 
HETATM    2  N1  UNL     1      10.403   9.291  23.538  1.00  0.00    -0.357 N 
ATOM      3  H1  UNL     1      10.973   9.810  22.871  1.00  0.00     0.166 HD
HETATM    4  C9  UNL     1      10.971   8.749  24.624  1.00  0.00     0.108 A 
HETATM    5  C10 UNL     1      10.255   8.040  25.558  1.00  0.00     0.027 A 
HETATM    6 BR1  UNL     1      11.135   7.284  27.102  1.00  0.00    -0.050 Br
HETATM    7  C11 UNL     1       8.905   7.877  25.376  1.00  0.00     0.041 A 
HETATM    8  C12 UNL     1       8.329   8.450  24.236  1.00  0.00     0.076 A 
ENDROOT
BRANCH   8   9
HETATM    9  C13 UNL     1       6.898   8.277  24.046  1.00  0.00     0.296 C 
HETATM   10  O2  UNL     1       6.021   9.077  24.368  1.00  0.00    -0.259 OA
BRANCH   9  11
HETATM   11  O3  UNL     1       6.423   7.090  23.435  1.00  0.00    -0.308 OA
BRANCH  11  12
HETATM   12  C14 UNL     1       5.035   6.832  23.325  1.00  0.00     0.281 C 
BRANCH  12  13
HETATM   13  C15 UNL     1       4.779   5.920  22.208  1.00  0.00     0.242 C 
HETATM   14  O4  UNL     1       3.669   6.005  21.611  1.00  0.00    -0.271 OA
HETATM   15  N2  UNL     1       5.697   4.942  21.747  1.00  0.00    -0.355 N 
ATOM     16  H2  UNL     1       6.593   4.871  22.227  1.00  0.00     0.162 HD
BRANCH  15  17
HETATM   17  C16 UNL     1       5.456   4.053  20.662  1.00  0.00     0.084 C 
HETATM   18  C17 UNL     1       5.534   2.586  21.083  1.00  0.00     0.025 C 
HETATM   19  C18 UNL     1       6.979   2.199  20.978  1.00  0.00     0.002 C 
HETATM   20  C19 UNL     1       7.587   3.148  19.971  1.00  0.00     0.002 C 
HETATM   21  C20 UNL     1       6.501   4.113  19.577  1.00  0.00     0.025 C 
ENDBRANCH  15  17
ENDBRANCH  12  13
ENDBRANCH  11  12
ENDBRANCH   9  11
ENDBRANCH   8   9
BRANCH   1  22
HETATM   22  C7  UNL     1       8.446   9.724  22.166  1.00  0.00    -0.045 C 
BRANCH  22  23
HETATM   23  C6  UNL     1       7.947  10.229  21.156  1.00  0.00    -0.073 C 
BRANCH  23  24
HETATM   24  C5  UNL     1       7.373  10.865  19.983  1.00  0.00     0.262 C 
BRANCH  24  25
HETATM   25  O1  UNL     1       7.646  10.238  18.829  1.00  0.00    -0.370 OA
BRANCH  25  26
HETATM   26  C2  UNL     1       6.737  10.081  17.855  1.00  0.00     0.051 C 
HETATM   27  C1  UNL     1       5.743   8.960  18.100  1.00  0.00     0.045 C 
HETATM   28  C3  UNL     1       5.841  11.363  17.891  1.00  0.00     0.045 C 
HETATM   29  C4  UNL     1       7.297  10.020  16.477  1.00  0.00     0.045 C 
ENDBRANCH  25  26
ENDBRANCH  24  25
ENDBRANCH  23  24
ENDBRANCH  22  23
ENDBRANCH   1  22
TORSDOF 10
ENDMDL
MODEL 4
REMARK VINA RESULT: -7.035164246      1.232      1.677
REMARK  10 active torsions:
REMARK  status: ('A' for Active; 'I' for Inactive)
REMARK    1  A    between atoms: C2_2  and  O1_5 
REMARK    2  A    between atoms: O1_5  and  C5_6 
REMARK    3  A    between atoms: C5_6  and  C6_7 
REMARK    4  A    between atoms: C6_7  and  C7_8 
REMARK    5  A    between atoms: C7_8  and  C8_9 
REMARK    6  A    between atoms: C12_16  and  C13_17 
REMARK    7  A    between atoms: C13_17  and  O3_19 
REMARK    8  A    between atoms: O3_19  and  C14_20 
REMARK    9  A    between atoms: C14_20  and  C15_21 
REMARK       I    between atoms: C15_21  and  N2_23 
REMARK   10  A    between atoms: N2_23  and  C16_25 
ROOT
HETATM    1  C8  UNL     1       8.658   9.180  22.788  1.00  0.00     0.103 A 
HETATM    2  N1  UNL     1       9.736   9.690  23.459  1.00  0.00    -0.357 N 
ATOM      3  H1  UNL     1      10.223  10.508  23.094  1.00  0.00     0.166 HD
HETATM    4  C9  UNL     1      10.152   9.116  24.596  1.00  0.00     0.108 A 
HETATM    5  C10 UNL     1       9.537   8.013  25.137  1.00  0.00     0.027 A 
HETATM    6 BR1  UNL     1      10.187   7.234  26.780  1.00  0.00    -0.050 Br
HETATM    7  C11 UNL     1       8.453   7.474  24.491  1.00  0.00     0.041 A 
HETATM    8  C12 UNL     1       8.032   8.088  23.306  1.00  0.00     0.076 A 
ENDROOT
BRANCH   8   9
HETATM    9  C13 UNL     1       6.882   7.515  22.623  1.00  0.00     0.296 C 
HETATM   10  O2  UNL     1       5.705   7.630  22.964  1.00  0.00    -0.259 OA
BRANCH   9  11
HETATM   11  O3  UNL     1       7.088   6.747  21.452  1.00  0.00    -0.308 OA
BRANCH  11  12
HETATM   12  C14 UNL     1       6.000   6.356  20.635  1.00  0.00     0.281 C 
BRANCH  12  13
HETATM   13  C15 UNL     1       5.804   4.907  20.715  1.00  0.00     0.242 C 
HETATM   14  O4  UNL     1       5.005   4.460  21.583  1.00  0.00    -0.271 OA
HETATM   15  N2  UNL     1       6.455   3.965  19.878  1.00  0.00    -0.355 N 
ATOM     16  H2  UNL     1       7.102   4.323  19.176  1.00  0.00     0.162 HD
BRANCH  15  17
HETATM   17  C16 UNL     1       6.270   2.555  19.948  1.00  0.00     0.084 C 
HETATM   18  C17 UNL     1       7.531   1.824  20.405  1.00  0.00     0.025 C 
HETATM   19  C18 UNL     1       8.342   1.578  19.168  1.00  0.00     0.002 C 
HETATM   20  C19 UNL     1       7.355   1.578  18.022  1.00  0.00     0.002 C 
HETATM   21  C20 UNL     1       6.009   1.904  18.613  1.00  0.00     0.025 C 
ENDBRANCH  15  17
ENDBRANCH  12  13
ENDBRANCH  11  12
ENDBRANCH   9  11
ENDBRANCH   8   9
BRANCH   1  22
HETATM   22  C7  UNL     1       8.208   9.787  21.573  1.00  0.00    -0.045 C 
BRANCH  22  23
HETATM   23  C6  UNL     1       7.852  10.315  20.516  1.00  0.00    -0.073 C 
BRANCH  23  24
HETATM   24  C5  UNL     1       7.477  10.948  19.263  1.00  0.00     0.262 C 
BRANCH  24  25
HETATM   25  O1  UNL     1       7.612  10.161  18.186  1.00  0.00    -0.370 OA
BRANCH  25  26
HETATM   26  C2  UNL     1       6.704  10.115  17.200  1.00  0.00     0.051 C 
HETATM   27  C1  UNL     1       5.782   8.910  17.253  1.00  0.00     0.045 C 
HETATM   28  C3  UNL     1       5.733  11.315  17.453  1.00  0.00     0.045 C 
HETATM   29  C4  UNL     1       7.251  10.322  15.832  1.00  0.00     0.045 C 
ENDBRANCH  25  26
ENDBRANCH  24  25
ENDBRANCH  23  24
ENDBRANCH  22  23
ENDBRANCH   1  22
TORSDOF 10
ENDMDL
MODEL 5
REMARK VINA RESULT: -6.978489032      1.326      1.978
REMARK  10 active torsions:
REMARK  status: ('A' for Active; 'I' for Inactive)
REMARK    1  A    between atoms: C2_2  and  O1_5 
REMARK    2  A    between atoms: O1_5  and  C5_6 
REMARK    3  A    between atoms: C5_6  and  C6_7 
REMARK    4  A    between atoms: C6_7  and  C7_8 
REMARK    5  A    between atoms: C7_8  and  C8_9 
REMARK    6  A    between atoms: C12_16  and  C13_17 
REMARK    7  A    between atoms: C13_17  and  O3_19 
REMARK    8  A    between atoms: O3_19  and  C14_20 
REMARK    9  A    between atoms: C14_20  and  C15_21 
REMARK       I    between atoms: C15_21  and  N2_23 
REMARK   10  A    between atoms: N2_23  and  C16_25 
ROOT
HETATM    1  C8  UNL     1       8.883   9.026  22.260  1.00  0.00     0.103 A 
HETATM    2  N1  UNL     1      10.181   9.304  22.589  1.00  0.00    -0.357 N 
ATOM      3  H1  UNL     1      10.782   9.790  21.925  1.00  0.00     0.166 HD
HETATM    4  C9  UNL     1      10.662   8.939  23.785  1.00  0.00     0.108 A 
HETATM    5  C10 UNL     1       9.900   8.284  24.722  1.00  0.00     0.027 A 
HETATM    6 BR1  UNL     1      10.656   7.786  26.428  1.00  0.00    -0.050 Br
HETATM    7  C11 UNL     1       8.594   7.988  24.425  1.00  0.00     0.041 A 
HETATM    8  C12 UNL     1       8.108   8.377  23.172  1.00  0.00     0.076 A 
ENDROOT
BRANCH   8   9
HETATM    9  C13 UNL     1       6.723   8.063  22.860  1.00  0.00     0.296 C 
HETATM   10  O2  UNL     1       5.749   8.785  23.074  1.00  0.00    -0.259 OA
BRANCH   9  11
HETATM   11  O3  UNL     1       6.417   6.821  22.251  1.00  0.00    -0.308 OA
BRANCH  11  12
HETATM   12  C14 UNL     1       5.078   6.384  22.118  1.00  0.00     0.281 C 
BRANCH  12  13
HETATM   13  C15 UNL     1       5.031   4.923  22.025  1.00  0.00     0.242 C 
HETATM   14  O4  UNL     1       4.360   4.291  22.888  1.00  0.00    -0.271 OA
HETATM   15  N2  UNL     1       5.691   4.164  21.025  1.00  0.00    -0.355 N 
ATOM     16  H2  UNL     1       6.233   4.672  20.326  1.00  0.00     0.162 HD
BRANCH  15  17
HETATM   17  C16 UNL     1       5.650   2.745  20.926  1.00  0.00     0.084 C 
HETATM   18  C17 UNL     1       7.038   2.113  21.026  1.00  0.00     0.025 C 
HETATM   19  C18 UNL     1       7.599   2.117  19.636  1.00  0.00     0.002 C 
HETATM   20  C19 UNL     1       6.404   2.144  18.710  1.00  0.00     0.002 C 
HETATM   21  C20 UNL     1       5.183   2.237  19.585  1.00  0.00     0.025 C 
ENDBRANCH  15  17
ENDBRANCH  12  13
ENDBRANCH  11  12
ENDBRANCH   9  11
ENDBRANCH   8   9
BRANCH   1  22
HETATM   22  C7  UNL     1       8.361   9.411  20.984  1.00  0.00    -0.045 C 
BRANCH  22  23
HETATM   23  C6  UNL     1       7.902   9.774  19.897  1.00  0.00    -0.073 C 
BRANCH  23  24
HETATM   24  C5  UNL     1       7.322  10.211  18.638  1.00  0.00     0.262 C 
BRANCH  24  25
HETATM   25  O1  UNL     1       7.486   9.345  17.627  1.00  0.00    -0.370 OA
BRANCH  25  26
HETATM   26  C2  UNL     1       6.755   9.393  16.504  1.00  0.00     0.051 C 
HETATM   27  C1  UNL     1       6.338  10.792  16.087  1.00  0.00     0.045 C 
HETATM   28  C3  UNL     1       7.711   8.949  15.348  1.00  0.00     0.045 C 
HETATM   29  C4  UNL     1       5.606   8.448  16.461  1.00  0.00     0.045 C 
ENDBRANCH  25  26
ENDBRANCH  24  25
ENDBRANCH  23  24
ENDBRANCH  22  23
ENDBRANCH   1  22
TORSDOF 10
ENDMDL
