MODEL 1
REMARK VINA RESULT: -7.648187349      0.000      0.000
REMARK  6 active torsions:
REMARK  status: ('A' for Active; 'I' for Inactive)
REMARK    1  A    between atoms: O1_2  and  C2_3 
REMARK    2  A    between atoms: C14_15  and  C15_16 
REMARK    3  A    between atoms: C15_16  and  O2_17 
REMARK       I    between atoms: N1_20  and  C17_21 
REMARK    4  A    between atoms: C17_21  and  C18_23 
REMARK    5  A    between atoms: C18_23  and  C19_24 
REMARK    6  A    between atoms: C19_24  and  N2_25 
ROOT
HETATM    1  C2  UNL     1       7.237   2.599  20.253  1.00  0.00     0.069 A 
HETATM    2  C3  UNL     1       7.544   3.933  20.100  1.00  0.00     0.044 A 
HETATM    3  C4  UNL     1       6.614   4.899  20.534  1.00  0.00    -0.045 A 
HETATM    4  C5  UNL     1       5.448   4.478  21.086  1.00  0.00    -0.021 A 
HETATM    5  C6  UNL     1       5.114   3.195  21.252  1.00  0.00    -0.037 A 
HETATM    6  C7  UNL     1       6.040   2.218  20.821  1.00  0.00     0.045 A 
HETATM    7  C8  UNL     1       3.762   3.148  21.877  1.00  0.00    -0.005 C 
HETATM    8  C9  UNL     1       3.850   2.146  22.988  1.00  0.00     0.015 C 
HETATM    9  C10 UNL     1       3.215   0.854  22.536  1.00  0.00     0.001 C 
HETATM   10  C11 UNL     1       1.743   1.193  22.348  1.00  0.00     0.000 C 
HETATM   11  C12 UNL     1       1.663   1.958  21.050  1.00  0.00     0.001 C 
HETATM   12  C13 UNL     1       2.792   2.879  20.803  1.00  0.00     0.015 C 
HETATM   13  C14 UNL     1       3.713   4.522  22.531  1.00  0.00     0.050 C 
HETATM   14  C16 UNL     1       4.382   5.417  21.623  1.00  0.00     0.128 C 
HETATM   15  N1  UNL     1       5.126   6.575  22.028  1.00  0.00    -0.342 N 
HETATM   16  C17 UNL     1       5.289   7.121  23.265  1.00  0.00     0.222 C 
HETATM   17  O3  UNL     1       4.825   6.660  24.328  1.00  0.00    -0.273 OA
HETATM   18  C24 UNL     1       5.866   7.188  20.901  1.00  0.00     0.131 C 
HETATM   19  C25 UNL     1       6.980   6.316  20.381  1.00  0.00     0.059 C 
ENDROOT
BRANCH  16  20
HETATM   20  C18 UNL     1       6.088   8.394  23.441  1.00  0.00     0.122 C 
BRANCH  20  21
HETATM   21  C19 UNL     1       6.985   8.261  24.647  1.00  0.00     0.126 C 
BRANCH  21  22
HETATM   22  N2  UNL     1       8.279   7.749  24.338  1.00  0.00    -0.408 N 
HETATM   23  C20 UNL     1       8.907   8.267  23.177  1.00  0.00     0.143 C 
HETATM   24  C21 UNL     1       9.962   9.309  23.473  1.00  0.00     0.187 C 
HETATM   25  O4  UNL     1      10.908   8.684  24.292  1.00  0.00    -0.388 OA
HETATM   26  C22 UNL     1      10.318   8.470  25.515  1.00  0.00     0.187 C 
HETATM   27  C23 UNL     1       9.131   7.556  25.470  1.00  0.00     0.143 C 
ENDBRANCH  21  22
ENDBRANCH  20  21
ENDBRANCH  16  20
BRANCH  13  28
HETATM   28  C15 UNL     1       2.354   4.873  23.020  1.00  0.00     0.172 C 
BRANCH  28  29
HETATM   29  O2  UNL     1       2.155   4.982  24.358  1.00  0.00    -0.400 OA
ATOM     30  H2  UNL     1       1.422   4.519  24.747  1.00  0.00     0.209 HD
ENDBRANCH  28  29
ENDBRANCH  13  28
BRANCH   1  31
HETATM   31  O1  UNL     1       8.099   1.576  19.852  1.00  0.00    -0.356 OA
HETATM   32  C1  UNL     1       8.013   1.161  18.490  1.00  0.00     0.210 C 
ENDBRANCH   1  31
TORSDOF 6
ENDMDL
MODEL 2
REMARK VINA RESULT: -7.523545294      2.361      4.162
REMARK  6 active torsions:
REMARK  status: ('A' for Active; 'I' for Inactive)
REMARK    1  A    between atoms: O1_2  and  C2_3 
REMARK    2  A    between atoms: C14_15  and  C15_16 
REMARK    3  A    between atoms: C15_16  and  O2_17 
REMARK       I    between atoms: N1_20  and  C17_21 
REMARK    4  A    between atoms: C17_21  and  C18_23 
REMARK    5  A    between atoms: C18_23  and  C19_24 
REMARK    6  A    between atoms: C19_24  and  N2_25 
ROOT
HETATM    1  C2  UNL     1       3.798   4.345  21.765  1.00  0.00     0.069 A 
HETATM    2  C3  UNL     1       4.963   4.909  21.294  1.00  0.00     0.044 A 
HETATM    3  C4  UNL     1       5.232   6.260  21.589  1.00  0.00    -0.045 A 
HETATM    4  C5  UNL     1       4.331   6.957  22.325  1.00  0.00    -0.021 A 
HETATM    5  C6  UNL     1       3.190   6.448  22.800  1.00  0.00    -0.037 A 
HETATM    6  C7  UNL     1       2.911   5.092  22.510  1.00  0.00     0.045 A 
HETATM    7  C8  UNL     1       2.477   7.526  23.542  1.00  0.00    -0.005 C 
HETATM    8  C9  UNL     1       2.025   6.914  24.833  1.00  0.00     0.015 C 
HETATM    9  C10 UNL     1       0.553   6.597  24.737  1.00  0.00     0.001 C 
HETATM   10  C11 UNL     1      -0.126   7.954  24.616  1.00  0.00     0.000 C 
HETATM   11  C12 UNL     1       0.107   8.402  23.195  1.00  0.00     0.001 C 
HETATM   12  C13 UNL     1       1.437   8.058  22.648  1.00  0.00     0.015 C 
HETATM   13  C14 UNL     1       3.643   8.446  23.878  1.00  0.00     0.050 C 
HETATM   14  C16 UNL     1       4.520   8.407  22.739  1.00  0.00     0.128 C 
HETATM   15  N1  UNL     1       5.947   8.553  22.808  1.00  0.00    -0.342 N 
HETATM   16  C17 UNL     1       6.745   8.837  23.874  1.00  0.00     0.222 C 
HETATM   17  O3  UNL     1       6.358   8.989  25.051  1.00  0.00    -0.273 OA
HETATM   18  C24 UNL     1       6.603   8.272  21.510  1.00  0.00     0.131 C 
HETATM   19  C25 UNL     1       6.497   6.828  21.094  1.00  0.00     0.059 C 
ENDROOT
BRANCH  16  20
HETATM   20  C18 UNL     1       8.239   8.996  23.691  1.00  0.00     0.122 C 
BRANCH  20  21
HETATM   21  C19 UNL     1       8.954   7.870  24.397  1.00  0.00     0.126 C 
BRANCH  21  22
HETATM   22  N2  UNL     1       9.628   8.281  25.584  1.00  0.00    -0.408 N 
HETATM   23  C20 UNL     1       9.410   7.493  26.743  1.00  0.00     0.143 C 
HETATM   24  C21 UNL     1      10.544   6.543  27.051  1.00  0.00     0.187 C 
HETATM   25  O4  UNL     1      11.684   7.337  27.218  1.00  0.00    -0.388 OA
HETATM   26  C22 UNL     1      12.017   7.843  25.984  1.00  0.00     0.187 C 
HETATM   27  C23 UNL     1      10.970   8.731  25.383  1.00  0.00     0.143 C 
ENDBRANCH  21  22
ENDBRANCH  20  21
ENDBRANCH  16  20
BRANCH  13  28
HETATM   28  C15 UNL     1       3.196   9.763  24.401  1.00  0.00     0.172 C 
BRANCH  28  29
HETATM   29  O2  UNL     1       3.464  10.070  25.697  1.00  0.00    -0.400 OA
ATOM     30  H2  UNL     1       4.360  10.277  25.938  1.00  0.00     0.209 HD
ENDBRANCH  28  29
ENDBRANCH  13  28
BRANCH   1  31
HETATM   31  O1  UNL     1       3.452   3.014  21.521  1.00  0.00    -0.356 OA
HETATM   32  C1  UNL     1       4.258   2.017  22.145  1.00  0.00     0.210 C 
ENDBRANCH   1  31
TORSDOF 6
ENDMDL
MODEL 3
REMARK VINA RESULT: -7.433526604      4.514      7.071
REMARK  6 active torsions:
REMARK  status: ('A' for Active; 'I' for Inactive)
REMARK    1  A    between atoms: O1_2  and  C2_3 
REMARK    2  A    between atoms: C14_15  and  C15_16 
REMARK    3  A    between atoms: C15_16  and  O2_17 
REMARK       I    between atoms: N1_20  and  C17_21 
REMARK    4  A    between atoms: C17_21  and  C18_23 
REMARK    5  A    between atoms: C18_23  and  C19_24 
REMARK    6  A    between atoms: C19_24  and  N2_25 
ROOT
HETATM    1  C2  UNL     1       9.228   0.329  17.828  1.00  0.00     0.069 A 
HETATM    2  C3  UNL     1       9.093   1.119  18.948  1.00  0.00     0.044 A 
HETATM    3  C4  UNL     1       7.927   1.898  19.093  1.00  0.00    -0.045 A 
HETATM    4  C5  UNL     1       6.982   1.842  18.122  1.00  0.00    -0.021 A 
HETATM    5  C6  UNL     1       7.075   1.089  17.022  1.00  0.00    -0.037 A 
HETATM    6  C7  UNL     1       8.240   0.303  16.867  1.00  0.00     0.045 A 
HETATM    7  C8  UNL     1       5.849   1.311  16.205  1.00  0.00    -0.005 C 
HETATM    8  C9  UNL     1       5.376  -0.047  15.785  1.00  0.00     0.015 C 
HETATM    9  C10 UNL     1       5.771  -0.282  14.349  1.00  0.00     0.001 C 
HETATM   10  C11 UNL     1       4.971   0.742  13.556  1.00  0.00     0.000 C 
HETATM   11  C12 UNL     1       5.666   2.062  13.775  1.00  0.00     0.001 C 
HETATM   12  C13 UNL     1       6.200   2.262  15.138  1.00  0.00     0.015 C 
HETATM   13  C14 UNL     1       4.886   1.797  17.281  1.00  0.00     0.050 C 
HETATM   14  C16 UNL     1       5.669   2.605  18.178  1.00  0.00     0.128 C 
HETATM   15  N1  UNL     1       5.414   2.733  19.585  1.00  0.00    -0.342 N 
HETATM   16  C17 UNL     1       4.393   2.237  20.337  1.00  0.00     0.222 C 
HETATM   17  O3  UNL     1       3.470   1.510  19.917  1.00  0.00    -0.273 OA
HETATM   18  C24 UNL     1       6.494   3.466  20.285  1.00  0.00     0.131 C 
HETATM   19  C25 UNL     1       7.799   2.713  20.312  1.00  0.00     0.059 C 
ENDROOT
BRANCH  16  20
HETATM   20  C18 UNL     1       4.306   2.553  21.814  1.00  0.00     0.122 C 
BRANCH  20  21
HETATM   21  C19 UNL     1       3.626   1.414  22.532  1.00  0.00     0.126 C 
BRANCH  21  22
HETATM   22  N2  UNL     1       2.729   1.842  23.554  1.00  0.00    -0.408 N 
HETATM   23  C20 UNL     1       2.545   3.241  23.693  1.00  0.00     0.143 C 
HETATM   24  C21 UNL     1       1.261   3.748  23.077  1.00  0.00     0.187 C 
HETATM   25  O4  UNL     1       0.224   3.061  23.719  1.00  0.00    -0.388 OA
HETATM   26  C22 UNL     1       0.280   1.751  23.308  1.00  0.00     0.187 C 
HETATM   27  C23 UNL     1       1.549   1.046  23.684  1.00  0.00     0.143 C 
ENDBRANCH  21  22
ENDBRANCH  20  21
ENDBRANCH  16  20
BRANCH  13  28
HETATM   28  C15 UNL     1       3.633   2.357  16.712  1.00  0.00     0.172 C 
BRANCH  28  29
HETATM   29  O2  UNL     1       2.446   1.936  17.221  1.00  0.00    -0.400 OA
ATOM     30  H2  UNL     1       1.663   2.044  16.695  1.00  0.00     0.209 HD
ENDBRANCH  28  29
ENDBRANCH  13  28
BRANCH   1  31
HETATM   31  O1  UNL     1      10.348  -0.475  17.603  1.00  0.00    -0.356 OA
HETATM   32  C1  UNL     1      10.150  -1.644  16.811  1.00  0.00     0.210 C 
ENDBRANCH   1  31
TORSDOF 6
ENDMDL
MODEL 4
REMARK VINA RESULT: -7.399618237      3.453      6.130
REMARK  6 active torsions:
REMARK  status: ('A' for Active; 'I' for Inactive)
REMARK    1  A    between atoms: O1_2  and  C2_3 
REMARK    2  A    between atoms: C14_15  and  C15_16 
REMARK    3  A    between atoms: C15_16  and  O2_17 
REMARK       I    between atoms: N1_20  and  C17_21 
REMARK    4  A    between atoms: C17_21  and  C18_23 
REMARK    5  A    between atoms: C18_23  and  C19_24 
REMARK    6  A    between atoms: C19_24  and  N2_25 
ROOT
HETATM    1  C2  UNL     1       9.195   0.341  17.825  1.00  0.00     0.069 A 
HETATM    2  C3  UNL     1       9.107   1.146  18.939  1.00  0.00     0.044 A 
HETATM    3  C4  UNL     1       7.952   1.934  19.120  1.00  0.00    -0.045 A 
HETATM    4  C5  UNL     1       6.969   1.870  18.188  1.00  0.00    -0.021 A 
HETATM    5  C6  UNL     1       7.016   1.102  17.095  1.00  0.00    -0.037 A 
HETATM    6  C7  UNL     1       8.170   0.308  16.904  1.00  0.00     0.045 A 
HETATM    7  C8  UNL     1       5.759   1.320  16.324  1.00  0.00    -0.005 C 
HETATM    8  C9  UNL     1       5.264  -0.041  15.940  1.00  0.00     0.015 C 
HETATM    9  C10 UNL     1       5.601  -0.296  14.492  1.00  0.00     0.001 C 
HETATM   10  C11 UNL     1       4.775   0.721  13.718  1.00  0.00     0.000 C 
HETATM   11  C12 UNL     1       5.484   2.041  13.892  1.00  0.00     0.001 C 
HETATM   12  C13 UNL     1       6.073   2.256  15.231  1.00  0.00     0.015 C 
HETATM   13  C14 UNL     1       4.842   1.825  17.430  1.00  0.00     0.050 C 
HETATM   14  C16 UNL     1       5.663   2.640  18.285  1.00  0.00     0.128 C 
HETATM   15  N1  UNL     1       5.465   2.788  19.699  1.00  0.00    -0.342 N 
HETATM   16  C17 UNL     1       4.472   2.307  20.497  1.00  0.00     0.222 C 
HETATM   17  O3  UNL     1       3.529   1.580  20.123  1.00  0.00    -0.273 OA
HETATM   18  C24 UNL     1       6.575   3.525  20.346  1.00  0.00     0.131 C 
HETATM   19  C25 UNL     1       7.875   2.764  20.332  1.00  0.00     0.059 C 
ENDROOT
BRANCH  16  20
HETATM   20  C18 UNL     1       4.444   2.643  21.972  1.00  0.00     0.122 C 
BRANCH  20  21
HETATM   21  C19 UNL     1       3.276   3.554  22.258  1.00  0.00     0.126 C 
BRANCH  21  22
HETATM   22  N2  UNL     1       3.513   4.912  21.895  1.00  0.00    -0.408 N 
HETATM   23  C20 UNL     1       2.381   5.672  21.503  1.00  0.00     0.143 C 
HETATM   24  C21 UNL     1       1.867   6.595  22.585  1.00  0.00     0.187 C 
HETATM   25  O4  UNL     1       2.929   7.447  22.907  1.00  0.00    -0.388 OA
HETATM   26  C22 UNL     1       3.879   6.695  23.554  1.00  0.00     0.187 C 
HETATM   27  C23 UNL     1       4.461   5.594  22.719  1.00  0.00     0.143 C 
ENDBRANCH  21  22
ENDBRANCH  20  21
ENDBRANCH  16  20
BRANCH  13  28
HETATM   28  C15 UNL     1       3.569   2.384  16.903  1.00  0.00     0.172 C 
BRANCH  28  29
HETATM   29  O2  UNL     1       2.401   1.971  17.460  1.00  0.00    -0.400 OA
ATOM     30  H2  UNL     1       1.616   1.982  16.925  1.00  0.00     0.209 HD
ENDBRANCH  28  29
ENDBRANCH  13  28
BRANCH   1  31
HETATM   31  O1  UNL     1      10.301  -0.471  17.567  1.00  0.00    -0.356 OA
HETATM   32  C1  UNL     1      10.070  -1.640  16.782  1.00  0.00     0.210 C 
ENDBRANCH   1  31
TORSDOF 6
ENDMDL
MODEL 5
REMARK VINA RESULT: -7.371370599      2.364      3.607
REMARK  6 active torsions:
REMARK  status: ('A' for Active; 'I' for Inactive)
REMARK    1  A    between atoms: O1_2  and  C2_3 
REMARK    2  A    between atoms: C14_15  and  C15_16 
REMARK    3  A    between atoms: C15_16  and  O2_17 
REMARK       I    between atoms: N1_20  and  C17_21 
REMARK    4  A    between atoms: C17_21  and  C18_23 
REMARK    5  A    between atoms: C18_23  and  C19_24 
REMARK    6  A    between atoms: C19_24  and  N2_25 
ROOT
HETATM    1  C2  UNL     1       5.183   4.306  20.965  1.00  0.00     0.069 A 
HETATM    2  C3  UNL     1       6.301   5.054  20.666  1.00  0.00     0.044 A 
HETATM    3  C4  UNL     1       6.349   6.400  21.080  1.00  0.00    -0.045 A 
HETATM    4  C5  UNL     1       5.291   6.910  21.759  1.00  0.00    -0.021 A 
HETATM    5  C6  UNL     1       4.190   6.218  22.068  1.00  0.00    -0.037 A 
HETATM    6  C7  UNL     1       4.132   4.867  21.657  1.00  0.00     0.045 A 
HETATM    7  C8  UNL     1       3.264   7.129  22.799  1.00  0.00    -0.005 C 
HETATM    8  C9  UNL     1       2.773   6.358  23.987  1.00  0.00     0.015 C 
HETATM    9  C10 UNL     1       1.377   5.862  23.708  1.00  0.00     0.001 C 
HETATM   10  C11 UNL     1       0.532   7.123  23.606  1.00  0.00     0.000 C 
HETATM   11  C12 UNL     1       0.842   7.715  22.254  1.00  0.00     0.001 C 
HETATM   12  C13 UNL     1       2.254   7.594  21.834  1.00  0.00     0.015 C 
HETATM   13  C14 UNL     1       4.252   8.162  23.325  1.00  0.00     0.050 C 
HETATM   14  C16 UNL     1       5.236   8.332  22.289  1.00  0.00     0.128 C 
HETATM   15  N1  UNL     1       6.614   8.657  22.526  1.00  0.00    -0.342 N 
HETATM   16  C17 UNL     1       7.255   8.953  23.690  1.00  0.00     0.222 C 
HETATM   17  O3  UNL     1       6.734   8.956  24.824  1.00  0.00    -0.273 OA
HETATM   18  C24 UNL     1       7.429   8.573  21.292  1.00  0.00     0.131 C 
HETATM   19  C25 UNL     1       7.566   7.166  20.769  1.00  0.00     0.059 C 
ENDROOT
BRANCH  16  20
HETATM   20  C18 UNL     1       8.723   9.320  23.685  1.00  0.00     0.122 C 
BRANCH  20  21
HETATM   21  C19 UNL     1       9.527   8.180  24.258  1.00  0.00     0.126 C 
BRANCH  21  22
HETATM   22  N2  UNL     1      10.003   8.427  25.578  1.00  0.00    -0.408 N 
HETATM   23  C20 UNL     1       9.451   7.629  26.613  1.00  0.00     0.143 C 
HETATM   24  C21 UNL     1      10.357   6.503  27.058  1.00  0.00     0.187 C 
HETATM   25  O4  UNL     1      11.541   7.106  27.496  1.00  0.00    -0.388 OA
HETATM   26  C22 UNL     1      12.180   7.612  26.390  1.00  0.00     0.187 C 
HETATM   27  C23 UNL     1      11.408   8.676  25.670  1.00  0.00     0.143 C 
ENDBRANCH  21  22
ENDBRANCH  20  21
ENDBRANCH  16  20
BRANCH  13  28
HETATM   28  C15 UNL     1       3.577   9.362  23.885  1.00  0.00     0.172 C 
BRANCH  28  29
HETATM   29  O2  UNL     1       3.874   9.739  25.155  1.00  0.00    -0.400 OA
ATOM     30  H2  UNL     1       4.007  10.662  25.334  1.00  0.00     0.209 HD
ENDBRANCH  28  29
ENDBRANCH  13  28
BRANCH   1  31
HETATM   31  O1  UNL     1       5.051   2.966  20.594  1.00  0.00    -0.356 OA
HETATM   32  C1  UNL     1       6.196   2.345  20.012  1.00  0.00     0.210 C 
ENDBRANCH   1  31
TORSDOF 6
ENDMDL
