MODEL 1
REMARK VINA RESULT: -7.071746790      0.000      0.000
REMARK  9 active torsions:
REMARK  status: ('A' for Active; 'I' for Inactive)
REMARK    1  A    between atoms: O1_2  and  C2_3 
REMARK    2  A    between atoms: C2_3  and  C3_5 
REMARK    3  A    between atoms: C5_7  and  C6_8 
REMARK    4  A    between atoms: C6_8  and  C7_9 
REMARK    5  A    between atoms: C8_10  and  C10_12 
REMARK       I    between atoms: C10_12  and  N1_14 
REMARK    6  A    between atoms: C11_16  and  C12_17 
REMARK    7  A    between atoms: C14_20  and  O4_22 
REMARK    8  A    between atoms: C17_26  and  O6_27 
REMARK    9  A    between atoms: O6_27  and  C18_28 
ROOT
HETATM    1  C3  UNL     1       6.045   7.587  21.052  1.00  0.00     0.091 C 
HETATM    2  C4  UNL     1       7.573   7.756  21.017  1.00  0.00     0.025 C 
HETATM    3  C5  UNL     1       7.285   9.242  21.217  1.00  0.00    -0.028 C 
HETATM    4  C13 UNL     1       8.318  10.102  20.643  1.00  0.00     0.055 C 
HETATM    5  C14 UNL     1       7.968  11.478  20.205  1.00  0.00     0.118 C 
HETATM    6  C15 UNL     1       7.671  12.497  21.220  1.00  0.00     0.054 C 
HETATM    7  C16 UNL     1       6.886  11.389  19.204  1.00  0.00     0.190 C 
HETATM    8  O5  UNL     1       6.182  12.347  19.095  1.00  0.00    -0.292 OA
HETATM    9  C17 UNL     1       6.651  10.201  18.365  1.00  0.00     0.208 C 
HETATM   10  C20 UNL     1       5.909   9.116  19.061  1.00  0.00     0.024 C 
HETATM   11  C21 UNL     1       4.448   9.311  18.603  1.00  0.00     0.013 C 
HETATM   12  C22 UNL     1       6.018   8.990  20.510  1.00  0.00     0.014 C 
ENDROOT
BRANCH   3  13
HETATM   13  C6  UNL     1       7.155   9.505  22.707  1.00  0.00     0.038 C 
BRANCH  13  14
HETATM   14  C7  UNL     1       8.488   9.748  23.303  1.00  0.00    -0.014 C 
HETATM   15  C8  UNL     1       9.040   8.930  24.189  1.00  0.00     0.002 C 
HETATM   16  C9  UNL     1       8.350   7.710  24.643  1.00  0.00     0.054 C 
BRANCH  15  17
HETATM   17  C10 UNL     1      10.351   9.246  24.718  1.00  0.00     0.250 C 
HETATM   18  O3  UNL     1      11.297   9.645  23.948  1.00  0.00    -0.268 OA
HETATM   19  N1  UNL     1      10.580   9.108  26.120  1.00  0.00    -0.336 N 
HETATM   20  C11 UNL     1      11.562   8.436  26.604  1.00  0.00     0.075 C 
ATOM     21  H1  UNL     1       9.935   9.564  26.766  1.00  0.00     0.168 HD
BRANCH  20  22
HETATM   22  C12 UNL     1      12.529   7.756  25.734  1.00  0.00     0.129 C 
HETATM   23 BR1  UNL     1      14.143   7.380  26.736  1.00  0.00    -0.091 Br
ENDBRANCH  20  22
ENDBRANCH  15  17
ENDBRANCH  13  14
ENDBRANCH   3  13
BRANCH   1  24
HETATM   24  C2  UNL     1       5.577   6.450  20.311  1.00  0.00     0.263 C 
HETATM   25  O2  UNL     1       4.403   6.094  20.147  1.00  0.00    -0.265 OA
BRANCH  24  26
HETATM   26  O1  UNL     1       6.539   5.624  19.689  1.00  0.00    -0.326 OA
HETATM   27  C1  UNL     1       6.683   4.264  20.056  1.00  0.00     0.213 C 
ENDBRANCH  24  26
ENDBRANCH   1  24
BRANCH   5  28
HETATM   28  O4  UNL     1       9.094  11.942  19.471  1.00  0.00    -0.382 OA
ATOM     29  H4  UNL     1       8.757  12.602  18.877  1.00  0.00     0.211 HD
ENDBRANCH   5  28
BRANCH   9  30
HETATM   30  O6  UNL     1       5.998  10.650  17.190  1.00  0.00    -0.308 OA
BRANCH  30  31
HETATM   31  C18 UNL     1       6.501  10.319  15.945  1.00  0.00     0.255 C 
HETATM   32  C19 UNL     1       7.810   9.625  15.825  1.00  0.00     0.126 C 
HETATM   33  O7  UNL     1       5.842  10.609  14.913  1.00  0.00    -0.266 OA
ENDBRANCH  30  31
ENDBRANCH   9  30
TORSDOF 9
ENDMDL
MODEL 2
REMARK VINA RESULT: -6.771149503      4.744      6.882
REMARK  9 active torsions:
REMARK  status: ('A' for Active; 'I' for Inactive)
REMARK    1  A    between atoms: O1_2  and  C2_3 
REMARK    2  A    between atoms: C2_3  and  C3_5 
REMARK    3  A    between atoms: C5_7  and  C6_8 
REMARK    4  A    between atoms: C6_8  and  C7_9 
REMARK    5  A    between atoms: C8_10  and  C10_12 
REMARK       I    between atoms: C10_12  and  N1_14 
REMARK    6  A    between atoms: C11_16  and  C12_17 
REMARK    7  A    between atoms: C14_20  and  O4_22 
REMARK    8  A    between atoms: C17_26  and  O6_27 
REMARK    9  A    between atoms: O6_27  and  C18_28 
ROOT
HETATM    1  C3  UNL     1       7.664   7.973  24.233  1.00  0.00     0.091 C 
HETATM    2  C4  UNL     1       6.563   9.040  24.353  1.00  0.00     0.025 C 
HETATM    3  C5  UNL     1       5.814   8.197  23.322  1.00  0.00    -0.028 C 
HETATM    4  C13 UNL     1       4.908   8.990  22.493  1.00  0.00     0.055 C 
HETATM    5  C14 UNL     1       4.568   8.523  21.124  1.00  0.00     0.118 C 
HETATM    6  C15 UNL     1       3.701   7.349  20.963  1.00  0.00     0.054 C 
HETATM    7  C16 UNL     1       5.822   8.371  20.357  1.00  0.00     0.190 C 
HETATM    8  O5  UNL     1       5.799   7.597  19.449  1.00  0.00    -0.292 OA
HETATM    9  C17 UNL     1       7.056   9.115  20.663  1.00  0.00     0.208 C 
HETATM   10  C20 UNL     1       7.837   8.538  21.790  1.00  0.00     0.024 C 
HETATM   11  C21 UNL     1       8.922   7.689  21.094  1.00  0.00     0.013 C 
HETATM   12  C22 UNL     1       7.143   7.792  22.833  1.00  0.00     0.014 C 
ENDROOT
BRANCH   3  13
HETATM   13  C6  UNL     1       5.038   7.121  24.061  1.00  0.00     0.038 C 
BRANCH  13  14
HETATM   14  C7  UNL     1       3.819   7.696  24.674  1.00  0.00    -0.014 C 
HETATM   15  C8  UNL     1       2.651   7.069  24.676  1.00  0.00     0.002 C 
HETATM   16  C9  UNL     1       2.489   5.741  24.057  1.00  0.00     0.054 C 
BRANCH  15  17
HETATM   17  C10 UNL     1       1.511   7.707  25.303  1.00  0.00     0.250 C 
HETATM   18  O3  UNL     1       0.487   7.024  25.665  1.00  0.00    -0.268 OA
HETATM   19  N1  UNL     1       1.543   9.118  25.516  1.00  0.00    -0.336 N 
HETATM   20  C11 UNL     1       0.602   9.904  25.130  1.00  0.00     0.075 C 
ATOM     21  H1  UNL     1       2.348   9.520  25.996  1.00  0.00     0.168 HD
BRANCH  20  22
HETATM   22  C12 UNL     1      -0.586   9.394  24.434  1.00  0.00     0.129 C 
HETATM   23 BR1  UNL     1      -2.150   9.674  25.542  1.00  0.00    -0.091 Br
ENDBRANCH  20  22
ENDBRANCH  15  17
ENDBRANCH  13  14
ENDBRANCH   3  13
BRANCH   1  24
HETATM   24  C2  UNL     1       8.979   8.471  24.523  1.00  0.00     0.263 C 
HETATM   25  O2  UNL     1       9.452   9.569  24.201  1.00  0.00    -0.265 OA
BRANCH  24  26
HETATM   26  O1  UNL     1       9.855   7.639  25.255  1.00  0.00    -0.326 OA
HETATM   27  C1  UNL     1       9.767   7.545  26.665  1.00  0.00     0.213 C 
ENDBRANCH  24  26
ENDBRANCH   1  24
BRANCH   5  28
HETATM   28  O4  UNL     1       3.902   9.616  20.504  1.00  0.00    -0.382 OA
ATOM     29  H4  UNL     1       3.216   9.872  21.109  1.00  0.00     0.211 HD
ENDBRANCH   5  28
BRANCH   9  30
HETATM   30  O6  UNL     1       7.799   9.191  19.459  1.00  0.00    -0.308 OA
BRANCH  30  31
HETATM   31  C18 UNL     1       7.810  10.360  18.720  1.00  0.00     0.255 C 
HETATM   32  C19 UNL     1       7.221  10.391  17.356  1.00  0.00     0.126 C 
HETATM   33  O7  UNL     1       8.322  11.399  19.212  1.00  0.00    -0.266 OA
ENDBRANCH  30  31
ENDBRANCH   9  30
TORSDOF 9
ENDMDL
MODEL 3
REMARK VINA RESULT: -6.741976058      3.706      7.441
REMARK  9 active torsions:
REMARK  status: ('A' for Active; 'I' for Inactive)
REMARK    1  A    between atoms: O1_2  and  C2_3 
REMARK    2  A    between atoms: C2_3  and  C3_5 
REMARK    3  A    between atoms: C5_7  and  C6_8 
REMARK    4  A    between atoms: C6_8  and  C7_9 
REMARK    5  A    between atoms: C8_10  and  C10_12 
REMARK       I    between atoms: C10_12  and  N1_14 
REMARK    6  A    between atoms: C11_16  and  C12_17 
REMARK    7  A    between atoms: C14_20  and  O4_22 
REMARK    8  A    between atoms: C17_26  and  O6_27 
REMARK    9  A    between atoms: O6_27  and  C18_28 
ROOT
HETATM    1  C3  UNL     1       6.545   9.116  19.957  1.00  0.00     0.091 C 
HETATM    2  C4  UNL     1       6.606   7.607  20.245  1.00  0.00     0.025 C 
HETATM    3  C5  UNL     1       5.886   7.957  21.546  1.00  0.00    -0.028 C 
HETATM    4  C13 UNL     1       6.184   7.020  22.628  1.00  0.00     0.055 C 
HETATM    5  C14 UNL     1       6.096   7.477  24.039  1.00  0.00     0.118 C 
HETATM    6  C15 UNL     1       4.776   7.746  24.623  1.00  0.00     0.054 C 
HETATM    7  C16 UNL     1       7.003   8.629  24.215  1.00  0.00     0.190 C 
HETATM    8  O5  UNL     1       6.734   9.389  25.094  1.00  0.00    -0.292 OA
HETATM    9  C17 UNL     1       8.188   8.866  23.372  1.00  0.00     0.208 C 
HETATM   10  C20 UNL     1       7.871   9.491  22.059  1.00  0.00     0.024 C 
HETATM   11  C21 UNL     1       8.150  10.992  22.286  1.00  0.00     0.013 C 
HETATM   12  C22 UNL     1       6.564   9.261  21.454  1.00  0.00     0.014 C 
ENDROOT
BRANCH   3  13
HETATM   13  C6  UNL     1       4.393   7.981  21.272  1.00  0.00     0.038 C 
BRANCH  13  14
HETATM   14  C7  UNL     1       3.819   6.626  21.437  1.00  0.00    -0.014 C 
HETATM   15  C8  UNL     1       3.315   5.931  20.427  1.00  0.00     0.002 C 
HETATM   16  C9  UNL     1       3.294   6.471  19.056  1.00  0.00     0.054 C 
BRANCH  15  17
HETATM   17  C10 UNL     1       2.777   4.610  20.681  1.00  0.00     0.250 C 
HETATM   18  O3  UNL     1       2.159   4.347  21.774  1.00  0.00    -0.268 OA
HETATM   19  N1  UNL     1       2.942   3.596  19.690  1.00  0.00    -0.336 N 
HETATM   20  C11 UNL     1       3.433   2.438  19.951  1.00  0.00     0.075 C 
ATOM     21  H1  UNL     1       2.658   3.800  18.732  1.00  0.00     0.168 HD
BRANCH  20  22
HETATM   22  C12 UNL     1       3.862   2.075  21.308  1.00  0.00     0.129 C 
HETATM   23 BR1  UNL     1       5.768   2.373  21.482  1.00  0.00    -0.091 Br
ENDBRANCH  20  22
ENDBRANCH  15  17
ENDBRANCH  13  14
ENDBRANCH   3  13
BRANCH   1  24
HETATM   24  C2  UNL     1       7.607   9.580  19.109  1.00  0.00     0.263 C 
HETATM   25  O2  UNL     1       8.690   9.022  18.890  1.00  0.00    -0.265 OA
BRANCH  24  26
HETATM   26  O1  UNL     1       7.427  10.810  18.437  1.00  0.00    -0.326 OA
HETATM   27  C1  UNL     1       6.134  11.347  18.230  1.00  0.00     0.213 C 
ENDBRANCH  24  26
ENDBRANCH   1  24
BRANCH   5  28
HETATM   28  O4  UNL     1       6.686   6.439  24.812  1.00  0.00    -0.382 OA
ATOM     29  H4  UNL     1       7.400   6.849  25.286  1.00  0.00     0.211 HD
ENDBRANCH   5  28
BRANCH   9  30
HETATM   30  O6  UNL     1       9.096   9.634  24.144  1.00  0.00    -0.308 OA
BRANCH  30  31
HETATM   31  C18 UNL     1      10.282   9.076  24.581  1.00  0.00     0.255 C 
HETATM   32  C19 UNL     1      10.306   8.226  25.801  1.00  0.00     0.126 C 
HETATM   33  O7  UNL     1      11.343   9.291  23.940  1.00  0.00    -0.266 OA
ENDBRANCH  30  31
ENDBRANCH   9  30
TORSDOF 9
ENDMDL
MODEL 4
REMARK VINA RESULT: -6.718930715      4.201      6.585
REMARK  9 active torsions:
REMARK  status: ('A' for Active; 'I' for Inactive)
REMARK    1  A    between atoms: O1_2  and  C2_3 
REMARK    2  A    between atoms: C2_3  and  C3_5 
REMARK    3  A    between atoms: C5_7  and  C6_8 
REMARK    4  A    between atoms: C6_8  and  C7_9 
REMARK    5  A    between atoms: C8_10  and  C10_12 
REMARK       I    between atoms: C10_12  and  N1_14 
REMARK    6  A    between atoms: C11_16  and  C12_17 
REMARK    7  A    between atoms: C14_20  and  O4_22 
REMARK    8  A    between atoms: C17_26  and  O6_27 
REMARK    9  A    between atoms: O6_27  and  C18_28 
ROOT
HETATM    1  C3  UNL     1       2.691   9.418  24.471  1.00  0.00     0.091 C 
HETATM    2  C4  UNL     1       3.568   8.486  25.323  1.00  0.00     0.025 C 
HETATM    3  C5  UNL     1       4.215   8.093  23.997  1.00  0.00    -0.028 C 
HETATM    4  C13 UNL     1       4.747   6.732  24.006  1.00  0.00     0.055 C 
HETATM    5  C14 UNL     1       4.857   5.977  22.731  1.00  0.00     0.118 C 
HETATM    6  C15 UNL     1       5.873   6.377  21.749  1.00  0.00     0.054 C 
HETATM    7  C16 UNL     1       3.516   5.905  22.114  1.00  0.00     0.190 C 
HETATM    8  O5  UNL     1       3.483   5.766  20.929  1.00  0.00    -0.292 OA
HETATM    9  C17 UNL     1       2.263   5.995  22.882  1.00  0.00     0.208 C 
HETATM   10  C20 UNL     1       1.876   7.389  23.231  1.00  0.00     0.024 C 
HETATM   11  C21 UNL     1       0.844   7.770  22.148  1.00  0.00     0.013 C 
HETATM   12  C22 UNL     1       2.913   8.402  23.383  1.00  0.00     0.014 C 
ENDROOT
BRANCH   3  13
HETATM   13  C6  UNL     1       5.325   9.086  23.697  1.00  0.00     0.038 C 
BRANCH  13  14
HETATM   14  C7  UNL     1       6.631   8.541  24.132  1.00  0.00    -0.014 C 
HETATM   15  C8  UNL     1       7.782   8.911  23.588  1.00  0.00     0.002 C 
HETATM   16  C9  UNL     1       7.834   9.903  22.499  1.00  0.00     0.054 C 
BRANCH  15  17
HETATM   17  C10 UNL     1       9.014   8.327  24.080  1.00  0.00     0.250 C 
HETATM   18  O3  UNL     1       8.997   7.360  24.923  1.00  0.00    -0.268 OA
HETATM   19  N1  UNL     1      10.257   8.845  23.609  1.00  0.00    -0.336 N 
HETATM   20  C11 UNL     1      11.201   9.218  24.397  1.00  0.00     0.075 C 
ATOM     21  H1  UNL     1      10.404   8.922  22.603  1.00  0.00     0.168 HD
BRANCH  20  22
HETATM   22  C12 UNL     1      11.060   9.133  25.856  1.00  0.00     0.129 C 
HETATM   23 BR1  UNL     1      12.216   7.735  26.534  1.00  0.00    -0.091 Br
ENDBRANCH  20  22
ENDBRANCH  15  17
ENDBRANCH  13  14
ENDBRANCH   3  13
BRANCH   1  24
HETATM   24  C2  UNL     1       1.403   9.680  25.049  1.00  0.00     0.263 C 
HETATM   25  O2  UNL     1       0.621  10.594  24.755  1.00  0.00    -0.265 OA
BRANCH  24  26
HETATM   26  O1  UNL     1       0.949   8.817  26.072  1.00  0.00    -0.326 OA
HETATM   27  C1  UNL     1      -0.400   8.393  26.125  1.00  0.00     0.213 C 
ENDBRANCH  24  26
ENDBRANCH   1  24
BRANCH   5  28
HETATM   28  O4  UNL     1       5.149   4.637  23.106  1.00  0.00    -0.382 OA
ATOM     29  H4  UNL     1       4.318   4.262  23.376  1.00  0.00     0.211 HD
ENDBRANCH   5  28
BRANCH   9  30
HETATM   30  O6  UNL     1       1.270   5.319  22.130  1.00  0.00    -0.308 OA
BRANCH  30  31
HETATM   31  C18 UNL     1       0.807   4.082  22.542  1.00  0.00     0.255 C 
HETATM   32  C19 UNL     1       1.347   3.452  23.775  1.00  0.00     0.126 C 
HETATM   33  O7  UNL     1      -0.075   3.493  21.865  1.00  0.00    -0.266 OA
ENDBRANCH  30  31
ENDBRANCH   9  30
TORSDOF 9
ENDMDL
MODEL 5
REMARK VINA RESULT: -6.651397957      4.343      6.870
REMARK  9 active torsions:
REMARK  status: ('A' for Active; 'I' for Inactive)
REMARK    1  A    between atoms: O1_2  and  C2_3 
REMARK    2  A    between atoms: C2_3  and  C3_5 
REMARK    3  A    between atoms: C5_7  and  C6_8 
REMARK    4  A    between atoms: C6_8  and  C7_9 
REMARK    5  A    between atoms: C8_10  and  C10_12 
REMARK       I    between atoms: C10_12  and  N1_14 
REMARK    6  A    between atoms: C11_16  and  C12_17 
REMARK    7  A    between atoms: C14_20  and  O4_22 
REMARK    8  A    between atoms: C17_26  and  O6_27 
REMARK    9  A    between atoms: O6_27  and  C18_28 
ROOT
HETATM    1  C3  UNL     1       7.491   7.572  24.480  1.00  0.00     0.091 C 
HETATM    2  C4  UNL     1       6.244   8.450  24.676  1.00  0.00     0.025 C 
HETATM    3  C5  UNL     1       5.753   7.821  23.374  1.00  0.00    -0.028 C 
HETATM    4  C13 UNL     1       4.853   8.696  22.625  1.00  0.00     0.055 C 
HETATM    5  C14 UNL     1       4.753   8.557  21.149  1.00  0.00     0.118 C 
HETATM    6  C15 UNL     1       4.087   7.376  20.586  1.00  0.00     0.054 C 
HETATM    7  C16 UNL     1       6.100   8.738  20.570  1.00  0.00     0.190 C 
HETATM    8  O5  UNL     1       6.298   8.221  19.514  1.00  0.00    -0.292 OA
HETATM    9  C17 UNL     1       7.170   9.508  21.228  1.00  0.00     0.208 C 
HETATM   10  C20 UNL     1       7.880   8.751  22.294  1.00  0.00     0.024 C 
HETATM   11  C21 UNL     1       9.151   8.226  21.593  1.00  0.00     0.013 C 
HETATM   12  C22 UNL     1       7.176   7.697  23.014  1.00  0.00     0.014 C 
ENDROOT
BRANCH   3  13
HETATM   13  C6  UNL     1       5.053   6.517  23.710  1.00  0.00     0.038 C 
BRANCH  13  14
HETATM   14  C7  UNL     1       3.622   6.763  24.001  1.00  0.00    -0.014 C 
HETATM   15  C8  UNL     1       2.685   5.838  23.838  1.00  0.00     0.002 C 
HETATM   16  C9  UNL     1       3.015   4.487  23.350  1.00  0.00     0.054 C 
BRANCH  15  17
HETATM   17  C10 UNL     1       1.309   6.167  24.150  1.00  0.00     0.250 C 
HETATM   18  O3  UNL     1       0.406   6.167  23.239  1.00  0.00    -0.268 OA
HETATM   19  N1  UNL     1       0.968   6.494  25.496  1.00  0.00    -0.336 N 
HETATM   20  C11 UNL     1       0.327   7.562  25.815  1.00  0.00     0.075 C 
ATOM     21  H1  UNL     1       1.243   5.851  26.239  1.00  0.00     0.168 HD
BRANCH  20  22
HETATM   22  C12 UNL     1      -0.102   8.530  24.799  1.00  0.00     0.129 C 
HETATM   23 BR1  UNL     1       1.284   9.859  24.550  1.00  0.00    -0.091 Br
ENDBRANCH  20  22
ENDBRANCH  15  17
ENDBRANCH  13  14
ENDBRANCH   3  13
BRANCH   1  24
HETATM   24  C2  UNL     1       8.676   8.118  25.077  1.00  0.00     0.263 C 
HETATM   25  O2  UNL     1       9.069   9.291  25.027  1.00  0.00    -0.265 OA
BRANCH  24  26
HETATM   26  O1  UNL     1       9.510   7.244  25.810  1.00  0.00    -0.326 OA
HETATM   27  C1  UNL     1      10.344   7.727  26.847  1.00  0.00     0.213 C 
ENDBRANCH  24  26
ENDBRANCH   1  24
BRANCH   5  28
HETATM   28  O4  UNL     1       4.021   9.694  20.709  1.00  0.00    -0.382 OA
ATOM     29  H4  UNL     1       3.112   9.418  20.686  1.00  0.00     0.211 HD
ENDBRANCH   5  28
BRANCH   9  30
HETATM   30  O6  UNL     1       8.038   9.965  20.205  1.00  0.00    -0.308 OA
BRANCH  30  31
HETATM   31  C18 UNL     1       8.003  11.287  19.802  1.00  0.00     0.255 C 
HETATM   32  C19 UNL     1       6.714  11.920  19.418  1.00  0.00     0.126 C 
HETATM   33  O7  UNL     1       9.070  11.951  19.762  1.00  0.00    -0.266 OA
ENDBRANCH  30  31
ENDBRANCH   9  30
TORSDOF 9
ENDMDL
