MODEL 1
REMARK VINA RESULT: -5.821051570      0.000      0.000
REMARK  8 active torsions:
REMARK  status: ('A' for Active; 'I' for Inactive)
REMARK    1  A    between atoms: C1_2  and  C2_3 
REMARK    2  A    between atoms: C2_3  and  N1_4 
REMARK    3  A    between atoms: N1_4  and  C3_5 
REMARK    4  A    between atoms: N1_4  and  C5_8 
REMARK    5  A    between atoms: C3_5  and  C4_6 
REMARK    6  A    between atoms: C5_8  and  N2_9 
REMARK    7  A    between atoms: C5_8  and  C20_27 
REMARK    8  A    between atoms: C8_12  and  C9_13 
ROOT
HETATM    1  N2  UNL     1       6.776  33.648  77.162  1.00  0.00    -0.357 N 
HETATM    2  C6  UNL     1       5.364  33.767  77.155  1.00  0.00     0.125 C 
HETATM    3  C7  UNL     1       4.649  32.591  77.849  1.00  0.00     0.025 C 
HETATM    4  C8  UNL     1       4.971  31.386  77.038  1.00  0.00    -0.006 C 
HETATM    5  C14 UNL     1       5.805  31.756  75.893  1.00  0.00     0.036 C 
HETATM    6  C15 UNL     1       7.069  32.572  76.289  1.00  0.00     0.034 C 
HETATM    7  C16 UNL     1       7.916  31.451  76.849  1.00  0.00     0.031 C 
HETATM    8  C17 UNL     1       8.685  30.870  75.675  1.00  0.00     0.002 C 
HETATM    9  C18 UNL     1       8.470  31.730  74.487  1.00  0.00     0.002 C 
HETATM   10  C19 UNL     1       7.599  32.896  74.924  1.00  0.00     0.031 C 
ENDROOT
BRANCH   1  11
HETATM   11  C5  UNL     1       7.552  34.816  77.227  1.00  0.00     0.141 C 
BRANCH  11  12
HETATM   12  N1  UNL     1       6.783  36.077  77.259  1.00  0.00    -0.324 N 
BRANCH  12  13
HETATM   13  C2  UNL     1       6.727  36.731  76.025  1.00  0.00     0.085 C 
BRANCH  13  14
HETATM   14  C1  UNL     1       7.069  38.114  75.768  1.00  0.00     0.159 C 
HETATM   15 CL1  UNL     1       8.822  38.080  75.238  1.00  0.00    -0.125 Cl
ENDBRANCH  13  14
ENDBRANCH  12  13
BRANCH  12  16
HETATM   16  C3  UNL     1       5.949  36.387  78.302  1.00  0.00     0.085 C 
BRANCH  16  17
HETATM   17  C4  UNL     1       6.147  37.688  79.085  1.00  0.00     0.159 C 
HETATM   18 CL2  UNL     1       4.855  38.861  78.576  1.00  0.00    -0.125 Cl
ENDBRANCH  16  17
ENDBRANCH  12  16
ENDBRANCH  11  12
BRANCH  11  19
HETATM   19  C20 UNL     1       8.658  34.992  78.155  1.00  0.00     0.247 C 
HETATM   20 CL3  UNL     1       9.343  36.612  78.347  1.00  0.00    -0.075 Cl
HETATM   21 CL4  UNL     1      10.111  34.112  77.430  1.00  0.00    -0.075 Cl
HETATM   22 CL5  UNL     1       8.706  34.043  79.664  1.00  0.00    -0.075 Cl
ENDBRANCH  11  19
ENDBRANCH   1  11
BRANCH   4  23
HETATM   23  C9  UNL     1       3.687  30.706  76.637  1.00  0.00    -0.007 C 
HETATM   24  C10 UNL     1       3.129  29.980  77.842  1.00  0.00     0.032 C 
HETATM   25  C11 UNL     1       1.741  29.474  77.577  1.00  0.00     0.232 C 
HETATM   26  N3  UNL     1       1.468  29.549  76.166  1.00  0.00    -0.075 N 
HETATM   27  C12 UNL     1       2.526  28.979  75.371  1.00  0.00     0.232 C 
ATOM     28  H32 UNL     1       0.569  29.123  75.943  1.00  0.00     0.277 HD
ATOM     29  H31 UNL     1       1.269  30.508  75.880  1.00  0.00     0.277 HD
HETATM   30  C13 UNL     1       3.816  29.758  75.509  1.00  0.00     0.032 C 
ENDBRANCH   4  23
TORSDOF 8
ENDMDL
MODEL 2
REMARK VINA RESULT: -5.715583320      0.295      1.837
REMARK  8 active torsions:
REMARK  status: ('A' for Active; 'I' for Inactive)
REMARK    1  A    between atoms: C1_2  and  C2_3 
REMARK    2  A    between atoms: C2_3  and  N1_4 
REMARK    3  A    between atoms: N1_4  and  C3_5 
REMARK    4  A    between atoms: N1_4  and  C5_8 
REMARK    5  A    between atoms: C3_5  and  C4_6 
REMARK    6  A    between atoms: C5_8  and  N2_9 
REMARK    7  A    between atoms: C5_8  and  C20_27 
REMARK    8  A    between atoms: C8_12  and  C9_13 
ROOT
HETATM    1  N2  UNL     1       6.688  33.666  77.155  1.00  0.00    -0.357 N 
HETATM    2  C6  UNL     1       5.276  33.774  77.124  1.00  0.00     0.125 C 
HETATM    3  C7  UNL     1       4.558  32.607  77.831  1.00  0.00     0.025 C 
HETATM    4  C8  UNL     1       4.901  31.389  77.050  1.00  0.00    -0.006 C 
HETATM    5  C14 UNL     1       5.750  31.741  75.910  1.00  0.00     0.036 C 
HETATM    6  C15 UNL     1       7.002  32.574  76.309  1.00  0.00     0.034 C 
HETATM    7  C16 UNL     1       7.849  31.471  76.904  1.00  0.00     0.031 C 
HETATM    8  C17 UNL     1       8.639  30.872  75.754  1.00  0.00     0.002 C 
HETATM    9  C18 UNL     1       8.436  31.706  74.545  1.00  0.00     0.002 C 
HETATM   10  C19 UNL     1       7.550  32.875  74.946  1.00  0.00     0.031 C 
ENDROOT
BRANCH   1  11
HETATM   11  C5  UNL     1       7.455  34.840  77.208  1.00  0.00     0.141 C 
BRANCH  11  12
HETATM   12  N1  UNL     1       6.676  36.095  77.229  1.00  0.00    -0.324 N 
BRANCH  12  13
HETATM   13  C2  UNL     1       6.465  36.603  78.514  1.00  0.00     0.085 C 
BRANCH  13  14
HETATM   14  C1  UNL     1       5.184  36.836  79.147  1.00  0.00     0.159 C 
HETATM   15 CL1  UNL     1       4.794  38.593  78.799  1.00  0.00    -0.125 Cl
ENDBRANCH  13  14
ENDBRANCH  12  13
BRANCH  12  16
HETATM   16  C3  UNL     1       6.477  36.838  76.094  1.00  0.00     0.085 C 
BRANCH  16  17
HETATM   17  C4  UNL     1       7.033  38.262  75.999  1.00  0.00     0.159 C 
HETATM   18 CL2  UNL     1       8.673  38.182  75.218  1.00  0.00    -0.125 Cl
ENDBRANCH  16  17
ENDBRANCH  12  16
ENDBRANCH  11  12
BRANCH  11  19
HETATM   19  C20 UNL     1       8.561  35.034  78.133  1.00  0.00     0.247 C 
HETATM   20 CL3  UNL     1       9.229  36.662  78.314  1.00  0.00    -0.075 Cl
HETATM   21 CL4  UNL     1      10.022  34.165  77.411  1.00  0.00    -0.075 Cl
HETATM   22 CL5  UNL     1       8.621  34.095  79.648  1.00  0.00    -0.075 Cl
ENDBRANCH  11  19
ENDBRANCH   1  11
BRANCH   4  23
HETATM   23  C9  UNL     1       3.628  30.692  76.643  1.00  0.00    -0.007 C 
HETATM   24  C10 UNL     1       3.055  29.989  77.855  1.00  0.00     0.032 C 
HETATM   25  C11 UNL     1       1.675  29.468  77.579  1.00  0.00     0.232 C 
HETATM   26  N3  UNL     1       1.424  29.510  76.163  1.00  0.00    -0.075 N 
HETATM   27  C12 UNL     1       2.499  28.929  75.398  1.00  0.00     0.232 C 
ATOM     28  H32 UNL     1       0.532  29.073  75.935  1.00  0.00     0.277 HD
ATOM     29  H31 UNL     1       1.224  30.461  75.852  1.00  0.00     0.277 HD
HETATM   30  C13 UNL     1       3.781  29.719  75.540  1.00  0.00     0.032 C 
ENDBRANCH   4  23
TORSDOF 8
ENDMDL
MODEL 3
REMARK VINA RESULT: -5.554324120      2.813      5.663
REMARK  8 active torsions:
REMARK  status: ('A' for Active; 'I' for Inactive)
REMARK    1  A    between atoms: C1_2  and  C2_3 
REMARK    2  A    between atoms: C2_3  and  N1_4 
REMARK    3  A    between atoms: N1_4  and  C3_5 
REMARK    4  A    between atoms: N1_4  and  C5_8 
REMARK    5  A    between atoms: C3_5  and  C4_6 
REMARK    6  A    between atoms: C5_8  and  N2_9 
REMARK    7  A    between atoms: C5_8  and  C20_27 
REMARK    8  A    between atoms: C8_12  and  C9_13 
ROOT
HETATM    1  N2  UNL     1       8.063  34.278  77.354  1.00  0.00    -0.357 N 
HETATM    2  C6  UNL     1       9.154  33.748  78.085  1.00  0.00     0.125 C 
HETATM    3  C7  UNL     1      10.369  33.399  77.202  1.00  0.00     0.025 C 
HETATM    4  C8  UNL     1       9.909  32.314  76.294  1.00  0.00    -0.006 C 
HETATM    5  C14 UNL     1       8.517  31.968  76.584  1.00  0.00     0.036 C 
HETATM    6  C15 UNL     1       7.563  33.198  76.585  1.00  0.00     0.034 C 
HETATM    7  C16 UNL     1       7.448  33.418  75.094  1.00  0.00     0.031 C 
HETATM    8  C17 UNL     1       6.295  32.550  74.622  1.00  0.00     0.002 C 
HETATM    9  C18 UNL     1       5.606  31.982  75.805  1.00  0.00     0.002 C 
HETATM   10  C19 UNL     1       6.297  32.536  77.041  1.00  0.00     0.031 C 
ENDROOT
BRANCH   1  11
HETATM   11  C5  UNL     1       7.234  35.228  77.970  1.00  0.00     0.141 C 
BRANCH  11  12
HETATM   12  N1  UNL     1       7.292  35.245  79.446  1.00  0.00    -0.324 N 
BRANCH  12  13
HETATM   13  C2  UNL     1       6.305  34.465  80.055  1.00  0.00     0.085 C 
BRANCH  13  14
HETATM   14  C1  UNL     1       4.984  34.905  80.453  1.00  0.00     0.159 C 
HETATM   15 CL1  UNL     1       3.881  34.406  79.078  1.00  0.00    -0.125 Cl
ENDBRANCH  13  14
ENDBRANCH  12  13
BRANCH  12  16
HETATM   16  C3  UNL     1       8.392  35.709  80.119  1.00  0.00     0.085 C 
BRANCH  16  17
HETATM   17  C4  UNL     1       8.227  36.428  81.461  1.00  0.00     0.159 C 
HETATM   18 CL2  UNL     1       8.508  35.223  82.792  1.00  0.00    -0.125 Cl
ENDBRANCH  16  17
ENDBRANCH  12  16
ENDBRANCH  11  12
BRANCH  11  19
HETATM   19  C20 UNL     1       7.160  36.619  77.552  1.00  0.00     0.247 C 
HETATM   20 CL3  UNL     1       6.224  37.747  78.542  1.00  0.00    -0.075 Cl
HETATM   21 CL4  UNL     1       6.169  36.659  75.994  1.00  0.00    -0.075 Cl
HETATM   22 CL5  UNL     1       8.577  37.389  76.790  1.00  0.00    -0.075 Cl
ENDBRANCH  11  19
ENDBRANCH   1  11
BRANCH   4  23
HETATM   23  C9  UNL     1      10.846  31.140  76.418  1.00  0.00    -0.007 C 
HETATM   24  C10 UNL     1      12.174  31.637  76.948  1.00  0.00     0.032 C 
HETATM   25  C11 UNL     1      13.076  30.493  77.311  1.00  0.00     0.232 C 
HETATM   26  N3  UNL     1      12.545  29.275  76.762  1.00  0.00    -0.075 N 
HETATM   27  C12 UNL     1      12.198  29.406  75.369  1.00  0.00     0.232 C 
ATOM     28  H32 UNL     1      13.185  28.495  76.909  1.00  0.00     0.277 HD
ATOM     29  H31 UNL     1      11.752  28.939  77.308  1.00  0.00     0.277 HD
HETATM   30  C13 UNL     1      11.069  30.392  75.161  1.00  0.00     0.032 C 
ENDBRANCH   4  23
TORSDOF 8
ENDMDL
MODEL 4
REMARK VINA RESULT: -5.551755336      2.737      5.442
REMARK  8 active torsions:
REMARK  status: ('A' for Active; 'I' for Inactive)
REMARK    1  A    between atoms: C1_2  and  C2_3 
REMARK    2  A    between atoms: C2_3  and  N1_4 
REMARK    3  A    between atoms: N1_4  and  C3_5 
REMARK    4  A    between atoms: N1_4  and  C5_8 
REMARK    5  A    between atoms: C3_5  and  C4_6 
REMARK    6  A    between atoms: C5_8  and  N2_9 
REMARK    7  A    between atoms: C5_8  and  C20_27 
REMARK    8  A    between atoms: C8_12  and  C9_13 
ROOT
HETATM    1  N2  UNL     1       8.163  34.081  76.940  1.00  0.00    -0.357 N 
HETATM    2  C6  UNL     1       9.358  33.544  77.479  1.00  0.00     0.125 C 
HETATM    3  C7  UNL     1      10.418  33.217  76.409  1.00  0.00     0.025 C 
HETATM    4  C8  UNL     1       9.823  32.146  75.565  1.00  0.00    -0.006 C 
HETATM    5  C14 UNL     1       8.495  31.787  76.066  1.00  0.00     0.036 C 
HETATM    6  C15 UNL     1       7.550  33.012  76.241  1.00  0.00     0.034 C 
HETATM    7  C16 UNL     1       7.199  33.257  74.791  1.00  0.00     0.031 C 
HETATM    8  C17 UNL     1       5.988  32.392  74.492  1.00  0.00     0.002 C 
HETATM    9  C18 UNL     1       5.497  31.799  75.759  1.00  0.00     0.002 C 
HETATM   10  C19 UNL     1       6.374  32.335  76.879  1.00  0.00     0.031 C 
ENDROOT
BRANCH   1  11
HETATM   11  C5  UNL     1       7.440  35.015  77.697  1.00  0.00     0.141 C 
BRANCH  11  12
HETATM   12  N1  UNL     1       7.610  34.901  79.160  1.00  0.00    -0.324 N 
BRANCH  12  13
HETATM   13  C2  UNL     1       6.609  34.150  79.784  1.00  0.00     0.085 C 
BRANCH  13  14
HETATM   14  C1  UNL     1       5.355  34.652  80.306  1.00  0.00     0.159 C 
HETATM   15 CL1  UNL     1       4.137  34.373  78.966  1.00  0.00    -0.125 Cl
ENDBRANCH  13  14
ENDBRANCH  12  13
BRANCH  12  16
HETATM   16  C3  UNL     1       8.793  35.219  79.775  1.00  0.00     0.085 C 
BRANCH  16  17
HETATM   17  C4  UNL     1       8.937  35.065  81.292  1.00  0.00     0.159 C 
HETATM   18 CL2  UNL     1       8.225  36.538  82.084  1.00  0.00    -0.125 Cl
ENDBRANCH  16  17
ENDBRANCH  12  16
ENDBRANCH  11  12
BRANCH  11  19
HETATM   19  C20 UNL     1       7.416  36.440  77.402  1.00  0.00     0.247 C 
HETATM   20 CL3  UNL     1       6.677  37.530  78.583  1.00  0.00    -0.075 Cl
HETATM   21 CL4  UNL     1       6.260  36.673  75.981  1.00  0.00    -0.075 Cl
HETATM   22 CL5  UNL     1       8.788  37.187  76.542  1.00  0.00    -0.075 Cl
ENDBRANCH  11  19
ENDBRANCH   1  11
BRANCH   4  23
HETATM   23  C9  UNL     1      10.770  30.975  75.518  1.00  0.00    -0.007 C 
HETATM   24  C10 UNL     1       9.988  29.710  75.798  1.00  0.00     0.032 C 
HETATM   25  C11 UNL     1      10.820  28.488  75.540  1.00  0.00     0.232 C 
HETATM   26  N3  UNL     1      12.200  28.871  75.408  1.00  0.00    -0.075 N 
HETATM   27  C12 UNL     1      12.635  29.735  76.477  1.00  0.00     0.232 C 
ATOM     28  H32 UNL     1      12.803  28.052  75.328  1.00  0.00     0.277 HD
ATOM     29  H31 UNL     1      12.380  29.293  74.497  1.00  0.00     0.277 HD
HETATM   30  C13 UNL     1      11.910  31.063  76.455  1.00  0.00     0.032 C 
ENDBRANCH   4  23
TORSDOF 8
ENDMDL
MODEL 5
REMARK VINA RESULT: -5.546847774      2.781      5.379
REMARK  8 active torsions:
REMARK  status: ('A' for Active; 'I' for Inactive)
REMARK    1  A    between atoms: C1_2  and  C2_3 
REMARK    2  A    between atoms: C2_3  and  N1_4 
REMARK    3  A    between atoms: N1_4  and  C3_5 
REMARK    4  A    between atoms: N1_4  and  C5_8 
REMARK    5  A    between atoms: C3_5  and  C4_6 
REMARK    6  A    between atoms: C5_8  and  N2_9 
REMARK    7  A    between atoms: C5_8  and  C20_27 
REMARK    8  A    between atoms: C8_12  and  C9_13 
ROOT
HETATM    1  N2  UNL     1       8.457  33.896  76.720  1.00  0.00    -0.357 N 
HETATM    2  C6  UNL     1       9.680  33.327  77.154  1.00  0.00     0.125 C 
HETATM    3  C7  UNL     1      10.586  32.870  75.994  1.00  0.00     0.025 C 
HETATM    4  C8  UNL     1       9.842  31.783  75.304  1.00  0.00    -0.006 C 
HETATM    5  C14 UNL     1       8.567  31.535  75.979  1.00  0.00     0.036 C 
HETATM    6  C15 UNL     1       7.713  32.821  76.175  1.00  0.00     0.034 C 
HETATM    7  C16 UNL     1       7.204  32.992  74.761  1.00  0.00     0.031 C 
HETATM    8  C17 UNL     1       5.923  32.180  74.667  1.00  0.00     0.002 C 
HETATM    9  C18 UNL     1       5.559  31.700  76.022  1.00  0.00     0.002 C 
HETATM   10  C19 UNL     1       6.589  32.256  76.992  1.00  0.00     0.031 C 
ENDROOT
BRANCH   1  11
HETATM   11  C5  UNL     1       7.877  34.918  77.487  1.00  0.00     0.141 C 
BRANCH  11  12
HETATM   12  N1  UNL     1       8.609  36.202  77.476  1.00  0.00    -0.324 N 
BRANCH  12  13
HETATM   13  C2  UNL     1       9.183  36.531  78.707  1.00  0.00     0.085 C 
BRANCH  13  14
HETATM   14  C1  UNL     1       9.302  35.663  79.860  1.00  0.00     0.159 C 
HETATM   15 CL1  UNL     1       8.242  36.429  81.143  1.00  0.00    -0.125 Cl
ENDBRANCH  13  14
ENDBRANCH  12  13
BRANCH  12  16
HETATM   16  C3  UNL     1       8.956  36.822  76.304  1.00  0.00     0.085 C 
BRANCH  16  17
HETATM   17  C4  UNL     1       8.202  38.072  75.842  1.00  0.00     0.159 C 
HETATM   18 CL2  UNL     1       9.122  38.815  74.461  1.00  0.00    -0.125 Cl
ENDBRANCH  16  17
ENDBRANCH  12  16
ENDBRANCH  11  12
BRANCH  11  19
HETATM   19  C20 UNL     1       6.463  35.257  77.433  1.00  0.00     0.247 C 
HETATM   20 CL3  UNL     1       5.755  35.658  75.863  1.00  0.00    -0.075 Cl
HETATM   21 CL4  UNL     1       6.267  36.877  78.298  1.00  0.00    -0.075 Cl
HETATM   22 CL5  UNL     1       5.313  34.426  78.513  1.00  0.00    -0.075 Cl
ENDBRANCH  11  19
ENDBRANCH   1  11
BRANCH   4  23
HETATM   23  C9  UNL     1      10.717  30.559  75.230  1.00  0.00    -0.007 C 
HETATM   24  C10 UNL     1       9.930  29.371  75.742  1.00  0.00     0.032 C 
HETATM   25  C11 UNL     1      10.658  28.085  75.484  1.00  0.00     0.232 C 
HETATM   26  N3  UNL     1      12.018  28.372  75.115  1.00  0.00    -0.075 N 
HETATM   27  C12 UNL     1      12.648  29.301  76.020  1.00  0.00     0.232 C 
ATOM     28  H32 UNL     1      12.564  27.516  75.027  1.00  0.00     0.277 HD
ATOM     29  H31 UNL     1      12.076  28.702  74.151  1.00  0.00     0.277 HD
HETATM   30  C13 UNL     1      11.989  30.662  75.978  1.00  0.00     0.032 C 
ENDBRANCH   4  23
TORSDOF 8
ENDMDL
