MODEL 1
REMARK VINA RESULT: -9.223629807      0.000      0.000
REMARK  8 active torsions:
REMARK  status: ('A' for Active; 'I' for Inactive)
REMARK    1  A    between atoms: C1_2  and  C2_3 
REMARK       I    between atoms: C1_2  and  N6_27 
REMARK    2  A    between atoms: C2_3  and  C3_4 
REMARK    3  A    between atoms: C3_4  and  C4_5 
REMARK    4  A    between atoms: C4_5  and  C5_6 
REMARK    5  A    between atoms: C5_6  and  N1_7 
REMARK       I    between atoms: N1_7  and  C6_9 
REMARK    6  A    between atoms: C6_9  and  C7_11 
REMARK    7  A    between atoms: C11_23  and  C12_24 
REMARK    8  A    between atoms: N6_27  and  C15_29 
ROOT
HETATM    1  N1  UNL     1      34.259  40.534  32.798  1.00  0.00    -0.357 N 
ATOM      2  H1  UNL     1      33.908  41.375  33.255  1.00  0.00     0.162 HD
HETATM    3  C6  UNL     1      35.527  40.585  32.204  1.00  0.00     0.255 C 
HETATM    4  O2  UNL     1      36.075  39.622  31.607  1.00  0.00    -0.268 OA
ENDROOT
BRANCH   3   5
HETATM    5  C7  UNL     1      36.296  41.818  32.260  1.00  0.00     0.072 A 
HETATM    6  C8  UNL     1      36.019  42.855  31.418  1.00  0.00     0.109 A 
HETATM    7  N2  UNL     1      36.731  43.973  31.485  1.00  0.00    -0.347 N 
HETATM    8  C9  UNL     1      37.713  44.052  32.388  1.00  0.00     0.164 A 
ATOM      9  H2  UNL     1      36.532  44.755  30.861  1.00  0.00     0.167 HD
HETATM   10  C10 UNL     1      38.589  45.076  32.668  1.00  0.00     0.142 A 
HETATM   11  N5  UNL     1      38.001  43.031  33.233  1.00  0.00    -0.226 N 
HETATM   12 BR1  UNL     1      38.650  46.759  31.794  1.00  0.00    -0.026 Br
HETATM   13  N3  UNL     1      39.385  44.672  33.661  1.00  0.00    -0.275 N 
HETATM   14  N4  UNL     1      39.005  43.463  33.963  1.00  0.00    -0.233 N 
ATOM     15  H3  UNL     1      40.139  45.204  34.096  1.00  0.00     0.189 HD
ATOM     16  H4  UNL     1      39.444  42.905  34.696  1.00  0.00     0.209 HD
HETATM   17  C11 UNL     1      37.320  41.870  33.220  1.00  0.00     0.059 A 
BRANCH  17  18
HETATM   18  C12 UNL     1      37.585  40.728  34.094  1.00  0.00     0.039 A 
HETATM   19  C13 UNL     1      38.894  40.183  34.438  1.00  0.00     0.011 A 
HETATM   20  C14 UNL     1      38.053  40.905  35.491  1.00  0.00     0.011 A 
ENDBRANCH  17  18
ENDBRANCH   3   5
BRANCH   1  21
HETATM   21  C5  UNL     1      33.416  39.355  32.802  1.00  0.00     0.123 C 
BRANCH  21  22
HETATM   22  C4  UNL     1      31.947  39.711  33.017  1.00  0.00     0.020 C 
BRANCH  22  23
HETATM   23  C3  UNL     1      31.741  40.041  34.451  1.00  0.00     0.011 C 
BRANCH  23  24
HETATM   24  C2  UNL     1      30.324  40.054  34.905  1.00  0.00     0.103 C 
BRANCH  24  25
HETATM   25  C1  UNL     1      30.033  41.239  35.719  1.00  0.00     0.217 C 
HETATM   26  O1  UNL     1      30.939  41.993  36.150  1.00  0.00    -0.274 OA
HETATM   27  N6  UNL     1      28.677  41.594  36.065  1.00  0.00    -0.356 N 
ATOM     28  H6  UNL     1      27.897  41.021  35.743  1.00  0.00     0.162 HD
BRANCH  27  29
HETATM   29  C15 UNL     1      28.438  42.749  36.859  1.00  0.00     0.084 C 
HETATM   30  C16 UNL     1      27.466  42.416  37.968  1.00  0.00     0.025 C 
HETATM   31  C17 UNL     1      26.816  43.684  38.430  1.00  0.00     0.002 C 
HETATM   32  C18 UNL     1      27.684  44.908  38.309  1.00  0.00     0.000 C 
HETATM   33  C19 UNL     1      28.091  45.160  36.876  1.00  0.00     0.002 C 
HETATM   34  C20 UNL     1      27.854  43.903  36.069  1.00  0.00     0.025 C 
ENDBRANCH  27  29
ENDBRANCH  24  25
ENDBRANCH  23  24
ENDBRANCH  22  23
ENDBRANCH  21  22
ENDBRANCH   1  21
TORSDOF 8
ENDMDL
MODEL 2
REMARK VINA RESULT: -8.886636280      4.094      6.757
REMARK  8 active torsions:
REMARK  status: ('A' for Active; 'I' for Inactive)
REMARK    1  A    between atoms: C1_2  and  C2_3 
REMARK       I    between atoms: C1_2  and  N6_27 
REMARK    2  A    between atoms: C2_3  and  C3_4 
REMARK    3  A    between atoms: C3_4  and  C4_5 
REMARK    4  A    between atoms: C4_5  and  C5_6 
REMARK    5  A    between atoms: C5_6  and  N1_7 
REMARK       I    between atoms: N1_7  and  C6_9 
REMARK    6  A    between atoms: C6_9  and  C7_11 
REMARK    7  A    between atoms: C11_23  and  C12_24 
REMARK    8  A    between atoms: N6_27  and  C15_29 
ROOT
HETATM    1  N1  UNL     1      39.487  43.847  35.193  1.00  0.00    -0.357 N 
ATOM      2  H1  UNL     1      38.534  44.016  35.515  1.00  0.00     0.162 HD
HETATM    3  C6  UNL     1      40.197  44.921  34.641  1.00  0.00     0.255 C 
HETATM    4  O2  UNL     1      41.374  44.848  34.204  1.00  0.00    -0.268 OA
ENDROOT
BRANCH   3   5
HETATM    5  C7  UNL     1      39.565  46.227  34.550  1.00  0.00     0.072 A 
HETATM    6  C8  UNL     1      39.699  47.142  35.553  1.00  0.00     0.109 A 
HETATM    7  N2  UNL     1      39.117  48.329  35.451  1.00  0.00    -0.347 N 
HETATM    8  C9  UNL     1      38.404  48.600  34.353  1.00  0.00     0.164 A 
ATOM      9  H2  UNL     1      39.211  49.022  36.195  1.00  0.00     0.167 HD
HETATM   10  C10 UNL     1      37.709  49.733  33.996  1.00  0.00     0.142 A 
HETATM   11  N5  UNL     1      38.260  47.703  33.347  1.00  0.00    -0.226 N 
HETATM   12 BR1  UNL     1      37.560  51.319  35.027  1.00  0.00    -0.026 Br
HETATM   13  N3  UNL     1      37.161  49.515  32.799  1.00  0.00    -0.275 N 
HETATM   14  N4  UNL     1      37.510  48.307  32.453  1.00  0.00    -0.233 N 
ATOM     15  H3  UNL     1      36.584  50.162  32.261  1.00  0.00     0.189 HD
ATOM     16  H4  UNL     1      37.228  47.873  31.574  1.00  0.00     0.209 HD
HETATM   17  C11 UNL     1      38.824  46.480  33.384  1.00  0.00     0.059 A 
BRANCH  17  18
HETATM   18  C12 UNL     1      38.701  45.464  32.340  1.00  0.00     0.039 A 
HETATM   19  C13 UNL     1      37.595  45.314  31.400  1.00  0.00     0.011 A 
HETATM   20  C14 UNL     1      38.969  45.773  30.913  1.00  0.00     0.011 A 
ENDBRANCH  17  18
ENDBRANCH   3   5
BRANCH   1  21
HETATM   21  C5  UNL     1      40.025  42.509  35.333  1.00  0.00     0.123 C 
BRANCH  21  22
HETATM   22  C4  UNL     1      39.399  41.539  34.333  1.00  0.00     0.020 C 
BRANCH  22  23
HETATM   23  C3  UNL     1      37.992  41.950  34.089  1.00  0.00     0.011 C 
BRANCH  23  24
HETATM   24  C2  UNL     1      37.594  42.045  32.658  1.00  0.00     0.103 C 
BRANCH  24  25
HETATM   25  C1  UNL     1      36.168  41.750  32.478  1.00  0.00     0.217 C 
HETATM   26  O1  UNL     1      35.484  42.288  31.575  1.00  0.00    -0.274 OA
HETATM   27  N6  UNL     1      35.483  40.817  33.341  1.00  0.00    -0.356 N 
ATOM     28  H6  UNL     1      35.987  40.346  34.092  1.00  0.00     0.162 HD
BRANCH  27  29
HETATM   29  C15 UNL     1      34.101  40.561  33.134  1.00  0.00     0.084 C 
HETATM   30  C16 UNL     1      33.402  40.416  34.467  1.00  0.00     0.025 C 
HETATM   31  C17 UNL     1      32.141  39.634  34.263  1.00  0.00     0.002 C 
HETATM   32  C18 UNL     1      31.505  39.820  32.911  1.00  0.00     0.000 C 
HETATM   33  C19 UNL     1      32.433  39.391  31.799  1.00  0.00     0.002 C 
HETATM   34  C20 UNL     1      33.842  39.295  32.342  1.00  0.00     0.025 C 
ENDBRANCH  27  29
ENDBRANCH  24  25
ENDBRANCH  23  24
ENDBRANCH  22  23
ENDBRANCH  21  22
ENDBRANCH   1  21
TORSDOF 8
ENDMDL
MODEL 3
REMARK VINA RESULT: -8.693023153      4.881      7.399
REMARK  8 active torsions:
REMARK  status: ('A' for Active; 'I' for Inactive)
REMARK    1  A    between atoms: C1_2  and  C2_3 
REMARK       I    between atoms: C1_2  and  N6_27 
REMARK    2  A    between atoms: C2_3  and  C3_4 
REMARK    3  A    between atoms: C3_4  and  C4_5 
REMARK    4  A    between atoms: C4_5  and  C5_6 
REMARK    5  A    between atoms: C5_6  and  N1_7 
REMARK       I    between atoms: N1_7  and  C6_9 
REMARK    6  A    between atoms: C6_9  and  C7_11 
REMARK    7  A    between atoms: C11_23  and  C12_24 
REMARK    8  A    between atoms: N6_27  and  C15_29 
ROOT
HETATM    1  N1  UNL     1      39.317  45.464  33.905  1.00  0.00    -0.357 N 
ATOM      2  H1  UNL     1      38.408  45.574  34.355  1.00  0.00     0.162 HD
HETATM    3  C6  UNL     1      40.332  44.812  34.617  1.00  0.00     0.255 C 
HETATM    4  O2  UNL     1      41.495  44.612  34.181  1.00  0.00    -0.268 OA
ENDROOT
BRANCH   3   5
HETATM    5  C7  UNL     1      40.062  44.314  35.956  1.00  0.00     0.072 A 
HETATM    6  C8  UNL     1      40.126  45.143  37.038  1.00  0.00     0.109 A 
HETATM    7  N2  UNL     1      39.874  44.671  38.252  1.00  0.00    -0.347 N 
HETATM    8  C9  UNL     1      39.563  43.377  38.383  1.00  0.00     0.164 A 
ATOM      9  H2  UNL     1      39.918  45.281  39.068  1.00  0.00     0.167 HD
HETATM   10  C10 UNL     1      39.261  42.641  39.506  1.00  0.00     0.142 A 
HETATM   11  N5  UNL     1      39.495  42.539  37.319  1.00  0.00    -0.226 N 
HETATM   12 BR1  UNL     1      39.202  43.296  41.285  1.00  0.00    -0.026 Br
HETATM   13  N3  UNL     1      39.018  41.387  39.118  1.00  0.00    -0.275 N 
HETATM   14  N4  UNL     1      39.168  41.371  37.823  1.00  0.00    -0.233 N 
ATOM     15  H3  UNL     1      38.766  40.598  39.714  1.00  0.00     0.189 HD
ATOM     16  H4  UNL     1      39.043  40.532  37.255  1.00  0.00     0.209 HD
HETATM   17  C11 UNL     1      39.737  42.951  36.060  1.00  0.00     0.059 A 
BRANCH  17  18
HETATM   18  C12 UNL     1      39.692  42.100  34.872  1.00  0.00     0.039 A 
HETATM   19  C13 UNL     1      40.306  40.785  34.722  1.00  0.00     0.011 A 
HETATM   20  C14 UNL     1      38.785  40.928  34.785  1.00  0.00     0.011 A 
ENDBRANCH  17  18
ENDBRANCH   3   5
BRANCH   1  21
HETATM   21  C5  UNL     1      39.481  45.992  32.565  1.00  0.00     0.123 C 
BRANCH  21  22
HETATM   22  C4  UNL     1      38.202  45.852  31.742  1.00  0.00     0.020 C 
BRANCH  22  23
HETATM   23  C3  UNL     1      38.083  44.445  31.282  1.00  0.00     0.011 C 
BRANCH  23  24
HETATM   24  C2  UNL     1      37.664  43.466  32.322  1.00  0.00     0.103 C 
BRANCH  24  25
HETATM   25  C1  UNL     1      36.453  42.743  31.920  1.00  0.00     0.217 C 
HETATM   26  O1  UNL     1      35.775  43.079  30.919  1.00  0.00    -0.274 OA
HETATM   27  N6  UNL     1      35.982  41.601  32.667  1.00  0.00    -0.356 N 
ATOM     28  H6  UNL     1      36.492  41.279  33.490  1.00  0.00     0.162 HD
BRANCH  27  29
HETATM   29  C15 UNL     1      34.803  40.929  32.246  1.00  0.00     0.084 C 
HETATM   30  C16 UNL     1      33.906  40.674  33.437  1.00  0.00     0.025 C 
HETATM   31  C17 UNL     1      32.986  39.538  33.108  1.00  0.00     0.002 C 
HETATM   32  C18 UNL     1      32.626  39.432  31.650  1.00  0.00     0.000 C 
HETATM   33  C19 UNL     1      33.851  39.224  30.790  1.00  0.00     0.002 C 
HETATM   34  C20 UNL     1      35.082  39.593  31.588  1.00  0.00     0.025 C 
ENDBRANCH  27  29
ENDBRANCH  24  25
ENDBRANCH  23  24
ENDBRANCH  22  23
ENDBRANCH  21  22
ENDBRANCH   1  21
TORSDOF 8
ENDMDL
MODEL 4
REMARK VINA RESULT: -8.624178579      5.927      9.253
REMARK  8 active torsions:
REMARK  status: ('A' for Active; 'I' for Inactive)
REMARK    1  A    between atoms: C1_2  and  C2_3 
REMARK       I    between atoms: C1_2  and  N6_27 
REMARK    2  A    between atoms: C2_3  and  C3_4 
REMARK    3  A    between atoms: C3_4  and  C4_5 
REMARK    4  A    between atoms: C4_5  and  C5_6 
REMARK    5  A    between atoms: C5_6  and  N1_7 
REMARK       I    between atoms: N1_7  and  C6_9 
REMARK    6  A    between atoms: C6_9  and  C7_11 
REMARK    7  A    between atoms: C11_23  and  C12_24 
REMARK    8  A    between atoms: N6_27  and  C15_29 
ROOT
HETATM    1  N1  UNL     1      40.087  39.142  36.469  1.00  0.00    -0.357 N 
ATOM      2  H1  UNL     1      39.226  38.929  35.966  1.00  0.00     0.162 HD
HETATM    3  C6  UNL     1      40.423  38.344  37.571  1.00  0.00     0.255 C 
HETATM    4  O2  UNL     1      41.451  38.498  38.277  1.00  0.00    -0.268 OA
ENDROOT
BRANCH   3   5
HETATM    5  C7  UNL     1      39.547  37.248  37.955  1.00  0.00     0.072 A 
HETATM    6  C8  UNL     1      38.486  37.458  38.787  1.00  0.00     0.109 A 
HETATM    7  N2  UNL     1      37.697  36.447  39.125  1.00  0.00    -0.347 N 
HETATM    8  C9  UNL     1      37.968  35.233  38.636  1.00  0.00     0.164 A 
ATOM      9  H2  UNL     1      36.900  36.592  39.746  1.00  0.00     0.167 HD
HETATM   10  C10 UNL     1      37.324  34.031  38.821  1.00  0.00     0.142 A 
HETATM   11  N5  UNL     1      39.018  35.006  37.808  1.00  0.00    -0.226 N 
HETATM   12 BR1  UNL     1      35.782  33.747  39.888  1.00  0.00    -0.026 Br
HETATM   13  N3  UNL     1      37.978  33.105  38.116  1.00  0.00    -0.275 N 
HETATM   14  N4  UNL     1      38.969  33.722  37.536  1.00  0.00    -0.233 N 
ATOM     15  H3  UNL     1      37.750  32.113  38.046  1.00  0.00     0.189 HD
ATOM     16  H4  UNL     1      39.642  33.253  36.929  1.00  0.00     0.209 HD
HETATM   17  C11 UNL     1      39.858  35.986  37.424  1.00  0.00     0.059 A 
BRANCH  17  18
HETATM   18  C12 UNL     1      41.012  35.809  36.544  1.00  0.00     0.039 A 
HETATM   19  C13 UNL     1      42.314  35.266  36.918  1.00  0.00     0.011 A 
HETATM   20  C14 UNL     1      41.381  34.479  35.996  1.00  0.00     0.011 A 
ENDBRANCH  17  18
ENDBRANCH   3   5
BRANCH   1  21
HETATM   21  C5  UNL     1      40.893  40.252  36.001  1.00  0.00     0.123 C 
BRANCH  21  22
HETATM   22  C4  UNL     1      40.434  40.746  34.631  1.00  0.00     0.020 C 
BRANCH  22  23
HETATM   23  C3  UNL     1      38.959  40.921  34.657  1.00  0.00     0.011 C 
BRANCH  23  24
HETATM   24  C2  UNL     1      38.450  42.145  33.980  1.00  0.00     0.103 C 
BRANCH  24  25
HETATM   25  C1  UNL     1      37.174  41.890  33.301  1.00  0.00     0.217 C 
HETATM   26  O1  UNL     1      36.556  42.789  32.682  1.00  0.00    -0.274 OA
HETATM   27  N6  UNL     1      36.568  40.581  33.318  1.00  0.00    -0.356 N 
ATOM     28  H6  UNL     1      37.023  39.809  33.804  1.00  0.00     0.162 HD
BRANCH  27  29
HETATM   29  C15 UNL     1      35.329  40.376  32.651  1.00  0.00     0.084 C 
HETATM   30  C16 UNL     1      34.198  40.392  33.654  1.00  0.00     0.025 C 
HETATM   31  C17 UNL     1      33.030  39.658  33.069  1.00  0.00     0.002 C 
HETATM   32  C18 UNL     1      32.926  39.749  31.569  1.00  0.00     0.000 C 
HETATM   33  C19 UNL     1      34.148  39.171  30.893  1.00  0.00     0.002 C 
HETATM   34  C20 UNL     1      35.264  39.057  31.908  1.00  0.00     0.025 C 
ENDBRANCH  27  29
ENDBRANCH  24  25
ENDBRANCH  23  24
ENDBRANCH  22  23
ENDBRANCH  21  22
ENDBRANCH   1  21
TORSDOF 8
ENDMDL
MODEL 5
REMARK VINA RESULT: -8.579300019      5.623      8.743
REMARK  8 active torsions:
REMARK  status: ('A' for Active; 'I' for Inactive)
REMARK    1  A    between atoms: C1_2  and  C2_3 
REMARK       I    between atoms: C1_2  and  N6_27 
REMARK    2  A    between atoms: C2_3  and  C3_4 
REMARK    3  A    between atoms: C3_4  and  C4_5 
REMARK    4  A    between atoms: C4_5  and  C5_6 
REMARK    5  A    between atoms: C5_6  and  N1_7 
REMARK       I    between atoms: N1_7  and  C6_9 
REMARK    6  A    between atoms: C6_9  and  C7_11 
REMARK    7  A    between atoms: C11_23  and  C12_24 
REMARK    8  A    between atoms: N6_27  and  C15_29 
ROOT
HETATM    1  N1  UNL     1      39.785  39.831  36.177  1.00  0.00    -0.357 N 
ATOM      2  H1  UNL     1      40.286  39.715  35.296  1.00  0.00     0.162 HD
HETATM    3  C6  UNL     1      40.185  39.054  37.272  1.00  0.00     0.255 C 
HETATM    4  O2  UNL     1      39.652  39.096  38.410  1.00  0.00    -0.268 OA
ENDROOT
BRANCH   3   5
HETATM    5  C7  UNL     1      41.291  38.121  37.123  1.00  0.00     0.072 A 
HETATM    6  C8  UNL     1      42.583  38.555  37.163  1.00  0.00     0.109 A 
HETATM    7  N2  UNL     1      43.579  37.689  37.027  1.00  0.00    -0.347 N 
HETATM    8  C9  UNL     1      43.284  36.397  36.851  1.00  0.00     0.164 A 
ATOM      9  H2  UNL     1      44.550  38.002  37.057  1.00  0.00     0.167 HD
HETATM   10  C10 UNL     1      44.107  35.307  36.687  1.00  0.00     0.142 A 
HETATM   11  N5  UNL     1      42.005  35.949  36.808  1.00  0.00    -0.226 N 
HETATM   12 BR1  UNL     1      46.004  35.337  36.662  1.00  0.00    -0.026 Br
HETATM   13  N3  UNL     1      43.333  34.228  36.549  1.00  0.00    -0.275 N 
HETATM   14  N4  UNL     1      42.102  34.651  36.626  1.00  0.00    -0.233 N 
ATOM     15  H3  UNL     1      43.641  33.265  36.411  1.00  0.00     0.189 HD
ATOM     16  H4  UNL     1      41.293  34.034  36.552  1.00  0.00     0.209 HD
HETATM   17  C11 UNL     1      40.947  36.771  36.939  1.00  0.00     0.059 A 
BRANCH  17  18
HETATM   18  C12 UNL     1      39.546  36.356  36.893  1.00  0.00     0.039 A 
HETATM   19  C13 UNL     1      39.048  35.006  36.651  1.00  0.00     0.011 A 
HETATM   20  C14 UNL     1      38.902  35.651  38.030  1.00  0.00     0.011 A 
ENDBRANCH  17  18
ENDBRANCH   3   5
BRANCH   1  21
HETATM   21  C5  UNL     1      38.700  40.791  36.221  1.00  0.00     0.123 C 
BRANCH  21  22
HETATM   22  C4  UNL     1      38.966  41.987  35.311  1.00  0.00     0.020 C 
BRANCH  22  23
HETATM   23  C3  UNL     1      38.518  41.648  33.936  1.00  0.00     0.011 C 
BRANCH  23  24
HETATM   24  C2  UNL     1      37.830  42.744  33.200  1.00  0.00     0.103 C 
BRANCH  24  25
HETATM   25  C1  UNL     1      36.557  42.290  32.630  1.00  0.00     0.217 C 
HETATM   26  O1  UNL     1      35.914  42.976  31.800  1.00  0.00    -0.274 OA
HETATM   27  N6  UNL     1      35.981  41.020  33.004  1.00  0.00    -0.356 N 
ATOM     28  H6  UNL     1      36.458  40.417  33.674  1.00  0.00     0.162 HD
BRANCH  27  29
HETATM   29  C15 UNL     1      34.744  40.619  32.432  1.00  0.00     0.084 C 
HETATM   30  C16 UNL     1      33.721  40.397  33.524  1.00  0.00     0.025 C 
HETATM   31  C17 UNL     1      32.654  39.485  33.001  1.00  0.00     0.002 C 
HETATM   32  C18 UNL     1      32.403  39.605  31.522  1.00  0.00     0.000 C 
HETATM   33  C19 UNL     1      33.643  39.279  30.721  1.00  0.00     0.002 C 
HETATM   34  C20 UNL     1      34.847  39.334  31.634  1.00  0.00     0.025 C 
ENDBRANCH  27  29
ENDBRANCH  24  25
ENDBRANCH  23  24
ENDBRANCH  22  23
ENDBRANCH  21  22
ENDBRANCH   1  21
TORSDOF 8
ENDMDL
