MODEL 1
REMARK VINA RESULT: -8.199842971      0.000      0.000
REMARK  5 active torsions:
REMARK  status: ('A' for Active; 'I' for Inactive)
REMARK    1  A    between atoms: N5_15  and  C6_16 
REMARK    2  A    between atoms: C6_16  and  C7_17 
REMARK    3  A    between atoms: N7_20  and  C8_21 
REMARK    4  A    between atoms: C8_21  and  C9_22 
REMARK    5  A    between atoms: C10_30  and  N12_31 
ROOT
HETATM    1  C7  UNL     1      13.585  47.217 -49.569  1.00  0.00     0.131 A 
HETATM    2  N6  UNL     1      13.731  47.307 -48.235  1.00  0.00    -0.270 N 
ATOM      3  H6  UNL     1      14.025  46.547 -47.622  1.00  0.00     0.189 HD
HETATM    4  N7  UNL     1      13.431  48.548 -47.839  1.00  0.00    -0.116 N 
HETATM    5  C10 UNL     1      13.086  49.270 -48.920  1.00  0.00     0.694 A 
HETATM    6  N13 UNL     1      13.187  48.436 -49.967  1.00  0.00    -0.176 N 
ATOM      7  H13 UNL     1      12.990  48.694 -50.934  1.00  0.00     0.185 HD
ENDROOT
BRANCH   1   8
HETATM    8  C6  UNL     1      13.820  46.008 -50.393  1.00  0.00     0.210 C 
BRANCH   8   9
HETATM    9  N5  UNL     1      15.133  46.062 -51.031  1.00  0.00    -0.320 N 
HETATM   10  C3  UNL     1      15.434  46.006 -52.340  1.00  0.00     0.140 A 
HETATM   11  N3  UNL     1      14.628  45.888 -53.406  1.00  0.00    -0.336 N 
HETATM   12  C4  UNL     1      16.788  46.089 -52.525  1.00  0.00     0.122 A 
HETATM   13  C2  UNL     1      15.189  45.856 -54.629  1.00  0.00     0.183 A 
ATOM     14  H3  UNL     1      13.617  45.825 -53.293  1.00  0.00     0.168 HD
HETATM   15  N2  UNL     1      16.529  45.937 -54.825  1.00  0.00    -0.337 N 
HETATM   16  C1  UNL     1      17.374  46.056 -53.786  1.00  0.00     0.131 A 
ATOM     17  H2  UNL     1      16.902  45.908 -55.775  1.00  0.00     0.168 HD
HETATM   18  N1  UNL     1      18.647  46.133 -53.966  1.00  0.00    -0.383 N 
ATOM     19  H12 UNL     1      19.078  46.109 -54.891  1.00  0.00     0.157 HD
ATOM     20  H11 UNL     1      19.288  46.223 -53.178  1.00  0.00     0.157 HD
HETATM   21  N4  UNL     1      17.327  46.197 -51.303  1.00  0.00    -0.346 N 
HETATM   22  C5  UNL     1      16.324  46.181 -50.403  1.00  0.00     0.185 A 
ATOM     23  H4  UNL     1      18.322  46.278 -51.091  1.00  0.00     0.167 HD
ENDBRANCH   8   9
ENDBRANCH   1   8
BRANCH   4  24
HETATM   24  C8  UNL     1      13.486  48.979 -46.461  1.00  0.00     0.247 C 
BRANCH  24  25
HETATM   25  C9  UNL     1      12.408  48.394 -45.649  1.00  0.00     0.130 A 
HETATM   26  N8  UNL     1      12.359  47.124 -45.208  1.00  0.00    -0.269 N 
HETATM   27  N9  UNL     1      11.253  46.919 -44.503  1.00  0.00    -0.005 NA
ATOM     28  H8  UNL     1      13.072  46.418 -45.390  1.00  0.00     0.185 HD
HETATM   29  N10 UNL     1      10.600  48.083 -44.505  1.00  0.00    -0.225 N 
HETATM   30  N11 UNL     1      11.278  48.973 -45.186  1.00  0.00    -0.274 N 
ATOM     31  H10 UNL     1       9.706  48.254 -44.045  1.00  0.00     0.205 HD
ATOM     32  H11 UNL     1      10.999  49.942 -45.341  1.00  0.00     0.189 HD
ENDBRANCH  24  25
ENDBRANCH   4  24
BRANCH   5  33
HETATM   33  N12 UNL     1      12.726  50.530 -48.937  1.00  0.00    -0.233 N 
ATOM     34 2H12 UNL     1      12.031  50.984 -48.346  1.00  0.00     0.174 HD
ATOM     35 1H12 UNL     1      13.090  51.259 -49.550  1.00  0.00     0.174 HD
ENDBRANCH   5  33
TORSDOF 5
ENDMDL
MODEL 2
REMARK VINA RESULT: -8.134358349      0.987      1.864
REMARK  5 active torsions:
REMARK  status: ('A' for Active; 'I' for Inactive)
REMARK    1  A    between atoms: N5_15  and  C6_16 
REMARK    2  A    between atoms: C6_16  and  C7_17 
REMARK    3  A    between atoms: N7_20  and  C8_21 
REMARK    4  A    between atoms: C8_21  and  C9_22 
REMARK    5  A    between atoms: C10_30  and  N12_31 
ROOT
HETATM    1  C7  UNL     1      14.254  47.230 -49.058  1.00  0.00     0.131 A 
HETATM    2  N6  UNL     1      13.403  47.368 -48.026  1.00  0.00    -0.270 N 
ATOM      3  H6  UNL     1      13.007  46.602 -47.481  1.00  0.00     0.189 HD
HETATM    4  N7  UNL     1      13.158  48.668 -47.826  1.00  0.00    -0.116 N 
HETATM    5  C10 UNL     1      13.852  49.379 -48.733  1.00  0.00     0.694 A 
HETATM    6  N13 UNL     1      14.516  48.478 -49.476  1.00  0.00    -0.176 N 
ATOM      7  H13 UNL     1      15.135  48.711 -50.252  1.00  0.00     0.185 HD
ENDROOT
BRANCH   1   8
HETATM    8  C6  UNL     1      14.772  45.949 -49.594  1.00  0.00     0.210 C 
BRANCH   8   9
HETATM    9  N5  UNL     1      14.846  45.988 -51.053  1.00  0.00    -0.320 N 
HETATM   10  C3  UNL     1      15.931  46.117 -51.836  1.00  0.00     0.140 A 
HETATM   11  N3  UNL     1      17.225  46.243 -51.504  1.00  0.00    -0.336 N 
HETATM   12  C4  UNL     1      15.573  46.108 -53.157  1.00  0.00     0.122 A 
HETATM   13  C2  UNL     1      18.130  46.357 -52.494  1.00  0.00     0.183 A 
ATOM     14  H3  UNL     1      17.516  46.252 -50.527  1.00  0.00     0.168 HD
HETATM   15  N2  UNL     1      17.786  46.350 -53.807  1.00  0.00    -0.337 N 
HETATM   16  C1  UNL     1      16.502  46.226 -54.185  1.00  0.00     0.131 A 
ATOM     17  H2  UNL     1      18.513  46.440 -54.518  1.00  0.00     0.168 HD
HETATM   18  N1  UNL     1      16.170  46.219 -55.430  1.00  0.00    -0.383 N 
ATOM     19  H12 UNL     1      16.852  46.306 -56.185  1.00  0.00     0.157 HD
ATOM     20  H11 UNL     1      15.196  46.125 -55.717  1.00  0.00     0.157 HD
HETATM   21  N4  UNL     1      14.239  45.972 -53.183  1.00  0.00    -0.346 N 
HETATM   22  C5  UNL     1      13.805  45.899 -51.910  1.00  0.00     0.185 A 
ATOM     23  H4  UNL     1      13.657  45.930 -54.019  1.00  0.00     0.167 HD
ENDBRANCH   8   9
ENDBRANCH   1   8
BRANCH   4  24
HETATM   24  C8  UNL     1      12.281  49.162 -46.790  1.00  0.00     0.247 C 
BRANCH  24  25
HETATM   25  C9  UNL     1      12.205  48.248 -45.640  1.00  0.00     0.130 A 
HETATM   26  N8  UNL     1      11.183  47.418 -45.363  1.00  0.00    -0.269 N 
HETATM   27  N9  UNL     1      11.429  46.731 -44.254  1.00  0.00    -0.005 NA
ATOM     28  H8  UNL     1      10.338  47.329 -45.927  1.00  0.00     0.185 HD
HETATM   29  N10 UNL     1      12.627  47.141 -43.831  1.00  0.00    -0.225 N 
HETATM   30  N11 UNL     1      13.102  48.047 -44.649  1.00  0.00    -0.274 N 
ATOM     31  H10 UNL     1      13.101  46.800 -42.995  1.00  0.00     0.205 HD
ATOM     32  H11 UNL     1      14.000  48.522 -44.554  1.00  0.00     0.189 HD
ENDBRANCH  24  25
ENDBRANCH   4  24
BRANCH   5  33
HETATM   33  N12 UNL     1      13.870  50.682 -48.857  1.00  0.00    -0.233 N 
ATOM     34 2H12 UNL     1      13.178  51.348 -48.514  1.00  0.00     0.174 HD
ATOM     35 1H12 UNL     1      14.588  51.240 -49.320  1.00  0.00     0.174 HD
ENDBRANCH   5  33
TORSDOF 5
ENDMDL
MODEL 3
REMARK VINA RESULT: -8.081466640      0.790      1.830
REMARK  5 active torsions:
REMARK  status: ('A' for Active; 'I' for Inactive)
REMARK    1  A    between atoms: N5_15  and  C6_16 
REMARK    2  A    between atoms: C6_16  and  C7_17 
REMARK    3  A    between atoms: N7_20  and  C8_21 
REMARK    4  A    between atoms: C8_21  and  C9_22 
REMARK    5  A    between atoms: C10_30  and  N12_31 
ROOT
HETATM    1  C7  UNL     1      13.664  46.860 -49.668  1.00  0.00     0.131 A 
HETATM    2  N6  UNL     1      13.845  46.972 -48.340  1.00  0.00    -0.270 N 
ATOM      3  H6  UNL     1      14.116  46.212 -47.716  1.00  0.00     0.189 HD
HETATM    4  N7  UNL     1      13.615  48.235 -47.966  1.00  0.00    -0.116 N 
HETATM    5  C10 UNL     1      13.280  48.949 -49.055  1.00  0.00     0.694 A 
HETATM    6  N13 UNL     1      13.317  48.088 -50.085  1.00  0.00    -0.176 N 
ATOM      7  H13 UNL     1      13.110  48.334 -51.054  1.00  0.00     0.185 HD
ENDROOT
BRANCH   1   8
HETATM    8  C6  UNL     1      13.822  45.623 -50.468  1.00  0.00     0.210 C 
BRANCH   8   9
HETATM    9  N5  UNL     1      14.801  45.816 -51.536  1.00  0.00    -0.320 N 
HETATM   10  C3  UNL     1      16.140  45.882 -51.445  1.00  0.00     0.140 A 
HETATM   11  N3  UNL     1      16.938  45.791 -50.370  1.00  0.00    -0.336 N 
HETATM   12  C4  UNL     1      16.696  46.072 -52.682  1.00  0.00     0.122 A 
HETATM   13  C2  UNL     1      18.268  45.891 -50.552  1.00  0.00     0.183 A 
ATOM     14  H3  UNL     1      16.547  45.650 -49.439  1.00  0.00     0.168 HD
HETATM   15  N2  UNL     1      18.830  46.079 -51.773  1.00  0.00    -0.337 N 
HETATM   16  C1  UNL     1      18.069  46.176 -52.877  1.00  0.00     0.131 A 
ATOM     17  H2  UNL     1      19.845  46.148 -51.854  1.00  0.00     0.168 HD
HETATM   18  N1  UNL     1      18.597  46.355 -54.039  1.00  0.00    -0.383 N 
ATOM     19  H12 UNL     1      19.605  46.432 -54.182  1.00  0.00     0.157 HD
ATOM     20  H11 UNL     1      18.020  46.429 -54.876  1.00  0.00     0.157 HD
HETATM   21  N4  UNL     1      15.674  46.124 -53.548  1.00  0.00    -0.346 N 
HETATM   22  C5  UNL     1      14.531  45.968 -52.851  1.00  0.00     0.185 A 
ATOM     23  H4  UNL     1      15.748  46.257 -54.556  1.00  0.00     0.167 HD
ENDBRANCH   8   9
ENDBRANCH   1   8
BRANCH   4  24
HETATM   24  C8  UNL     1      13.722  48.693 -46.600  1.00  0.00     0.247 C 
BRANCH  24  25
HETATM   25  C9  UNL     1      12.611  48.217 -45.763  1.00  0.00     0.130 A 
HETATM   26  N8  UNL     1      12.472  46.970 -45.278  1.00  0.00    -0.269 N 
HETATM   27  N9  UNL     1      11.359  46.871 -44.560  1.00  0.00    -0.005 NA
ATOM     28  H8  UNL     1      13.129  46.207 -45.440  1.00  0.00     0.185 HD
HETATM   29  N10 UNL     1      10.795  48.079 -44.598  1.00  0.00    -0.225 N 
HETATM   30  N11 UNL     1      11.531  48.894 -45.313  1.00  0.00    -0.274 N 
ATOM     31  H10 UNL     1       9.920  48.332 -44.138  1.00  0.00     0.205 HD
ATOM     32  H11 UNL     1      11.323  49.875 -45.499  1.00  0.00     0.189 HD
ENDBRANCH  24  25
ENDBRANCH   4  24
BRANCH   5  33
HETATM   33  N12 UNL     1      12.982  50.224 -49.094  1.00  0.00    -0.233 N 
ATOM     34 2H12 UNL     1      12.890  50.863 -48.305  1.00  0.00     0.174 HD
ATOM     35 1H12 UNL     1      12.794  50.781 -49.927  1.00  0.00     0.174 HD
ENDBRANCH   5  33
TORSDOF 5
ENDMDL
MODEL 4
REMARK VINA RESULT: -7.982395735      1.525      8.106
REMARK  5 active torsions:
REMARK  status: ('A' for Active; 'I' for Inactive)
REMARK    1  A    between atoms: N5_15  and  C6_16 
REMARK    2  A    between atoms: C6_16  and  C7_17 
REMARK    3  A    between atoms: N7_20  and  C8_21 
REMARK    4  A    between atoms: C8_21  and  C9_22 
REMARK    5  A    between atoms: C10_30  and  N12_31 
ROOT
HETATM    1  C7  UNL     1      15.110  47.515 -50.311  1.00  0.00     0.131 A 
HETATM    2  N6  UNL     1      15.106  47.487 -51.655  1.00  0.00    -0.270 N 
ATOM      3  H6  UNL     1      15.386  48.258 -52.262  1.00  0.00     0.189 HD
HETATM    4  N7  UNL     1      14.678  46.291 -52.072  1.00  0.00    -0.116 N 
HETATM    5  C10 UNL     1      14.400  45.536 -50.994  1.00  0.00     0.694 A 
HETATM    6  N13 UNL     1      14.672  46.305 -49.927  1.00  0.00    -0.176 N 
ATOM      7  H13 UNL     1      14.562  46.011 -48.956  1.00  0.00     0.185 HD
ENDROOT
BRANCH   1   8
HETATM    8  C6  UNL     1      15.517  48.661 -49.464  1.00  0.00     0.210 C 
BRANCH   8   9
HETATM    9  N5  UNL     1      14.363  49.240 -48.781  1.00  0.00    -0.320 N 
HETATM   10  C3  UNL     1      13.845  48.914 -47.584  1.00  0.00     0.140 A 
HETATM   11  N3  UNL     1      14.235  47.986 -46.699  1.00  0.00    -0.336 N 
HETATM   12  C4  UNL     1      12.757  49.697 -47.303  1.00  0.00     0.122 A 
HETATM   13  C2  UNL     1      13.535  47.859 -45.556  1.00  0.00     0.183 A 
ATOM     14  H3  UNL     1      15.042  47.391 -46.886  1.00  0.00     0.168 HD
HETATM   15  N2  UNL     1      12.456  48.629 -45.267  1.00  0.00    -0.337 N 
HETATM   16  C1  UNL     1      12.029  49.572 -46.126  1.00  0.00     0.131 A 
ATOM     17  H2  UNL     1      11.961  48.491 -44.385  1.00  0.00     0.168 HD
HETATM   18  N1  UNL     1      11.005  50.305 -45.856  1.00  0.00    -0.383 N 
ATOM     19  H12 UNL     1      10.470  50.213 -44.992  1.00  0.00     0.157 HD
ATOM     20  H11 UNL     1      10.681  51.020 -46.508  1.00  0.00     0.157 HD
HETATM   21  N4  UNL     1      12.606  50.519 -48.352  1.00  0.00    -0.346 N 
HETATM   22  C5  UNL     1      13.578  50.239 -49.242  1.00  0.00     0.185 A 
ATOM     23  H4  UNL     1      11.883  51.230 -48.457  1.00  0.00     0.167 HD
ENDBRANCH   8   9
ENDBRANCH   1   8
BRANCH   4  24
HETATM   24  C8  UNL     1      14.555  45.930 -53.465  1.00  0.00     0.247 C 
BRANCH  24  25
HETATM   25  C9  UNL     1      15.843  45.983 -54.172  1.00  0.00     0.130 A 
HETATM   26  N8  UNL     1      16.014  46.283 -55.472  1.00  0.00    -0.269 N 
HETATM   27  N9  UNL     1      17.301  46.243 -55.795  1.00  0.00    -0.005 NA
ATOM     28  H8  UNL     1      15.259  46.510 -56.120  1.00  0.00     0.185 HD
HETATM   29  N10 UNL     1      17.945  45.912 -54.674  1.00  0.00    -0.225 N 
HETATM   30  N11 UNL     1      17.088  45.753 -53.696  1.00  0.00    -0.274 N 
ATOM     31  H10 UNL     1      18.956  45.799 -54.591  1.00  0.00     0.205 HD
ATOM     32  H11 UNL     1      17.320  45.499 -52.737  1.00  0.00     0.189 HD
ENDBRANCH  24  25
ENDBRANCH   4  24
BRANCH   5  33
HETATM   33  N12 UNL     1      13.957  44.304 -50.994  1.00  0.00    -0.233 N 
ATOM     34 2H12 UNL     1      14.033  43.617 -50.244  1.00  0.00     0.174 HD
ATOM     35 1H12 UNL     1      13.462  43.834 -51.752  1.00  0.00     0.174 HD
ENDBRANCH   5  33
TORSDOF 5
ENDMDL
MODEL 5
REMARK VINA RESULT: -7.929154926      1.498      8.174
REMARK  5 active torsions:
REMARK  status: ('A' for Active; 'I' for Inactive)
REMARK    1  A    between atoms: N5_15  and  C6_16 
REMARK    2  A    between atoms: C6_16  and  C7_17 
REMARK    3  A    between atoms: N7_20  and  C8_21 
REMARK    4  A    between atoms: C8_21  and  C9_22 
REMARK    5  A    between atoms: C10_30  and  N12_31 
ROOT
HETATM    1  C7  UNL     1      14.938  48.004 -50.224  1.00  0.00     0.131 A 
HETATM    2  N6  UNL     1      16.128  47.641 -50.737  1.00  0.00    -0.270 N 
ATOM      3  H6  UNL     1      17.033  48.009 -50.445  1.00  0.00     0.189 HD
HETATM    4  N7  UNL     1      15.937  46.720 -51.689  1.00  0.00    -0.116 N 
HETATM    5  C10 UNL     1      14.618  46.484 -51.798  1.00  0.00     0.694 A 
HETATM    6  N13 UNL     1      14.026  47.280 -50.892  1.00  0.00    -0.176 N 
ATOM      7  H13 UNL     1      13.019  47.328 -50.733  1.00  0.00     0.185 HD
ENDROOT
BRANCH   1   8
HETATM    8  C6  UNL     1      14.720  48.999 -49.149  1.00  0.00     0.210 C 
BRANCH   8   9
HETATM    9  N5  UNL     1      14.074  48.383 -47.993  1.00  0.00    -0.320 N 
HETATM   10  C3  UNL     1      13.076  48.865 -47.232  1.00  0.00     0.140 A 
HETATM   11  N3  UNL     1      12.406  50.024 -47.320  1.00  0.00    -0.336 N 
HETATM   12  C4  UNL     1      12.755  47.976 -46.241  1.00  0.00     0.122 A 
HETATM   13  C2  UNL     1      11.435  50.270 -46.421  1.00  0.00     0.183 A 
ATOM     14  H3  UNL     1      12.627  50.701 -48.049  1.00  0.00     0.168 HD
HETATM   15  N2  UNL     1      11.108  49.396 -45.435  1.00  0.00    -0.337 N 
HETATM   16  C1  UNL     1      11.754  48.223 -45.309  1.00  0.00     0.131 A 
ATOM     17  H2  UNL     1      10.363  49.633 -44.780  1.00  0.00     0.168 HD
HETATM   18  N1  UNL     1      11.448  47.390 -44.375  1.00  0.00    -0.383 N 
ATOM     19  H12 UNL     1      10.713  47.572 -43.691  1.00  0.00     0.157 HD
ATOM     20  H11 UNL     1      11.937  46.500 -44.279  1.00  0.00     0.157 HD
HETATM   21  N4  UNL     1      13.576  46.927 -46.399  1.00  0.00    -0.346 N 
HETATM   22  C5  UNL     1      14.370  47.177 -47.458  1.00  0.00     0.185 A 
ATOM     23  H4  UNL     1      13.595  46.088 -45.820  1.00  0.00     0.167 HD
ENDBRANCH   8   9
ENDBRANCH   1   8
BRANCH   4  24
HETATM   24  C8  UNL     1      17.014  46.119 -52.441  1.00  0.00     0.247 C 
BRANCH  24  25
HETATM   25  C9  UNL     1      17.291  46.839 -53.693  1.00  0.00     0.130 A 
HETATM   26  N8  UNL     1      18.168  46.459 -54.639  1.00  0.00    -0.269 N 
HETATM   27  N9  UNL     1      18.178  47.329 -55.642  1.00  0.00    -0.005 NA
ATOM     28  H8  UNL     1      18.745  45.619 -54.593  1.00  0.00     0.185 HD
HETATM   29  N10 UNL     1      17.290  48.270 -55.314  1.00  0.00    -0.225 N 
HETATM   30  N11 UNL     1      16.752  47.991 -54.152  1.00  0.00    -0.274 N 
ATOM     31  H10 UNL     1      17.064  49.086 -55.883  1.00  0.00     0.205 HD
ATOM     32  H11 UNL     1      16.046  48.549 -53.674  1.00  0.00     0.189 HD
ENDBRANCH  24  25
ENDBRANCH   4  24
BRANCH   5  33
HETATM   33  N12 UNL     1      14.038  45.646 -52.621  1.00  0.00    -0.233 N 
ATOM     34 2H12 UNL     1      13.164  45.141 -52.478  1.00  0.00     0.174 HD
ATOM     35 1H12 UNL     1      14.374  45.367 -53.543  1.00  0.00     0.174 HD
ENDBRANCH   5  33
TORSDOF 5
ENDMDL
