MODEL 1
REMARK VINA RESULT: -6.997968213      0.000      0.000
REMARK  6 active torsions:
REMARK  status: ('A' for Active; 'I' for Inactive)
REMARK       I    between atoms: C1_2  and  N2_4 
REMARK    1  A    between atoms: N2_4  and  N3_6 
REMARK    2  A    between atoms: N3_6  and  C2_8 
REMARK    3  A    between atoms: C3_11  and  S1_12 
REMARK    4  A    between atoms: S1_12  and  C4_13 
REMARK    5  A    between atoms: C5_23  and  N9_24 
REMARK    6  A    between atoms: N9_24  and  O2_26 
ROOT
HETATM    1  C2  UNL     1      14.993  48.215 -55.320  1.00  0.00     0.713 A 
HETATM    2  N4  UNL     1      16.155  48.325 -54.669  1.00  0.00    -0.167 N 
ATOM      3  H4  UNL     1      17.023  48.517 -55.169  1.00  0.00     0.186 HD
HETATM    4  C3  UNL     1      16.142  48.173 -53.325  1.00  0.00     0.182 A 
HETATM    5  N8  UNL     1      14.997  47.920 -52.665  1.00  0.00    -0.167 N 
ATOM      6  H8  UNL     1      15.020  47.812 -51.650  1.00  0.00     0.186 HD
HETATM    7  C5  UNL     1      13.819  47.807 -53.314  1.00  0.00     0.718 A 
HETATM    8  N10 UNL     1      13.857  47.962 -54.650  1.00  0.00    -0.019 N 
ATOM      9  H10 UNL     1      12.987  47.883 -55.176  1.00  0.00     0.203 HD
ENDROOT
BRANCH   4  10
HETATM   10  S1  UNL     1      17.702  48.324 -52.479  1.00  0.00    -0.015 SA
BRANCH  10  11
HETATM   11  C4  UNL     1      18.908  49.052 -53.625  1.00  0.00     0.174 A 
HETATM   12  N5  UNL     1      19.722  48.306 -54.320  1.00  0.00    -0.272 N 
HETATM   13  N6  UNL     1      20.566  48.880 -55.127  1.00  0.00    -0.254 N 
ATOM     14  H5  UNL     1      19.698  47.291 -54.233  1.00  0.00     0.189 HD
HETATM   15  S2  UNL     1      20.233  50.515 -54.926  1.00  0.00     0.085 SA
ATOM     16  H6  UNL     1      21.261  48.444 -55.733  1.00  0.00     0.197 HD
HETATM   17  N7  UNL     1      18.998  50.374 -53.792  1.00  0.00    -0.290 N 
ATOM     18  H7  UNL     1      18.455  51.111 -53.343  1.00  0.00     0.178 HD
ENDBRANCH  10  11
ENDBRANCH   4  10
BRANCH   1  19
HETATM   19  N3  UNL     1      14.947  48.352 -56.605  1.00  0.00    -0.128 N 
ATOM     20  H3  UNL     1      14.875  47.509 -57.175  1.00  0.00     0.205 HD
BRANCH  19  21
HETATM   21  N2  UNL     1      14.990  49.575 -57.253  1.00  0.00    -0.240 N 
HETATM   22  C1  UNL     1      16.238  50.129 -57.601  1.00  0.00     0.347 C 
HETATM   23  N1  UNL     1      16.251  51.389 -58.268  1.00  0.00    -0.038 NA
HETATM   24  O1  UNL     1      17.324  49.535 -57.336  1.00  0.00    -0.249 OA
ATOM     25  H2  UNL     1      14.127  50.070 -57.478  1.00  0.00     0.192 HD
ENDBRANCH  19  21
ENDBRANCH   1  19
BRANCH   7  26
HETATM   26  N9  UNL     1      12.703  47.567 -52.728  1.00  0.00    -0.098 N 
ATOM     27  H9  UNL     1      12.648  46.850 -52.005  1.00  0.00     0.213 HD
BRANCH  26  28
HETATM   28  O2  UNL     1      11.576  48.285 -53.081  1.00  0.00    -0.276 OA
ATOM     29  H2  UNL     1      11.023  48.658 -52.403  1.00  0.00     0.245 HD
ENDBRANCH  26  28
ENDBRANCH   7  26
TORSDOF 6
ENDMDL
MODEL 2
REMARK VINA RESULT: -6.938543986      1.655      1.805
REMARK  6 active torsions:
REMARK  status: ('A' for Active; 'I' for Inactive)
REMARK       I    between atoms: C1_2  and  N2_4 
REMARK    1  A    between atoms: N2_4  and  N3_6 
REMARK    2  A    between atoms: N3_6  and  C2_8 
REMARK    3  A    between atoms: C3_11  and  S1_12 
REMARK    4  A    between atoms: S1_12  and  C4_13 
REMARK    5  A    between atoms: C5_23  and  N9_24 
REMARK    6  A    between atoms: N9_24  and  O2_26 
ROOT
HETATM    1  C2  UNL     1      15.452  49.185 -56.351  1.00  0.00     0.713 A 
HETATM    2  N4  UNL     1      16.559  49.168 -55.603  1.00  0.00    -0.167 N 
ATOM      3  H4  UNL     1      17.433  49.566 -55.945  1.00  0.00     0.186 HD
HETATM    4  C3  UNL     1      16.481  48.606 -54.374  1.00  0.00     0.182 A 
HETATM    5  N8  UNL     1      15.328  48.081 -53.921  1.00  0.00    -0.167 N 
ATOM      6  H8  UNL     1      15.301  47.665 -52.990  1.00  0.00     0.186 HD
HETATM    7  C5  UNL     1      14.205  48.093 -54.671  1.00  0.00     0.718 A 
HETATM    8  N10 UNL     1      14.307  48.657 -55.888  1.00  0.00    -0.019 N 
ATOM      9  H10 UNL     1      13.481  48.685 -56.485  1.00  0.00     0.203 HD
ENDROOT
BRANCH   4  10
HETATM   10  S1  UNL     1      17.968  48.595 -53.395  1.00  0.00    -0.015 SA
BRANCH  10  11
HETATM   11  C4  UNL     1      19.016  49.980 -53.927  1.00  0.00     0.174 A 
HETATM   12  N5  UNL     1      20.152  49.778 -54.536  1.00  0.00    -0.272 N 
HETATM   13  N6  UNL     1      20.863  50.806 -54.896  1.00  0.00    -0.254 N 
ATOM     14  H5  UNL     1      20.477  48.831 -54.727  1.00  0.00     0.189 HD
HETATM   15  S2  UNL     1      19.937  52.110 -54.378  1.00  0.00     0.085 SA
ATOM     16  H6  UNL     1      21.764  50.818 -55.376  1.00  0.00     0.197 HD
HETATM   17  N7  UNL     1      18.656  51.247 -53.711  1.00  0.00    -0.290 N 
ATOM     18  H7  UNL     1      17.815  51.602 -53.257  1.00  0.00     0.178 HD
ENDBRANCH  10  11
ENDBRANCH   4  10
BRANCH   1  19
HETATM   19  N3  UNL     1      15.469  49.710 -57.532  1.00  0.00    -0.128 N 
ATOM     20  H3  UNL     1      15.483  49.083 -58.337  1.00  0.00     0.205 HD
BRANCH  19  21
HETATM   21  N2  UNL     1      15.468  51.074 -57.771  1.00  0.00    -0.240 N 
HETATM   22  C1  UNL     1      15.140  51.551 -59.056  1.00  0.00     0.347 C 
HETATM   23  N1  UNL     1      15.148  52.960 -59.271  1.00  0.00    -0.038 NA
HETATM   24  O1  UNL     1      14.844  50.762 -60.000  1.00  0.00    -0.249 OA
ATOM     25  H2  UNL     1      15.702  51.728 -57.024  1.00  0.00     0.192 HD
ENDBRANCH  19  21
ENDBRANCH   1  19
BRANCH   7  26
HETATM   26  N9  UNL     1      13.084  47.605 -54.282  1.00  0.00    -0.098 N 
ATOM     27  H9  UNL     1      12.208  48.009 -54.614  1.00  0.00     0.213 HD
BRANCH  26  28
HETATM   28  O2  UNL     1      13.069  46.531 -53.412  1.00  0.00    -0.276 OA
ATOM     29  H2  UNL     1      12.243  46.233 -53.047  1.00  0.00     0.245 HD
ENDBRANCH  26  28
ENDBRANCH   7  26
TORSDOF 6
ENDMDL
MODEL 3
REMARK VINA RESULT: -6.771577855      2.231      3.077
REMARK  6 active torsions:
REMARK  status: ('A' for Active; 'I' for Inactive)
REMARK       I    between atoms: C1_2  and  N2_4 
REMARK    1  A    between atoms: N2_4  and  N3_6 
REMARK    2  A    between atoms: N3_6  and  C2_8 
REMARK    3  A    between atoms: C3_11  and  S1_12 
REMARK    4  A    between atoms: S1_12  and  C4_13 
REMARK    5  A    between atoms: C5_23  and  N9_24 
REMARK    6  A    between atoms: N9_24  and  O2_26 
ROOT
HETATM    1  C2  UNL     1      15.499  49.190 -56.372  1.00  0.00     0.713 A 
HETATM    2  N4  UNL     1      16.584  49.156 -55.592  1.00  0.00    -0.167 N 
ATOM      3  H4  UNL     1      17.473  49.541 -55.910  1.00  0.00     0.186 HD
HETATM    4  C3  UNL     1      16.463  48.595 -54.367  1.00  0.00     0.182 A 
HETATM    5  N8  UNL     1      15.289  48.087 -53.947  1.00  0.00    -0.167 N 
ATOM      6  H8  UNL     1      15.230  47.672 -53.018  1.00  0.00     0.186 HD
HETATM    7  C5  UNL     1      14.189  48.116 -54.729  1.00  0.00     0.718 A 
HETATM    8  N10 UNL     1      14.334  48.679 -55.942  1.00  0.00    -0.019 N 
ATOM      9  H10 UNL     1      13.525  48.719 -56.562  1.00  0.00     0.203 HD
ENDROOT
BRANCH   4  10
HETATM   10  S1  UNL     1      17.921  48.562 -53.346  1.00  0.00    -0.015 SA
BRANCH  10  11
HETATM   11  C4  UNL     1      17.409  48.307 -51.622  1.00  0.00     0.174 A 
HETATM   12  N5  UNL     1      17.697  47.207 -50.983  1.00  0.00    -0.272 N 
HETATM   13  N6  UNL     1      17.306  47.076 -49.749  1.00  0.00    -0.254 N 
ATOM     14  H5  UNL     1      18.220  46.462 -51.442  1.00  0.00     0.189 HD
HETATM   15  S2  UNL     1      16.507  48.523 -49.448  1.00  0.00     0.085 SA
ATOM     16  H6  UNL     1      17.450  46.287 -49.118  1.00  0.00     0.197 HD
HETATM   17  N7  UNL     1      16.721  49.237 -50.956  1.00  0.00    -0.290 N 
ATOM     18  H7  UNL     1      16.406  50.151 -51.281  1.00  0.00     0.178 HD
ENDBRANCH  10  11
ENDBRANCH   4  10
BRANCH   1  19
HETATM   19  N3  UNL     1      15.557  49.715 -57.552  1.00  0.00    -0.128 N 
ATOM     20  H3  UNL     1      15.623  49.088 -58.354  1.00  0.00     0.205 HD
BRANCH  19  21
HETATM   21  N2  UNL     1      15.537  51.079 -57.792  1.00  0.00    -0.240 N 
HETATM   22  C1  UNL     1      15.160  51.550 -59.065  1.00  0.00     0.347 C 
HETATM   23  N1  UNL     1      15.148  52.960 -59.282  1.00  0.00    -0.038 NA
HETATM   24  O1  UNL     1      14.837  50.758 -59.997  1.00  0.00    -0.249 OA
ATOM     25  H2  UNL     1      15.791  51.736 -57.054  1.00  0.00     0.192 HD
ENDBRANCH  19  21
ENDBRANCH   1  19
BRANCH   7  26
HETATM   26  N9  UNL     1      13.050  47.645 -54.372  1.00  0.00    -0.098 N 
ATOM     27  H9  UNL     1      12.189  48.074 -54.713  1.00  0.00     0.213 HD
BRANCH  26  28
HETATM   28  O2  UNL     1      12.994  46.555 -53.524  1.00  0.00    -0.276 OA
ATOM     29  H2  UNL     1      13.780  46.048 -53.357  1.00  0.00     0.245 HD
ENDBRANCH  26  28
ENDBRANCH   7  26
TORSDOF 6
ENDMDL
MODEL 4
REMARK VINA RESULT: -6.763463375      5.119      8.038
REMARK  6 active torsions:
REMARK  status: ('A' for Active; 'I' for Inactive)
REMARK       I    between atoms: C1_2  and  N2_4 
REMARK    1  A    between atoms: N2_4  and  N3_6 
REMARK    2  A    between atoms: N3_6  and  C2_8 
REMARK    3  A    between atoms: C3_11  and  S1_12 
REMARK    4  A    between atoms: S1_12  and  C4_13 
REMARK    5  A    between atoms: C5_23  and  N9_24 
REMARK    6  A    between atoms: N9_24  and  O2_26 
ROOT
HETATM    1  C2  UNL     1      11.802  51.689 -49.067  1.00  0.00     0.713 A 
HETATM    2  N4  UNL     1      12.754  50.788 -49.330  1.00  0.00    -0.167 N 
ATOM      3  H4  UNL     1      12.902  49.985 -48.720  1.00  0.00     0.186 HD
HETATM    4  C3  UNL     1      13.515  50.979 -50.432  1.00  0.00     0.182 A 
HETATM    5  N8  UNL     1      13.320  52.039 -51.238  1.00  0.00    -0.167 N 
ATOM      6  H8  UNL     1      13.909  52.153 -52.062  1.00  0.00     0.186 HD
HETATM    7  C5  UNL     1      12.361  52.953 -50.979  1.00  0.00     0.718 A 
HETATM    8  N10 UNL     1      11.618  52.743 -49.878  1.00  0.00    -0.019 N 
ATOM      9  H10 UNL     1      10.883  53.412 -49.649  1.00  0.00     0.203 HD
ENDROOT
BRANCH   4  10
HETATM   10  S1  UNL     1      14.777  49.766 -50.762  1.00  0.00    -0.015 SA
BRANCH  10  11
HETATM   11  C4  UNL     1      14.250  48.760 -52.179  1.00  0.00     0.174 A 
HETATM   12  N5  UNL     1      13.451  47.738 -52.027  1.00  0.00    -0.272 N 
HETATM   13  N6  UNL     1      13.105  47.051 -53.076  1.00  0.00    -0.254 N 
ATOM     14  H5  UNL     1      13.105  47.484 -51.103  1.00  0.00     0.189 HD
HETATM   15  S2  UNL     1      13.907  47.836 -54.327  1.00  0.00     0.085 SA
ATOM     16  H6  UNL     1      12.494  46.235 -53.126  1.00  0.00     0.197 HD
HETATM   17  N7  UNL     1      14.663  49.033 -53.418  1.00  0.00    -0.290 N 
ATOM     18  H7  UNL     1      15.281  49.780 -53.734  1.00  0.00     0.178 HD
ENDBRANCH  10  11
ENDBRANCH   4  10
BRANCH   1  19
HETATM   19  N3  UNL     1      11.045  51.556 -48.028  1.00  0.00    -0.128 N 
ATOM     20  H3  UNL     1      10.327  52.261 -47.863  1.00  0.00     0.205 HD
BRANCH  19  21
HETATM   21  N2  UNL     1      11.151  50.512 -47.123  1.00  0.00    -0.240 N 
HETATM   22  C1  UNL     1      10.211  49.464 -47.165  1.00  0.00     0.347 C 
HETATM   23  N1  UNL     1      10.346  48.404 -46.221  1.00  0.00    -0.038 NA
HETATM   24  O1  UNL     1       9.270  49.450 -48.011  1.00  0.00    -0.249 OA
ATOM     25  H2  UNL     1      11.903  50.503 -46.434  1.00  0.00     0.192 HD
ENDBRANCH  19  21
ENDBRANCH   1  19
BRANCH   7  26
HETATM   26  N9  UNL     1      12.138  53.979 -51.718  1.00  0.00    -0.098 N 
ATOM     27  H9  UNL     1      12.253  54.918 -51.337  1.00  0.00     0.213 HD
BRANCH  26  28
HETATM   28  O2  UNL     1      11.740  53.804 -53.030  1.00  0.00    -0.276 OA
ATOM     29  H2  UNL     1      11.859  54.510 -53.656  1.00  0.00     0.245 HD
ENDBRANCH  26  28
ENDBRANCH   7  26
TORSDOF 6
ENDMDL
MODEL 5
REMARK VINA RESULT: -6.756153147      2.513      4.931
REMARK  6 active torsions:
REMARK  status: ('A' for Active; 'I' for Inactive)
REMARK       I    between atoms: C1_2  and  N2_4 
REMARK    1  A    between atoms: N2_4  and  N3_6 
REMARK    2  A    between atoms: N3_6  and  C2_8 
REMARK    3  A    between atoms: C3_11  and  S1_12 
REMARK    4  A    between atoms: S1_12  and  C4_13 
REMARK    5  A    between atoms: C5_23  and  N9_24 
REMARK    6  A    between atoms: N9_24  and  O2_26 
ROOT
HETATM    1  C2  UNL     1      16.770  48.523 -56.083  1.00  0.00     0.713 A 
HETATM    2  N4  UNL     1      16.336  48.354 -54.830  1.00  0.00    -0.167 N 
ATOM      3  H4  UNL     1      15.343  48.247 -54.627  1.00  0.00     0.186 HD
HETATM    4  C3  UNL     1      17.259  48.329 -53.841  1.00  0.00     0.182 A 
HETATM    5  N8  UNL     1      18.570  48.469 -54.110  1.00  0.00    -0.167 N 
ATOM      6  H8  UNL     1      19.242  48.444 -53.342  1.00  0.00     0.186 HD
HETATM    7  C5  UNL     1      19.017  48.642 -55.372  1.00  0.00     0.718 A 
HETATM    8  N10 UNL     1      18.081  48.663 -56.338  1.00  0.00    -0.019 N 
ATOM      9  H10 UNL     1      18.379  48.792 -57.304  1.00  0.00     0.203 HD
ENDROOT
BRANCH   4  10
HETATM   10  S1  UNL     1      16.658  48.101 -52.180  1.00  0.00    -0.015 SA
BRANCH  10  11
HETATM   11  C4  UNL     1      14.897  48.545 -52.142  1.00  0.00     0.174 A 
HETATM   12  N5  UNL     1      13.977  47.712 -52.545  1.00  0.00    -0.272 N 
HETATM   13  N6  UNL     1      12.731  48.081 -52.496  1.00  0.00    -0.254 N 
ATOM     14  H5  UNL     1      14.231  46.788 -52.893  1.00  0.00     0.189 HD
HETATM   15  S2  UNL     1      12.819  49.638 -51.870  1.00  0.00     0.085 SA
ATOM     16  H6  UNL     1      11.902  47.554 -52.770  1.00  0.00     0.197 HD
HETATM   17  N7  UNL     1      14.491  49.737 -51.700  1.00  0.00    -0.290 N 
ATOM     18  H7  UNL     1      15.052  50.512 -51.348  1.00  0.00     0.178 HD
ENDBRANCH  10  11
ENDBRANCH   4  10
BRANCH   1  19
HETATM   19  N3  UNL     1      15.932  48.555 -57.067  1.00  0.00    -0.128 N 
ATOM     20  H3  UNL     1      15.920  47.765 -57.712  1.00  0.00     0.205 HD
BRANCH  19  21
HETATM   21  N2  UNL     1      15.050  49.597 -57.297  1.00  0.00    -0.240 N 
HETATM   22  C1  UNL     1      15.504  50.752 -57.963  1.00  0.00     0.347 C 
HETATM   23  N1  UNL     1      14.573  51.809 -58.186  1.00  0.00    -0.038 NA
HETATM   24  O1  UNL     1      16.701  50.862 -58.360  1.00  0.00    -0.249 OA
ATOM     25  H2  UNL     1      14.080  49.529 -56.987  1.00  0.00     0.192 HD
ENDBRANCH  19  21
ENDBRANCH   1  19
BRANCH   7  26
HETATM   26  N9  UNL     1      20.256  48.779 -55.676  1.00  0.00    -0.098 N 
ATOM     27  H9  UNL     1      20.980  48.484 -55.021  1.00  0.00     0.213 HD
BRANCH  26  28
HETATM   28  O2  UNL     1      20.605  49.328 -56.896  1.00  0.00    -0.276 OA
ATOM     29  H2  UNL     1      20.347  50.219 -57.102  1.00  0.00     0.245 HD
ENDBRANCH  26  28
ENDBRANCH   7  26
TORSDOF 6
ENDMDL
