MODEL 1
REMARK VINA RESULT: -8.143986661      0.000      0.000
REMARK  9 active torsions:
REMARK  status: ('A' for Active; 'I' for Inactive)
REMARK    1  A    between atoms: O1_2  and  N1_3 
REMARK    2  A    between atoms: N1_3  and  C2_5 
REMARK    3  A    between atoms: C3_8  and  N3_9 
REMARK       I    between atoms: N3_9  and  C4_11 
REMARK       I    between atoms: C4_11  and  N4_12 
REMARK       I    between atoms: C4_11  and  N5_16 
REMARK    4  A    between atoms: C5_22  and  N7_23 
REMARK    5  A    between atoms: C8_28  and  N9_29 
REMARK    6  A    between atoms: N9_29  and  C9_30 
REMARK    7  A    between atoms: C12_33  and  O2_34 
REMARK    8  A    between atoms: C15_38  and  C16_39 
REMARK    9  A    between atoms: C16_39  and  O4_41 
ROOT
HETATM    1  C2  UNL     1      34.908  56.178  18.707  1.00  0.00     0.200 C 
HETATM    2  N2  UNL     1      34.006  56.403  19.677  1.00  0.00    -0.170 N 
ATOM      3  H2  UNL     1      33.041  56.190  19.425  1.00  0.00     0.186 HD
HETATM    4  C3  UNL     1      34.177  56.864  20.930  1.00  0.00     0.697 C 
HETATM    5  N6  UNL     1      35.234  57.602  21.323  1.00  0.00    -0.022 N 
ATOM      6  H6  UNL     1      35.101  58.090  22.209  1.00  0.00     0.203 HD
HETATM    7  C5  UNL     1      36.436  57.806  20.750  1.00  0.00     0.696 C 
HETATM    8  N8  UNL     1      36.839  57.397  19.538  1.00  0.00    -0.160 N 
ATOM      9  H8  UNL     1      37.684  57.850  19.190  1.00  0.00     0.187 HD
HETATM   10  C8  UNL     1      36.290  56.461  18.689  1.00  0.00     0.240 C 
ENDROOT
BRANCH  10  11
HETATM   11  N9  UNL     1      36.932  55.851  17.908  1.00  0.00    -0.382 NA
BRANCH  11  12
HETATM   12  C9  UNL     1      37.684  55.194  17.059  1.00  0.00     0.128 A 
HETATM   13  C10 UNL     1      38.758  55.840  16.418  1.00  0.00     0.049 A 
HETATM   14  C11 UNL     1      39.582  55.219  15.526  1.00  0.00     0.042 A 
HETATM   15  C12 UNL     1      39.365  53.892  15.227  1.00  0.00     0.093 A 
HETATM   16  C14 UNL     1      38.328  53.246  15.837  1.00  0.00     0.099 A 
HETATM   17  N10 UNL     1      38.153  51.862  15.482  1.00  0.00    -0.098 NA
HETATM   18  C15 UNL     1      37.475  53.855  16.749  1.00  0.00     0.107 A 
BRANCH  15  19
HETATM   19  O2  UNL     1      40.215  53.287  14.318  1.00  0.00    -0.354 OA
HETATM   20  C13 UNL     1      40.224  53.665  12.960  1.00  0.00     0.210 C 
ENDBRANCH  15  19
BRANCH  18  21
HETATM   21  C16 UNL     1      36.404  53.063  17.335  1.00  0.00     0.298 C 
HETATM   22  O3  UNL     1      35.322  52.978  16.694  1.00  0.00    -0.259 OA
BRANCH  21  23
HETATM   23  O4  UNL     1      36.474  52.400  18.529  1.00  0.00    -0.322 OA
HETATM   24  C17 UNL     1      36.782  51.030  18.674  1.00  0.00     0.213 C 
ENDBRANCH  21  23
ENDBRANCH  18  21
ENDBRANCH  11  12
ENDBRANCH  10  11
BRANCH   1  25
HETATM   25  N1  UNL     1      34.515  55.628  17.609  1.00  0.00    -0.246 N 
ATOM     26  H1  UNL     1      35.181  55.315  16.902  1.00  0.00     0.196 HD
BRANCH  25  27
HETATM   27  O1  UNL     1      33.155  55.484  17.436  1.00  0.00    -0.284 OA
HETATM   28  C1  UNL     1      32.403  56.345  16.603  1.00  0.00     0.237 C 
ENDBRANCH  25  27
ENDBRANCH   1  25
BRANCH   7  29
HETATM   29  N7  UNL     1      37.392  58.551  21.532  1.00  0.00    -0.226 N 
HETATM   30  C6  UNL     1      38.610  58.987  20.877  1.00  0.00     0.168 C 
HETATM   31  C7  UNL     1      37.166  58.859  22.911  1.00  0.00     0.168 C 
ENDBRANCH   7  29
BRANCH   4  32
HETATM   32  N3  UNL     1      33.262  56.569  21.786  1.00  0.00    -0.173 N 
HETATM   33  C4  UNL     1      32.985  57.280  22.991  1.00  0.00     0.494 C 
HETATM   34  N4  UNL     1      32.307  56.344  23.895  1.00  0.00    -0.032 N 
HETATM   35  N5  UNL     1      32.203  58.478  22.820  1.00  0.00    -0.032 N 
ATOM     36  H43 UNL     1      31.477  55.917  23.482  1.00  0.00     0.278 HD
ATOM     37  H42 UNL     1      32.833  55.484  24.049  1.00  0.00     0.278 HD
ATOM     38  H41 UNL     1      32.110  56.853  24.757  1.00  0.00     0.278 HD
ATOM     39  H53 UNL     1      32.647  59.095  22.139  1.00  0.00     0.278 HD
ATOM     40  H52 UNL     1      31.335  58.267  22.328  1.00  0.00     0.278 HD
ATOM     41  H51 UNL     1      32.006  58.987  23.682  1.00  0.00     0.278 HD
ATOM     42  H3  UNL     1      32.683  55.753  21.584  1.00  0.00     0.181 HD
ENDBRANCH   4  32
TORSDOF 9
ENDMDL
MODEL 2
REMARK VINA RESULT: -7.796329875      2.323      3.831
REMARK  9 active torsions:
REMARK  status: ('A' for Active; 'I' for Inactive)
REMARK    1  A    between atoms: O1_2  and  N1_3 
REMARK    2  A    between atoms: N1_3  and  C2_5 
REMARK    3  A    between atoms: C3_8  and  N3_9 
REMARK       I    between atoms: N3_9  and  C4_11 
REMARK       I    between atoms: C4_11  and  N4_12 
REMARK       I    between atoms: C4_11  and  N5_16 
REMARK    4  A    between atoms: C5_22  and  N7_23 
REMARK    5  A    between atoms: C8_28  and  N9_29 
REMARK    6  A    between atoms: N9_29  and  C9_30 
REMARK    7  A    between atoms: C12_33  and  O2_34 
REMARK    8  A    between atoms: C15_38  and  C16_39 
REMARK    9  A    between atoms: C16_39  and  O4_41 
ROOT
HETATM    1  C2  UNL     1      37.633  58.177  18.770  1.00  0.00     0.200 C 
HETATM    2  N2  UNL     1      37.105  59.305  19.275  1.00  0.00    -0.170 N 
ATOM      3  H2  UNL     1      37.781  60.039  19.487  1.00  0.00     0.186 HD
HETATM    4  C3  UNL     1      35.824  59.617  19.545  1.00  0.00     0.697 C 
HETATM    5  N6  UNL     1      34.857  58.704  19.767  1.00  0.00    -0.022 N 
ATOM      6  H6  UNL     1      34.018  59.079  20.208  1.00  0.00     0.203 HD
HETATM    7  C5  UNL     1      34.807  57.384  19.507  1.00  0.00     0.696 C 
HETATM    8  N8  UNL     1      35.801  56.607  19.050  1.00  0.00    -0.160 N 
ATOM      9  H8  UNL     1      35.641  55.604  19.145  1.00  0.00     0.187 HD
HETATM   10  C8  UNL     1      37.003  56.951  18.473  1.00  0.00     0.240 C 
ENDROOT
BRANCH  10  11
HETATM   11  N9  UNL     1      37.569  56.251  17.708  1.00  0.00    -0.382 NA
BRANCH  11  12
HETATM   12  C9  UNL     1      38.157  55.451  16.853  1.00  0.00     0.128 A 
HETATM   13  C10 UNL     1      39.297  55.883  16.147  1.00  0.00     0.049 A 
HETATM   14  C11 UNL     1      39.961  55.105  15.245  1.00  0.00     0.042 A 
HETATM   15  C12 UNL     1      39.505  53.828  15.001  1.00  0.00     0.093 A 
HETATM   16  C14 UNL     1      38.401  53.388  15.674  1.00  0.00     0.099 A 
HETATM   17  N10 UNL     1      37.974  52.047  15.374  1.00  0.00    -0.098 NA
HETATM   18  C15 UNL     1      37.707  54.161  16.598  1.00  0.00     0.107 A 
BRANCH  15  19
HETATM   19  O2  UNL     1      40.196  53.060  14.081  1.00  0.00    -0.354 OA
HETATM   20  C13 UNL     1      40.273  53.436  12.724  1.00  0.00     0.210 C 
ENDBRANCH  15  19
BRANCH  18  21
HETATM   21  C16 UNL     1      36.544  53.583  17.253  1.00  0.00     0.298 C 
HETATM   22  O3  UNL     1      35.409  53.857  16.776  1.00  0.00    -0.259 OA
BRANCH  21  23
HETATM   23  O4  UNL     1      36.579  52.765  18.348  1.00  0.00    -0.322 OA
HETATM   24  C17 UNL     1      36.371  51.368  18.318  1.00  0.00     0.213 C 
ENDBRANCH  21  23
ENDBRANCH  18  21
ENDBRANCH  11  12
ENDBRANCH  10  11
BRANCH   1  25
HETATM   25  N1  UNL     1      38.893  58.149  18.498  1.00  0.00    -0.246 N 
ATOM     26  H1  UNL     1      39.230  58.070  17.539  1.00  0.00     0.196 HD
BRANCH  25  27
HETATM   27  O1  UNL     1      39.764  58.231  19.565  1.00  0.00    -0.284 OA
HETATM   28  C1  UNL     1      40.884  59.093  19.562  1.00  0.00     0.237 C 
ENDBRANCH  25  27
ENDBRANCH   1  25
BRANCH   7  29
HETATM   29  N7  UNL     1      33.541  56.737  19.750  1.00  0.00    -0.226 N 
HETATM   30  C6  UNL     1      32.725  56.391  18.603  1.00  0.00     0.168 C 
HETATM   31  C7  UNL     1      33.086  56.439  21.073  1.00  0.00     0.168 C 
ENDBRANCH   7  29
BRANCH   4  32
HETATM   32  N3  UNL     1      35.530  60.869  19.589  1.00  0.00    -0.173 N 
HETATM   33  C4  UNL     1      34.465  61.451  20.340  1.00  0.00     0.494 C 
HETATM   34  N4  UNL     1      34.139  62.730  19.699  1.00  0.00    -0.032 N 
HETATM   35  N5  UNL     1      34.746  61.641  21.740  1.00  0.00    -0.032 N 
ATOM     36  H43 UNL     1      34.945  63.348  19.603  1.00  0.00     0.278 HD
ATOM     37  H42 UNL     1      33.925  62.638  18.707  1.00  0.00     0.278 HD
ATOM     38  H41 UNL     1      33.377  63.146  20.236  1.00  0.00     0.278 HD
ATOM     39  H53 UNL     1      35.037  60.760  22.164  1.00  0.00     0.278 HD
ATOM     40  H52 UNL     1      35.600  62.185  21.859  1.00  0.00     0.278 HD
ATOM     41  H51 UNL     1      33.985  62.056  22.277  1.00  0.00     0.278 HD
ATOM     42  H3  UNL     1      36.109  61.502  19.037  1.00  0.00     0.181 HD
ENDBRANCH   4  32
TORSDOF 9
ENDMDL
MODEL 3
REMARK VINA RESULT: -7.738284465      1.685      2.094
REMARK  9 active torsions:
REMARK  status: ('A' for Active; 'I' for Inactive)
REMARK    1  A    between atoms: O1_2  and  N1_3 
REMARK    2  A    between atoms: N1_3  and  C2_5 
REMARK    3  A    between atoms: C3_8  and  N3_9 
REMARK       I    between atoms: N3_9  and  C4_11 
REMARK       I    between atoms: C4_11  and  N4_12 
REMARK       I    between atoms: C4_11  and  N5_16 
REMARK    4  A    between atoms: C5_22  and  N7_23 
REMARK    5  A    between atoms: C8_28  and  N9_29 
REMARK    6  A    between atoms: N9_29  and  C9_30 
REMARK    7  A    between atoms: C12_33  and  O2_34 
REMARK    8  A    between atoms: C15_38  and  C16_39 
REMARK    9  A    between atoms: C16_39  and  O4_41 
ROOT
HETATM    1  C2  UNL     1      35.729  56.697  18.821  1.00  0.00     0.200 C 
HETATM    2  N2  UNL     1      35.353  57.135  20.034  1.00  0.00    -0.170 N 
ATOM      3  H2  UNL     1      34.410  56.866  20.316  1.00  0.00     0.186 HD
HETATM    4  C3  UNL     1      36.026  57.874  20.936  1.00  0.00     0.697 C 
HETATM    5  N6  UNL     1      37.054  58.688  20.626  1.00  0.00    -0.022 N 
ATOM      6  H6  UNL     1      37.288  59.366  21.351  1.00  0.00     0.203 HD
HETATM    7  C5  UNL     1      37.828  58.761  19.527  1.00  0.00     0.696 C 
HETATM    8  N8  UNL     1      37.674  58.084  18.378  1.00  0.00    -0.160 N 
ATOM      9  H8  UNL     1      38.209  58.449  17.589  1.00  0.00     0.187 HD
HETATM   10  C8  UNL     1      36.907  56.975  18.097  1.00  0.00     0.240 C 
ENDROOT
BRANCH  10  11
HETATM   11  N9  UNL     1      37.184  56.204  17.246  1.00  0.00    -0.382 NA
BRANCH  11  12
HETATM   12  C9  UNL     1      37.468  55.376  16.271  1.00  0.00     0.128 A 
HETATM   13  C10 UNL     1      37.742  55.869  14.981  1.00  0.00     0.049 A 
HETATM   14  C11 UNL     1      38.047  55.068  13.920  1.00  0.00     0.042 A 
HETATM   15  C12 UNL     1      38.092  53.704  14.105  1.00  0.00     0.093 A 
HETATM   16  C14 UNL     1      37.829  53.203  15.348  1.00  0.00     0.099 A 
HETATM   17  N10 UNL     1      37.890  51.771  15.475  1.00  0.00    -0.098 NA
HETATM   18  C15 UNL     1      37.517  53.997  16.444  1.00  0.00     0.107 A 
BRANCH  15  19
HETATM   19  O2  UNL     1      38.402  52.913  13.012  1.00  0.00    -0.354 OA
HETATM   20  C13 UNL     1      37.459  52.671  11.992  1.00  0.00     0.210 C 
ENDBRANCH  15  19
BRANCH  18  21
HETATM   21  C16 UNL     1      37.256  53.349  17.721  1.00  0.00     0.298 C 
HETATM   22  O3  UNL     1      36.059  53.064  17.997  1.00  0.00    -0.259 OA
BRANCH  21  23
HETATM   23  O4  UNL     1      38.204  53.022  18.649  1.00  0.00    -0.322 OA
HETATM   24  C17 UNL     1      38.179  51.862  19.454  1.00  0.00     0.213 C 
ENDBRANCH  21  23
ENDBRANCH  18  21
ENDBRANCH  11  12
ENDBRANCH  10  11
BRANCH   1  25
HETATM   25  N1  UNL     1      34.942  55.907  18.175  1.00  0.00    -0.246 N 
ATOM     26  H1  UNL     1      35.304  55.208  17.525  1.00  0.00     0.196 HD
BRANCH  25  27
HETATM   27  O1  UNL     1      33.589  56.050  18.402  1.00  0.00    -0.284 OA
HETATM   28  C1  UNL     1      32.651  56.143  17.348  1.00  0.00     0.237 C 
ENDBRANCH  25  27
ENDBRANCH   1  25
BRANCH   7  29
HETATM   29  N7  UNL     1      38.945  59.670  19.596  1.00  0.00    -0.226 N 
HETATM   30  C6  UNL     1      38.803  60.858  20.414  1.00  0.00     0.168 C 
HETATM   31  C7  UNL     1      40.164  59.426  18.887  1.00  0.00     0.168 C 
ENDBRANCH   7  29
BRANCH   4  32
HETATM   32  N3  UNL     1      35.644  57.780  22.162  1.00  0.00    -0.173 N 
HETATM   33  C4  UNL     1      35.598  58.848  23.106  1.00  0.00     0.494 C 
HETATM   34  N4  UNL     1      35.659  58.243  24.442  1.00  0.00    -0.032 N 
HETATM   35  N5  UNL     1      34.449  59.709  22.991  1.00  0.00    -0.032 N 
ATOM     36  H43 UNL     1      34.936  57.540  24.597  1.00  0.00     0.278 HD
ATOM     37  H42 UNL     1      36.466  57.631  24.567  1.00  0.00     0.278 HD
ATOM     38  H41 UNL     1      35.627  59.007  25.117  1.00  0.00     0.278 HD
ATOM     39  H53 UNL     1      34.375  60.074  22.041  1.00  0.00     0.278 HD
ATOM     40  H52 UNL     1      33.590  59.161  23.037  1.00  0.00     0.278 HD
ATOM     41  H51 UNL     1      34.417  60.473  23.666  1.00  0.00     0.278 HD
ATOM     42  H3  UNL     1      35.348  56.859  22.487  1.00  0.00     0.181 HD
ENDBRANCH   4  32
TORSDOF 9
ENDMDL
MODEL 4
REMARK VINA RESULT: -7.567455808      2.956      7.616
REMARK  9 active torsions:
REMARK  status: ('A' for Active; 'I' for Inactive)
REMARK    1  A    between atoms: O1_2  and  N1_3 
REMARK    2  A    between atoms: N1_3  and  C2_5 
REMARK    3  A    between atoms: C3_8  and  N3_9 
REMARK       I    between atoms: N3_9  and  C4_11 
REMARK       I    between atoms: C4_11  and  N4_12 
REMARK       I    between atoms: C4_11  and  N5_16 
REMARK    4  A    between atoms: C5_22  and  N7_23 
REMARK    5  A    between atoms: C8_28  and  N9_29 
REMARK    6  A    between atoms: N9_29  and  C9_30 
REMARK    7  A    between atoms: C12_33  and  O2_34 
REMARK    8  A    between atoms: C15_38  and  C16_39 
REMARK    9  A    between atoms: C16_39  and  O4_41 
ROOT
HETATM    1  C2  UNL     1      37.659  54.726  15.604  1.00  0.00     0.200 C 
HETATM    2  N2  UNL     1      37.837  53.648  14.821  1.00  0.00    -0.170 N 
ATOM      3  H2  UNL     1      37.800  53.834  13.819  1.00  0.00     0.186 HD
HETATM    4  C3  UNL     1      38.057  52.363  15.153  1.00  0.00     0.697 C 
HETATM    5  N6  UNL     1      37.715  51.822  16.339  1.00  0.00    -0.022 N 
ATOM      6  H6  UNL     1      37.703  50.802  16.349  1.00  0.00     0.203 HD
HETATM    7  C5  UNL     1      37.385  52.393  17.513  1.00  0.00     0.696 C 
HETATM    8  N8  UNL     1      37.199  53.699  17.758  1.00  0.00    -0.160 N 
ATOM      9  H8  UNL     1      36.725  53.908  18.637  1.00  0.00     0.187 HD
HETATM   10  C8  UNL     1      37.548  54.801  17.008  1.00  0.00     0.240 C 
ENDROOT
BRANCH  10  11
HETATM   11  N9  UNL     1      37.769  55.858  17.488  1.00  0.00    -0.382 NA
BRANCH  11  12
HETATM   12  C9  UNL     1      38.002  57.012  18.062  1.00  0.00     0.128 A 
HETATM   13  C10 UNL     1      39.258  57.632  17.921  1.00  0.00     0.049 A 
HETATM   14  C11 UNL     1      39.570  58.833  18.487  1.00  0.00     0.042 A 
HETATM   15  C12 UNL     1      38.618  59.484  19.241  1.00  0.00     0.093 A 
HETATM   16  C14 UNL     1      37.393  58.900  19.393  1.00  0.00     0.099 A 
HETATM   17  N10 UNL     1      36.443  59.628  20.192  1.00  0.00    -0.098 NA
HETATM   18  C15 UNL     1      37.050  57.678  18.826  1.00  0.00     0.107 A 
BRANCH  15  19
HETATM   19  O2  UNL     1      38.961  60.699  19.806  1.00  0.00    -0.354 OA
HETATM   20  C13 UNL     1      40.139  60.847  20.567  1.00  0.00     0.210 C 
ENDBRANCH  15  19
BRANCH  18  21
HETATM   21  C16 UNL     1      35.712  57.156  19.057  1.00  0.00     0.298 C 
HETATM   22  O3  UNL     1      35.558  56.344  20.009  1.00  0.00    -0.259 OA
BRANCH  21  23
HETATM   23  O4  UNL     1      34.602  57.473  18.324  1.00  0.00    -0.322 OA
HETATM   24  C17 UNL     1      33.338  56.861  18.468  1.00  0.00     0.213 C 
ENDBRANCH  21  23
ENDBRANCH  18  21
ENDBRANCH  11  12
ENDBRANCH  10  11
BRANCH   1  25
HETATM   25  N1  UNL     1      37.568  55.887  15.051  1.00  0.00    -0.246 N 
ATOM     26  H1  UNL     1      37.318  56.716  15.590  1.00  0.00     0.196 HD
BRANCH  25  27
HETATM   27  O1  UNL     1      37.823  55.955  13.698  1.00  0.00    -0.284 OA
HETATM   28  C1  UNL     1      39.136  55.914  13.173  1.00  0.00     0.237 C 
ENDBRANCH  25  27
ENDBRANCH   1  25
BRANCH   7  29
HETATM   29  N7  UNL     1      37.213  51.496  18.629  1.00  0.00    -0.226 N 
HETATM   30  C6  UNL     1      36.146  50.518  18.555  1.00  0.00     0.168 C 
HETATM   31  C7  UNL     1      38.058  51.553  19.782  1.00  0.00     0.168 C 
ENDBRANCH   7  29
BRANCH   4  32
HETATM   32  N3  UNL     1      38.632  51.626  14.267  1.00  0.00    -0.173 N 
HETATM   33  C4  UNL     1      38.217  51.476  12.911  1.00  0.00     0.494 C 
HETATM   34  N4  UNL     1      38.754  50.194  12.438  1.00  0.00    -0.032 N 
HETATM   35  N5  UNL     1      38.615  52.547  12.034  1.00  0.00    -0.032 N 
ATOM     36  H43 UNL     1      39.764  50.113  12.560  1.00  0.00     0.278 HD
ATOM     37  H42 UNL     1      38.487  49.406  13.028  1.00  0.00     0.278 HD
ATOM     38  H41 UNL     1      38.457  50.087  11.468  1.00  0.00     0.278 HD
ATOM     39  H53 UNL     1      38.296  53.443  12.403  1.00  0.00     0.278 HD
ATOM     40  H52 UNL     1      39.625  52.686  12.081  1.00  0.00     0.278 HD
ATOM     41  H51 UNL     1      38.318  52.440  11.064  1.00  0.00     0.278 HD
ATOM     42  H3  UNL     1      39.457  51.103  14.562  1.00  0.00     0.181 HD
ENDBRANCH   4  32
TORSDOF 9
ENDMDL
MODEL 5
REMARK VINA RESULT: -7.479064795      2.443      3.835
REMARK  9 active torsions:
REMARK  status: ('A' for Active; 'I' for Inactive)
REMARK    1  A    between atoms: O1_2  and  N1_3 
REMARK    2  A    between atoms: N1_3  and  C2_5 
REMARK    3  A    between atoms: C3_8  and  N3_9 
REMARK       I    between atoms: N3_9  and  C4_11 
REMARK       I    between atoms: C4_11  and  N4_12 
REMARK       I    between atoms: C4_11  and  N5_16 
REMARK    4  A    between atoms: C5_22  and  N7_23 
REMARK    5  A    between atoms: C8_28  and  N9_29 
REMARK    6  A    between atoms: N9_29  and  C9_30 
REMARK    7  A    between atoms: C12_33  and  O2_34 
REMARK    8  A    between atoms: C15_38  and  C16_39 
REMARK    9  A    between atoms: C16_39  and  O4_41 
ROOT
HETATM    1  C2  UNL     1      37.432  58.044  18.177  1.00  0.00     0.200 C 
HETATM    2  N2  UNL     1      37.042  59.162  18.811  1.00  0.00    -0.170 N 
ATOM      3  H2  UNL     1      37.754  59.889  18.878  1.00  0.00     0.186 HD
HETATM    4  C3  UNL     1      35.858  59.472  19.370  1.00  0.00     0.697 C 
HETATM    5  N6  UNL     1      34.959  58.558  19.787  1.00  0.00    -0.022 N 
ATOM      6  H6  UNL     1      34.244  58.927  20.414  1.00  0.00     0.203 HD
HETATM    7  C5  UNL     1      34.840  57.244  19.519  1.00  0.00     0.696 C 
HETATM    8  N8  UNL     1      35.698  56.474  18.833  1.00  0.00    -0.160 N 
ATOM      9  H8  UNL     1      35.556  55.469  18.942  1.00  0.00     0.187 HD
HETATM   10  C8  UNL     1      36.741  56.826  18.005  1.00  0.00     0.240 C 
ENDROOT
BRANCH  10  11
HETATM   11  N9  UNL     1      37.114  56.141  17.118  1.00  0.00    -0.382 NA
BRANCH  11  12
HETATM   12  C9  UNL     1      37.485  55.361  16.133  1.00  0.00     0.128 A 
HETATM   13  C10 UNL     1      37.845  55.915  14.889  1.00  0.00     0.049 A 
HETATM   14  C11 UNL     1      38.242  55.165  13.821  1.00  0.00     0.042 A 
HETATM   15  C12 UNL     1      38.298  53.795  13.950  1.00  0.00     0.093 A 
HETATM   16  C14 UNL     1      37.952  53.236  15.147  1.00  0.00     0.099 A 
HETATM   17  N10 UNL     1      38.030  51.801  15.218  1.00  0.00    -0.098 NA
HETATM   18  C15 UNL     1      37.545  53.977  16.250  1.00  0.00     0.107 A 
BRANCH  15  19
HETATM   19  O2  UNL     1      38.703  53.058  12.851  1.00  0.00    -0.354 OA
HETATM   20  C13 UNL     1      38.714  53.619  11.557  1.00  0.00     0.210 C 
ENDBRANCH  15  19
BRANCH  18  21
HETATM   21  C16 UNL     1      37.201  53.270  17.474  1.00  0.00     0.298 C 
HETATM   22  O3  UNL     1      38.003  53.358  18.444  1.00  0.00    -0.259 OA
BRANCH  21  23
HETATM   23  O4  UNL     1      36.077  52.515  17.662  1.00  0.00    -0.322 OA
HETATM   24  C17 UNL     1      36.071  51.171  18.094  1.00  0.00     0.213 C 
ENDBRANCH  21  23
ENDBRANCH  18  21
ENDBRANCH  11  12
ENDBRANCH  10  11
BRANCH   1  25
HETATM   25  N1  UNL     1      38.598  58.017  17.626  1.00  0.00    -0.246 N 
ATOM     26  H1  UNL     1      38.827  57.343  16.896  1.00  0.00     0.196 HD
BRANCH  25  27
HETATM   27  O1  UNL     1      39.519  58.942  18.071  1.00  0.00    -0.284 OA
HETATM   28  C1  UNL     1      40.369  58.693  19.173  1.00  0.00     0.237 C 
ENDBRANCH  25  27
ENDBRANCH   1  25
BRANCH   7  29
HETATM   29  N7  UNL     1      33.657  56.597  20.029  1.00  0.00    -0.226 N 
HETATM   30  C6  UNL     1      32.595  56.288  19.092  1.00  0.00     0.168 C 
HETATM   31  C7  UNL     1      33.515  56.263  21.413  1.00  0.00     0.168 C 
ENDBRANCH   7  29
BRANCH   4  32
HETATM   32  N3  UNL     1      35.591  60.725  19.504  1.00  0.00    -0.173 N 
HETATM   33  C4  UNL     1      34.624  61.282  20.393  1.00  0.00     0.494 C 
HETATM   34  N4  UNL     1      34.252  62.594  19.853  1.00  0.00    -0.032 N 
HETATM   35  N5  UNL     1      35.057  61.400  21.762  1.00  0.00    -0.032 N 
ATOM     36  H43 UNL     1      35.053  63.207  19.698  1.00  0.00     0.278 HD
ATOM     37  H42 UNL     1      33.930  62.553  18.886  1.00  0.00     0.278 HD
ATOM     38  H41 UNL     1      33.560  62.992  20.489  1.00  0.00     0.278 HD
ATOM     39  H53 UNL     1      35.378  60.496  22.110  1.00  0.00     0.278 HD
ATOM     40  H52 UNL     1      35.929  61.928  21.813  1.00  0.00     0.278 HD
ATOM     41  H51 UNL     1      34.366  61.798  22.398  1.00  0.00     0.278 HD
ATOM     42  H3  UNL     1      36.118  61.377  18.923  1.00  0.00     0.181 HD
ENDBRANCH   4  32
TORSDOF 9
ENDMDL
