MODEL 1
REMARK VINA RESULT: -7.933122733      0.000      0.000
REMARK  17 active torsions:
REMARK  status: ('A' for Active; 'I' for Inactive)
REMARK    1  A    between atoms: C2_2  and  C4_5 
REMARK    2  A    between atoms: C4_5  and  N1_6 
REMARK    3  A    between atoms: N1_6  and  C5_9 
REMARK    4  A    between atoms: C5_9  and  C6_10 
REMARK    5  A    between atoms: C6_10  and  N2_11 
REMARK    6  A    between atoms: N2_11  and  C7_13 
REMARK    7  A    between atoms: C7_13  and  C8_14 
REMARK    8  A    between atoms: C8_14  and  N3_15 
REMARK    9  A    between atoms: N3_15  and  C9_17 
REMARK   10  A    between atoms: C13_22  and  O1_23 
REMARK   11  A    between atoms: O1_23  and  C14_24 
REMARK   12  A    between atoms: C15_26  and  C16_27 
REMARK   13  A    between atoms: C16_27  and  O3_28 
REMARK   14  A    between atoms: C17_30  and  O4_31 
REMARK   15  A    between atoms: C18_33  and  O5_34 
REMARK   16  A    between atoms: C19_36  and  O6_37 
REMARK   17  A    between atoms: C24_44  and  N4_45 
ROOT
HETATM    1  C9  UNL     1      70.495  20.018  28.605  1.00  0.00     0.072 A 
HETATM    2  C10 UNL     1      69.976  21.103  29.304  1.00  0.00     0.074 A 
HETATM    3  C11 UNL     1      70.732  22.191  29.635  1.00  0.00     0.121 A 
HETATM    4  F1  UNL     1      70.236  23.260  30.320  1.00  0.00    -0.206 F 
HETATM    5  C12 UNL     1      72.080  22.235  29.265  1.00  0.00     0.082 A 
HETATM    6  C13 UNL     1      72.636  21.184  28.572  1.00  0.00     0.116 A 
HETATM    7  C20 UNL     1      71.820  20.088  28.256  1.00  0.00     0.176 A 
HETATM    8  F2  UNL     1      72.354  19.049  27.574  1.00  0.00    -0.201 F 
ENDROOT
BRANCH   1   9
HETATM    9  N3  UNL     1      69.694  18.897  28.268  1.00  0.00    -0.385 N 
ATOM     10  H3  UNL     1      69.930  18.362  27.433  1.00  0.00     0.159 HD
BRANCH   9  11
HETATM   11  C8  UNL     1      68.561  18.484  29.053  1.00  0.00     0.152 C 
BRANCH  11  12
HETATM   12  C7  UNL     1      68.078  17.105  28.736  1.00  0.00     0.070 C 
HETATM   13  C21 UNL     1      68.944  16.048  29.472  1.00  0.00     0.034 C 
HETATM   14  C22 UNL     1      68.391  14.800  28.787  1.00  0.00     0.005 C 
HETATM   15  C23 UNL     1      68.042  15.235  27.356  1.00  0.00     0.035 C 
HETATM   16  C24 UNL     1      68.446  16.682  27.326  1.00  0.00     0.212 C 
BRANCH  12  17
HETATM   17  N2  UNL     1      66.753  16.792  29.136  1.00  0.00    -0.408 N 
ATOM     18  H2  UNL     1      66.144  16.235  28.536  1.00  0.00     0.154 HD
BRANCH  17  19
HETATM   19  C6  UNL     1      66.295  17.271  30.390  1.00  0.00     0.142 C 
BRANCH  19  20
HETATM   20  C5  UNL     1      64.951  16.613  30.651  1.00  0.00     0.251 C 
BRANCH  20  21
HETATM   21  N1  UNL     1      64.700  16.321  32.029  1.00  0.00    -0.072 N 
ATOM     22  H12 UNL     1      64.963  15.362  32.257  1.00  0.00     0.277 HD
ATOM     23  H11 UNL     1      63.700  16.264  32.220  1.00  0.00     0.277 HD
BRANCH  21  24
HETATM   24  C4  UNL     1      65.341  17.254  32.897  1.00  0.00     0.257 C 
BRANCH  24  25
HETATM   25  C2  UNL     1      64.558  17.494  34.175  1.00  0.00     0.053 C 
HETATM   26  C1  UNL     1      63.941  16.142  34.553  1.00  0.00     0.034 C 
HETATM   27  C3  UNL     1      65.536  17.842  35.293  1.00  0.00     0.034 C 
HETATM   28 CL1  UNL     1      63.296  18.712  33.983  1.00  0.00    -0.118 Cl
ENDBRANCH  24  25
ENDBRANCH  21  24
ENDBRANCH  20  21
ENDBRANCH  19  20
ENDBRANCH  17  19
ENDBRANCH  12  17
BRANCH  16  29
HETATM   29  N4  UNL     1      67.884  17.467  26.289  1.00  0.00    -0.073 N 
ATOM     30  H43 UNL     1      67.398  16.868  25.621  1.00  0.00     0.274 HD
ATOM     31  H42 UNL     1      67.100  18.010  26.648  1.00  0.00     0.274 HD
ATOM     32  H41 UNL     1      68.538  18.078  25.800  1.00  0.00     0.274 HD
ENDBRANCH  16  29
ENDBRANCH  11  12
ENDBRANCH   9  11
ENDBRANCH   1   9
BRANCH   6  33
HETATM   33  O1  UNL     1      73.953  21.120  28.157  1.00  0.00    -0.314 OA
BRANCH  33  34
HETATM   34  C14 UNL     1      74.810  22.190  27.983  1.00  0.00     0.298 C 
HETATM   35  O2  UNL     1      75.162  22.368  26.643  1.00  0.00    -0.348 OA
HETATM   36  C15 UNL     1      75.735  23.594  26.442  1.00  0.00     0.179 C 
HETATM   37  C17 UNL     1      76.231  24.268  27.679  1.00  0.00     0.180 C 
HETATM   38  C18 UNL     1      76.823  23.344  28.692  1.00  0.00     0.183 C 
HETATM   39  C19 UNL     1      76.150  21.981  28.708  1.00  0.00     0.205 C 
BRANCH  36  40
HETATM   40  C16 UNL     1      74.719  24.504  25.782  1.00  0.00     0.198 C 
BRANCH  40  41
HETATM   41  O3  UNL     1      74.137  25.388  26.667  1.00  0.00    -0.398 OA
ATOM     42  H3  UNL     1      73.555  26.007  26.241  1.00  0.00     0.209 HD
ENDBRANCH  40  41
ENDBRANCH  36  40
BRANCH  37  43
HETATM   43  O4  UNL     1      77.214  25.199  27.274  1.00  0.00    -0.390 OA
ATOM     44  H4  UNL     1      77.999  24.703  27.071  1.00  0.00     0.210 HD
ENDBRANCH  37  43
BRANCH  38  45
HETATM   45  O5  UNL     1      78.207  23.217  28.562  1.00  0.00    -0.390 OA
ATOM     46  H5  UNL     1      78.686  23.784  29.156  1.00  0.00     0.210 HD
ENDBRANCH  38  45
BRANCH  39  47
HETATM   47  O6  UNL     1      76.887  21.115  27.922  1.00  0.00    -0.388 OA
ATOM     48  H6  UNL     1      77.007  20.325  28.435  1.00  0.00     0.210 HD
ENDBRANCH  39  47
ENDBRANCH  33  34
ENDBRANCH   6  33
TORSDOF 17
ENDMDL
MODEL 2
REMARK VINA RESULT: -7.895584014      1.192      1.440
REMARK  17 active torsions:
REMARK  status: ('A' for Active; 'I' for Inactive)
REMARK    1  A    between atoms: C2_2  and  C4_5 
REMARK    2  A    between atoms: C4_5  and  N1_6 
REMARK    3  A    between atoms: N1_6  and  C5_9 
REMARK    4  A    between atoms: C5_9  and  C6_10 
REMARK    5  A    between atoms: C6_10  and  N2_11 
REMARK    6  A    between atoms: N2_11  and  C7_13 
REMARK    7  A    between atoms: C7_13  and  C8_14 
REMARK    8  A    between atoms: C8_14  and  N3_15 
REMARK    9  A    between atoms: N3_15  and  C9_17 
REMARK   10  A    between atoms: C13_22  and  O1_23 
REMARK   11  A    between atoms: O1_23  and  C14_24 
REMARK   12  A    between atoms: C15_26  and  C16_27 
REMARK   13  A    between atoms: C16_27  and  O3_28 
REMARK   14  A    between atoms: C17_30  and  O4_31 
REMARK   15  A    between atoms: C18_33  and  O5_34 
REMARK   16  A    between atoms: C19_36  and  O6_37 
REMARK   17  A    between atoms: C24_44  and  N4_45 
ROOT
HETATM    1  C9  UNL     1      70.538  20.157  28.422  1.00  0.00     0.072 A 
HETATM    2  C10 UNL     1      70.001  21.196  29.176  1.00  0.00     0.074 A 
HETATM    3  C11 UNL     1      70.762  22.228  29.645  1.00  0.00     0.121 A 
HETATM    4  F1  UNL     1      70.249  23.252  30.385  1.00  0.00    -0.206 F 
HETATM    5  C12 UNL     1      72.132  22.260  29.369  1.00  0.00     0.082 A 
HETATM    6  C13 UNL     1      72.706  21.253  28.627  1.00  0.00     0.116 A 
HETATM    7  C20 UNL     1      71.884  20.213  28.166  1.00  0.00     0.176 A 
HETATM    8  F2  UNL     1      72.435  19.217  27.435  1.00  0.00    -0.201 F 
ENDROOT
BRANCH   1   9
HETATM    9  N3  UNL     1      69.731  19.093  27.940  1.00  0.00    -0.385 N 
ATOM     10  H3  UNL     1      69.025  19.299  27.234  1.00  0.00     0.159 HD
BRANCH   9  11
HETATM   11  C8  UNL     1      69.868  17.738  28.405  1.00  0.00     0.152 C 
BRANCH  11  12
HETATM   12  C7  UNL     1      68.575  16.992  28.478  1.00  0.00     0.070 C 
HETATM   13  C21 UNL     1      68.799  15.586  29.096  1.00  0.00     0.034 C 
HETATM   14  C22 UNL     1      67.413  15.006  28.821  1.00  0.00     0.005 C 
HETATM   15  C23 UNL     1      66.953  15.643  27.502  1.00  0.00     0.035 C 
HETATM   16  C24 UNL     1      68.115  16.512  27.114  1.00  0.00     0.212 C 
BRANCH  12  17
HETATM   17  N2  UNL     1      67.562  17.560  29.293  1.00  0.00    -0.408 N 
ATOM     18  H2  UNL     1      66.575  17.392  29.093  1.00  0.00     0.154 HD
BRANCH  17  19
HETATM   19  C6  UNL     1      67.953  18.366  30.392  1.00  0.00     0.142 C 
BRANCH  19  20
HETATM   20  C5  UNL     1      67.705  17.551  31.650  1.00  0.00     0.251 C 
BRANCH  20  21
HETATM   21  N1  UNL     1      66.403  17.727  32.215  1.00  0.00    -0.072 N 
ATOM     22  H12 UNL     1      65.734  18.040  31.512  1.00  0.00     0.277 HD
ATOM     23  H11 UNL     1      66.375  18.536  32.836  1.00  0.00     0.277 HD
BRANCH  21  24
HETATM   24  C4  UNL     1      65.945  16.550  32.878  1.00  0.00     0.257 C 
BRANCH  24  25
HETATM   25  C2  UNL     1      64.831  15.851  32.122  1.00  0.00     0.053 C 
HETATM   26  C1  UNL     1      65.246  14.378  32.024  1.00  0.00     0.034 C 
HETATM   27  C3  UNL     1      63.566  15.879  32.975  1.00  0.00     0.034 C 
HETATM   28 CL1  UNL     1      64.571  16.525  30.513  1.00  0.00    -0.118 Cl
ENDBRANCH  24  25
ENDBRANCH  21  24
ENDBRANCH  20  21
ENDBRANCH  19  20
ENDBRANCH  17  19
ENDBRANCH  12  17
BRANCH  16  29
HETATM   29  N4  UNL     1      67.845  17.533  26.169  1.00  0.00    -0.073 N 
ATOM     30  H43 UNL     1      68.256  17.293  25.267  1.00  0.00     0.274 HD
ATOM     31  H42 UNL     1      66.855  17.528  25.923  1.00  0.00     0.274 HD
ATOM     32  H41 UNL     1      68.132  18.472  26.445  1.00  0.00     0.274 HD
ENDBRANCH  16  29
ENDBRANCH  11  12
ENDBRANCH   9  11
ENDBRANCH   1   9
BRANCH   6  33
HETATM   33  O1  UNL     1      74.045  21.181  28.294  1.00  0.00    -0.314 OA
BRANCH  33  34
HETATM   34  C14 UNL     1      74.891  22.251  28.068  1.00  0.00     0.298 C 
HETATM   35  O2  UNL     1      75.191  22.406  26.713  1.00  0.00    -0.348 OA
HETATM   36  C15 UNL     1      75.752  23.629  26.469  1.00  0.00     0.179 C 
HETATM   37  C17 UNL     1      76.292  24.326  27.673  1.00  0.00     0.180 C 
HETATM   38  C18 UNL     1      76.926  23.423  28.680  1.00  0.00     0.183 C 
HETATM   39  C19 UNL     1      76.259  22.058  28.745  1.00  0.00     0.205 C 
BRANCH  36  40
HETATM   40  C16 UNL     1      74.708  24.525  25.832  1.00  0.00     0.198 C 
BRANCH  40  41
HETATM   41  O3  UNL     1      74.064  25.332  26.747  1.00  0.00    -0.398 OA
ATOM     42  H3  UNL     1      74.586  26.081  27.011  1.00  0.00     0.209 HD
ENDBRANCH  40  41
ENDBRANCH  36  40
BRANCH  37  43
HETATM   43  O4  UNL     1      77.256  25.254  27.215  1.00  0.00    -0.390 OA
ATOM     44  H4  UNL     1      77.234  25.994  27.811  1.00  0.00     0.210 HD
ENDBRANCH  37  43
BRANCH  38  45
HETATM   45  O5  UNL     1      78.305  23.297  28.499  1.00  0.00    -0.390 OA
ATOM     46  H5  UNL     1      78.602  22.397  28.557  1.00  0.00     0.210 HD
ENDBRANCH  38  45
BRANCH  39  47
HETATM   47  O6  UNL     1      76.969  21.181  27.947  1.00  0.00    -0.388 OA
ATOM     48  H6  UNL     1      77.718  20.900  28.458  1.00  0.00     0.210 HD
ENDBRANCH  39  47
ENDBRANCH  33  34
ENDBRANCH   6  33
TORSDOF 17
ENDMDL
MODEL 3
REMARK VINA RESULT: -7.785560930      5.193      9.666
REMARK  17 active torsions:
REMARK  status: ('A' for Active; 'I' for Inactive)
REMARK    1  A    between atoms: C2_2  and  C4_5 
REMARK    2  A    between atoms: C4_5  and  N1_6 
REMARK    3  A    between atoms: N1_6  and  C5_9 
REMARK    4  A    between atoms: C5_9  and  C6_10 
REMARK    5  A    between atoms: C6_10  and  N2_11 
REMARK    6  A    between atoms: N2_11  and  C7_13 
REMARK    7  A    between atoms: C7_13  and  C8_14 
REMARK    8  A    between atoms: C8_14  and  N3_15 
REMARK    9  A    between atoms: N3_15  and  C9_17 
REMARK   10  A    between atoms: C13_22  and  O1_23 
REMARK   11  A    between atoms: O1_23  and  C14_24 
REMARK   12  A    between atoms: C15_26  and  C16_27 
REMARK   13  A    between atoms: C16_27  and  O3_28 
REMARK   14  A    between atoms: C17_30  and  O4_31 
REMARK   15  A    between atoms: C18_33  and  O5_34 
REMARK   16  A    between atoms: C19_36  and  O6_37 
REMARK   17  A    between atoms: C24_44  and  N4_45 
ROOT
HETATM    1  C9  UNL     1      71.894  20.484  28.221  1.00  0.00     0.072 A 
HETATM    2  C10 UNL     1      71.090  21.355  28.950  1.00  0.00     0.074 A 
HETATM    3  C11 UNL     1      69.825  21.025  29.345  1.00  0.00     0.121 A 
HETATM    4  F1  UNL     1      69.027  21.868  30.059  1.00  0.00    -0.206 F 
HETATM    5  C12 UNL     1      69.301  19.772  29.015  1.00  0.00     0.082 A 
HETATM    6  C13 UNL     1      70.061  18.879  28.295  1.00  0.00     0.116 A 
HETATM    7  C20 UNL     1      71.355  19.262  27.911  1.00  0.00     0.176 A 
HETATM    8  F2  UNL     1      72.114  18.394  27.203  1.00  0.00    -0.201 F 
ENDROOT
BRANCH   1   9
HETATM    9  N3  UNL     1      73.208  20.843  27.822  1.00  0.00    -0.385 N 
ATOM     10  H3  UNL     1      73.453  20.772  26.835  1.00  0.00     0.159 HD
BRANCH   9  11
HETATM   11  C8  UNL     1      74.207  21.304  28.750  1.00  0.00     0.152 C 
BRANCH  11  12
HETATM   12  C7  UNL     1      74.516  22.761  28.629  1.00  0.00     0.070 C 
HETATM   13  C21 UNL     1      73.773  23.369  27.409  1.00  0.00     0.034 C 
HETATM   14  C22 UNL     1      74.451  24.738  27.404  1.00  0.00     0.005 C 
HETATM   15  C23 UNL     1      75.885  24.490  27.894  1.00  0.00     0.035 C 
HETATM   16  C24 UNL     1      75.923  23.005  28.115  1.00  0.00     0.212 C 
BRANCH  12  17
HETATM   17  N2  UNL     1      74.117  23.585  29.712  1.00  0.00    -0.408 N 
ATOM     18  H2  UNL     1      74.308  24.587  29.705  1.00  0.00     0.154 HD
BRANCH  17  19
HETATM   19  C6  UNL     1      73.445  22.982  30.807  1.00  0.00     0.142 C 
BRANCH  19  20
HETATM   20  C5  UNL     1      72.307  23.912  31.194  1.00  0.00     0.251 C 
BRANCH  20  21
HETATM   21  N1  UNL     1      72.257  24.226  32.589  1.00  0.00    -0.072 N 
ATOM     22  H12 UNL     1      71.296  24.359  32.904  1.00  0.00     0.277 HD
ATOM     23  H11 UNL     1      72.618  25.162  32.771  1.00  0.00     0.277 HD
BRANCH  21  24
HETATM   24  C4  UNL     1      72.931  23.249  33.380  1.00  0.00     0.257 C 
BRANCH  24  25
HETATM   25  C2  UNL     1      73.624  23.853  34.587  1.00  0.00     0.053 C 
HETATM   26  C1  UNL     1      72.642  23.709  35.755  1.00  0.00     0.034 C 
HETATM   27  C3  UNL     1      74.834  22.992  34.941  1.00  0.00     0.034 C 
HETATM   28 CL1  UNL     1      74.053  25.548  34.350  1.00  0.00    -0.118 Cl
ENDBRANCH  24  25
ENDBRANCH  21  24
ENDBRANCH  20  21
ENDBRANCH  19  20
ENDBRANCH  17  19
ENDBRANCH  12  17
BRANCH  16  29
HETATM   29  N4  UNL     1      76.966  22.521  28.944  1.00  0.00    -0.073 N 
ATOM     30  H43 UNL     1      76.888  22.928  29.876  1.00  0.00     0.274 HD
ATOM     31  H42 UNL     1      76.810  21.537  29.162  1.00  0.00     0.274 HD
ATOM     32  H41 UNL     1      77.910  22.654  28.581  1.00  0.00     0.274 HD
ENDBRANCH  16  29
ENDBRANCH  11  12
ENDBRANCH   9  11
ENDBRANCH   1   9
BRANCH   6  33
HETATM   33  O1  UNL     1      69.648  17.616  27.913  1.00  0.00    -0.314 OA
BRANCH  33  34
HETATM   34  C14 UNL     1      68.563  16.923  28.416  1.00  0.00     0.298 C 
HETATM   35  O2  UNL     1      68.839  15.563  28.578  1.00  0.00    -0.348 OA
HETATM   36  C15 UNL     1      67.895  14.958  29.360  1.00  0.00     0.179 C 
HETATM   37  C17 UNL     1      66.619  15.719  29.511  1.00  0.00     0.180 C 
HETATM   38  C18 UNL     1      66.187  16.452  28.283  1.00  0.00     0.183 C 
HETATM   39  C19 UNL     1      67.359  16.960  27.459  1.00  0.00     0.205 C 
BRANCH  36  40
HETATM   40  C16 UNL     1      68.477  14.734  30.741  1.00  0.00     0.198 C 
BRANCH  40  41
HETATM   41  O3  UNL     1      67.895  15.531  31.705  1.00  0.00    -0.398 OA
ATOM     42  H3  UNL     1      68.138  15.280  32.588  1.00  0.00     0.209 HD
ENDBRANCH  40  41
ENDBRANCH  36  40
BRANCH  37  43
HETATM   43  O4  UNL     1      65.620  14.784  29.865  1.00  0.00    -0.390 OA
ATOM     44  H4  UNL     1      64.872  14.951  29.302  1.00  0.00     0.210 HD
ENDBRANCH  37  43
BRANCH  38  45
HETATM   45  O5  UNL     1      65.306  15.709  27.494  1.00  0.00    -0.390 OA
ATOM     46  H5  UNL     1      64.394  15.879  27.702  1.00  0.00     0.210 HD
ENDBRANCH  38  45
BRANCH  39  47
HETATM   47  O6  UNL     1      67.627  16.043  26.460  1.00  0.00    -0.388 OA
ATOM     48  H6  UNL     1      67.559  15.184  26.860  1.00  0.00     0.210 HD
ENDBRANCH  39  47
ENDBRANCH  33  34
ENDBRANCH   6  33
TORSDOF 17
ENDMDL
MODEL 4
REMARK VINA RESULT: -7.695570056      6.170      8.360
REMARK  17 active torsions:
REMARK  status: ('A' for Active; 'I' for Inactive)
REMARK    1  A    between atoms: C2_2  and  C4_5 
REMARK    2  A    between atoms: C4_5  and  N1_6 
REMARK    3  A    between atoms: N1_6  and  C5_9 
REMARK    4  A    between atoms: C5_9  and  C6_10 
REMARK    5  A    between atoms: C6_10  and  N2_11 
REMARK    6  A    between atoms: N2_11  and  C7_13 
REMARK    7  A    between atoms: C7_13  and  C8_14 
REMARK    8  A    between atoms: C8_14  and  N3_15 
REMARK    9  A    between atoms: N3_15  and  C9_17 
REMARK   10  A    between atoms: C13_22  and  O1_23 
REMARK   11  A    between atoms: O1_23  and  C14_24 
REMARK   12  A    between atoms: C15_26  and  C16_27 
REMARK   13  A    between atoms: C16_27  and  O3_28 
REMARK   14  A    between atoms: C17_30  and  O4_31 
REMARK   15  A    between atoms: C18_33  and  O5_34 
REMARK   16  A    between atoms: C19_36  and  O6_37 
REMARK   17  A    between atoms: C24_44  and  N4_45 
ROOT
HETATM    1  C9  UNL     1      73.609  21.676  31.195  1.00  0.00     0.072 A 
HETATM    2  C10 UNL     1      72.278  21.831  30.819  1.00  0.00     0.074 A 
HETATM    3  C11 UNL     1      71.915  22.241  29.568  1.00  0.00     0.121 A 
HETATM    4  F1  UNL     1      70.615  22.397  29.187  1.00  0.00    -0.206 F 
HETATM    5  C12 UNL     1      72.900  22.520  28.617  1.00  0.00     0.082 A 
HETATM    6  C13 UNL     1      74.229  22.381  28.945  1.00  0.00     0.116 A 
HETATM    7  C20 UNL     1      74.554  21.957  30.243  1.00  0.00     0.176 A 
HETATM    8  F2  UNL     1      75.857  21.815  30.579  1.00  0.00    -0.201 F 
ENDROOT
BRANCH   1   9
HETATM    9  N3  UNL     1      73.968  21.247  32.499  1.00  0.00    -0.385 N 
ATOM     10  H3  UNL     1      74.819  20.697  32.614  1.00  0.00     0.159 HD
BRANCH   9  11
HETATM   11  C8  UNL     1      73.183  21.553  33.665  1.00  0.00     0.152 C 
BRANCH  11  12
HETATM   12  C7  UNL     1      73.854  22.494  34.614  1.00  0.00     0.070 C 
HETATM   13  C21 UNL     1      75.397  22.376  34.487  1.00  0.00     0.034 C 
HETATM   14  C22 UNL     1      75.779  23.233  35.693  1.00  0.00     0.005 C 
HETATM   15  C23 UNL     1      74.670  23.003  36.730  1.00  0.00     0.035 C 
HETATM   16  C24 UNL     1      73.760  22.019  36.052  1.00  0.00     0.212 C 
BRANCH  12  17
HETATM   17  N2  UNL     1      73.605  23.876  34.416  1.00  0.00    -0.408 N 
ATOM     18  H2  UNL     1      74.297  24.576  34.685  1.00  0.00     0.154 HD
BRANCH  17  19
HETATM   19  C6  UNL     1      72.370  24.264  33.835  1.00  0.00     0.142 C 
BRANCH  19  20
HETATM   20  C5  UNL     1      71.596  25.019  34.903  1.00  0.00     0.251 C 
BRANCH  20  21
HETATM   21  N1  UNL     1      72.243  26.208  35.364  1.00  0.00    -0.072 N 
ATOM     22  H12 UNL     1      73.179  26.008  35.715  1.00  0.00     0.277 HD
ATOM     23  H11 UNL     1      71.818  26.551  36.225  1.00  0.00     0.277 HD
BRANCH  21  24
HETATM   24  C4  UNL     1      72.271  27.222  34.361  1.00  0.00     0.257 C 
BRANCH  24  25
HETATM   25  C2  UNL     1      73.496  28.112  34.467  1.00  0.00     0.053 C 
HETATM   26  C1  UNL     1      73.555  28.580  35.925  1.00  0.00     0.034 C 
HETATM   27  C3  UNL     1      74.743  27.260  34.244  1.00  0.00     0.034 C 
HETATM   28 CL1  UNL     1      73.428  29.498  33.378  1.00  0.00    -0.118 Cl
ENDBRANCH  24  25
ENDBRANCH  21  24
ENDBRANCH  20  21
ENDBRANCH  19  20
ENDBRANCH  17  19
ENDBRANCH  12  17
BRANCH  16  29
HETATM   29  N4  UNL     1      72.447  21.917  36.574  1.00  0.00    -0.073 N 
ATOM     30  H43 UNL     1      72.483  21.699  37.570  1.00  0.00     0.274 HD
ATOM     31  H42 UNL     1      72.012  22.838  36.607  1.00  0.00     0.274 HD
ATOM     32  H41 UNL     1      71.835  21.258  36.093  1.00  0.00     0.274 HD
ENDBRANCH  16  29
ENDBRANCH  11  12
ENDBRANCH   9  11
ENDBRANCH   1   9
BRANCH   6  33
HETATM   33  O1  UNL     1      75.285  22.628  28.089  1.00  0.00    -0.314 OA
BRANCH  33  34
HETATM   34  C14 UNL     1      75.924  23.840  27.904  1.00  0.00     0.298 C 
HETATM   35  O2  UNL     1      76.059  24.162  26.552  1.00  0.00    -0.348 OA
HETATM   36  C15 UNL     1      76.391  25.478  26.389  1.00  0.00     0.179 C 
HETATM   37  C17 UNL     1      76.932  26.147  27.610  1.00  0.00     0.180 C 
HETATM   38  C18 UNL     1      77.798  25.277  28.461  1.00  0.00     0.183 C 
HETATM   39  C19 UNL     1      77.366  23.820  28.441  1.00  0.00     0.205 C 
BRANCH  36  40
HETATM   40  C16 UNL     1      75.161  26.239  25.938  1.00  0.00     0.198 C 
BRANCH  40  41
HETATM   41  O3  UNL     1      75.467  27.403  25.265  1.00  0.00    -0.398 OA
ATOM     42  H3  UNL     1      75.933  28.031  25.805  1.00  0.00     0.209 HD
ENDBRANCH  40  41
ENDBRANCH  36  40
BRANCH  37  43
HETATM   43  O4  UNL     1      77.686  27.259  27.170  1.00  0.00    -0.390 OA
ATOM     44  H4  UNL     1      77.728  27.870  27.897  1.00  0.00     0.210 HD
ENDBRANCH  37  43
BRANCH  38  45
HETATM   45  O5  UNL     1      79.154  25.401  28.153  1.00  0.00    -0.390 OA
ATOM     46  H5  UNL     1      79.677  24.690  28.505  1.00  0.00     0.210 HD
ENDBRANCH  38  45
BRANCH  39  47
HETATM   47  O6  UNL     1      78.123  23.148  27.499  1.00  0.00    -0.388 OA
ATOM     48  H6  UNL     1      78.686  22.555  27.983  1.00  0.00     0.210 HD
ENDBRANCH  39  47
ENDBRANCH  33  34
ENDBRANCH   6  33
TORSDOF 17
ENDMDL
MODEL 5
REMARK VINA RESULT: -7.532665669      5.948      7.759
REMARK  17 active torsions:
REMARK  status: ('A' for Active; 'I' for Inactive)
REMARK    1  A    between atoms: C2_2  and  C4_5 
REMARK    2  A    between atoms: C4_5  and  N1_6 
REMARK    3  A    between atoms: N1_6  and  C5_9 
REMARK    4  A    between atoms: C5_9  and  C6_10 
REMARK    5  A    between atoms: C6_10  and  N2_11 
REMARK    6  A    between atoms: N2_11  and  C7_13 
REMARK    7  A    between atoms: C7_13  and  C8_14 
REMARK    8  A    between atoms: C8_14  and  N3_15 
REMARK    9  A    between atoms: N3_15  and  C9_17 
REMARK   10  A    between atoms: C13_22  and  O1_23 
REMARK   11  A    between atoms: O1_23  and  C14_24 
REMARK   12  A    between atoms: C15_26  and  C16_27 
REMARK   13  A    between atoms: C16_27  and  O3_28 
REMARK   14  A    between atoms: C17_30  and  O4_31 
REMARK   15  A    between atoms: C18_33  and  O5_34 
REMARK   16  A    between atoms: C19_36  and  O6_37 
REMARK   17  A    between atoms: C24_44  and  N4_45 
ROOT
HETATM    1  C9  UNL     1      73.728  21.731  31.250  1.00  0.00     0.072 A 
HETATM    2  C10 UNL     1      72.382  21.852  30.922  1.00  0.00     0.074 A 
HETATM    3  C11 UNL     1      71.962  22.228  29.678  1.00  0.00     0.121 A 
HETATM    4  F1  UNL     1      70.646  22.351  29.344  1.00  0.00    -0.206 F 
HETATM    5  C12 UNL     1      72.905  22.506  28.684  1.00  0.00     0.082 A 
HETATM    6  C13 UNL     1      74.248  22.399  28.964  1.00  0.00     0.116 A 
HETATM    7  C20 UNL     1      74.631  22.009  30.256  1.00  0.00     0.176 A 
HETATM    8  F2  UNL     1      75.948  21.900  30.544  1.00  0.00    -0.201 F 
ENDROOT
BRANCH   1   9
HETATM    9  N3  UNL     1      74.145  21.337  32.547  1.00  0.00    -0.385 N 
ATOM     10  H3  UNL     1      75.128  21.106  32.695  1.00  0.00     0.159 HD
BRANCH   9  11
HETATM   11  C8  UNL     1      73.242  21.248  33.664  1.00  0.00     0.152 C 
BRANCH  11  12
HETATM   12  C7  UNL     1      73.419  22.337  34.672  1.00  0.00     0.070 C 
HETATM   13  C21 UNL     1      72.604  23.591  34.257  1.00  0.00     0.034 C 
HETATM   14  C22 UNL     1      73.157  24.563  35.297  1.00  0.00     0.005 C 
HETATM   15  C23 UNL     1      74.616  24.140  35.523  1.00  0.00     0.035 C 
HETATM   16  C24 UNL     1      74.790  22.982  34.580  1.00  0.00     0.212 C 
BRANCH  12  17
HETATM   17  N2  UNL     1      72.967  22.062  35.988  1.00  0.00    -0.408 N 
ATOM     18  H2  UNL     1      72.790  22.819  36.648  1.00  0.00     0.154 HD
BRANCH  17  19
HETATM   19  C6  UNL     1      72.765  20.709  36.363  1.00  0.00     0.142 C 
BRANCH  19  20
HETATM   20  C5  UNL     1      74.027  20.254  37.077  1.00  0.00     0.251 C 
BRANCH  20  21
HETATM   21  N1  UNL     1      74.746  19.222  36.395  1.00  0.00    -0.072 N 
ATOM     22  H12 UNL     1      75.068  19.538  35.481  1.00  0.00     0.277 HD
ATOM     23  H11 UNL     1      74.123  18.472  36.096  1.00  0.00     0.277 HD
BRANCH  21  24
HETATM   24  C4  UNL     1      75.825  18.717  37.179  1.00  0.00     0.257 C 
BRANCH  24  25
HETATM   25  C2  UNL     1      75.805  17.204  37.292  1.00  0.00     0.053 C 
HETATM   26  C1  UNL     1      76.920  16.696  36.371  1.00  0.00     0.034 C 
HETATM   27  C3  UNL     1      76.214  16.812  38.710  1.00  0.00     0.034 C 
HETATM   28 CL1  UNL     1      74.254  16.506  36.823  1.00  0.00    -0.118 Cl
ENDBRANCH  24  25
ENDBRANCH  21  24
ENDBRANCH  20  21
ENDBRANCH  19  20
ENDBRANCH  17  19
ENDBRANCH  12  17
BRANCH  16  29
HETATM   29  N4  UNL     1      75.885  22.122  34.840  1.00  0.00    -0.073 N 
ATOM     30  H43 UNL     1      75.575  21.315  35.380  1.00  0.00     0.274 HD
ATOM     31  H42 UNL     1      76.179  21.661  33.979  1.00  0.00     0.274 HD
ATOM     32  H41 UNL     1      76.687  22.560  35.293  1.00  0.00     0.274 HD
ENDBRANCH  16  29
ENDBRANCH  11  12
ENDBRANCH   9  11
ENDBRANCH   1   9
BRANCH   6  33
HETATM   33  O1  UNL     1      75.266  22.648  28.062  1.00  0.00    -0.314 OA
BRANCH  33  34
HETATM   34  C14 UNL     1      75.917  23.852  27.874  1.00  0.00     0.298 C 
HETATM   35  O2  UNL     1      76.058  24.167  26.521  1.00  0.00    -0.348 OA
HETATM   36  C15 UNL     1      76.403  25.480  26.353  1.00  0.00     0.179 C 
HETATM   37  C17 UNL     1      76.947  26.149  27.571  1.00  0.00     0.180 C 
HETATM   38  C18 UNL     1      77.803  25.274  28.428  1.00  0.00     0.183 C 
HETATM   39  C19 UNL     1      77.357  23.821  28.413  1.00  0.00     0.205 C 
BRANCH  36  40
HETATM   40  C16 UNL     1      75.181  26.250  25.896  1.00  0.00     0.198 C 
BRANCH  40  41
HETATM   41  O3  UNL     1      75.500  27.432  25.258  1.00  0.00    -0.398 OA
ATOM     42  H3  UNL     1      74.851  27.690  24.613  1.00  0.00     0.209 HD
ENDBRANCH  40  41
ENDBRANCH  36  40
BRANCH  37  43
HETATM   43  O4  UNL     1      77.713  27.251  27.129  1.00  0.00    -0.390 OA
ATOM     44  H4  UNL     1      78.156  27.605  27.892  1.00  0.00     0.210 HD
ENDBRANCH  37  43
BRANCH  38  45
HETATM   45  O5  UNL     1      79.162  25.383  28.123  1.00  0.00    -0.390 OA
ATOM     46  H5  UNL     1      79.373  25.037  27.263  1.00  0.00     0.210 HD
ENDBRANCH  38  45
BRANCH  39  47
HETATM   47  O6  UNL     1      78.109  23.137  27.477  1.00  0.00    -0.388 OA
ATOM     48  H6  UNL     1      78.952  23.573  27.441  1.00  0.00     0.210 HD
ENDBRANCH  39  47
ENDBRANCH  33  34
ENDBRANCH   6  33
TORSDOF 17
ENDMDL
