MODEL 1
REMARK VINA RESULT: -7.317401082      0.000      0.000
REMARK  13 active torsions:
REMARK  status: ('A' for Active; 'I' for Inactive)
REMARK    1  A    between atoms: C2_2  and  C4_4 
REMARK    2  A    between atoms: C4_4  and  C5_5 
REMARK    3  A    between atoms: C4_4  and  O3_32 
REMARK    4  A    between atoms: C5_5  and  N1_6 
REMARK    5  A    between atoms: N1_6  and  C6_8 
REMARK    6  A    between atoms: C6_8  and  O1_9 
REMARK    7  A    between atoms: C6_8  and  C7_11 
REMARK    8  A    between atoms: C10_14  and  N2_15 
REMARK    9  A    between atoms: C18_23  and  C19_24 
REMARK       I    between atoms: C19_24  and  N3_26 
REMARK   10  A    between atoms: N3_26  and  C20_28 
REMARK   11  A    between atoms: O3_32  and  C24_33 
REMARK   12  A    between atoms: C24_33  and  C25_34 
REMARK   13  A    between atoms: C29_38  and  C30_39 
ROOT
HETATM    1  C6  UNL     1      38.128  26.578  20.998  1.00  0.00     0.116 C 
ENDROOT
BRANCH   1   2
HETATM    2  N1  UNL     1      38.263  25.185  20.856  1.00  0.00    -0.372 N 
ATOM      3  H1  UNL     1      38.777  24.835  20.048  1.00  0.00     0.161 HD
BRANCH   2   4
HETATM    4  C5  UNL     1      37.729  24.234  21.769  1.00  0.00     0.153 C 
BRANCH   4   5
HETATM    5  C4  UNL     1      36.485  23.500  21.409  1.00  0.00     0.143 C 
BRANCH   5   6
HETATM    6  C2  UNL     1      36.583  22.011  21.418  1.00  0.00     0.008 C 
HETATM    7  C1  UNL     1      37.988  21.644  20.924  1.00  0.00     0.012 C 
HETATM    8  C3  UNL     1      36.408  21.357  22.745  1.00  0.00     0.012 C 
ENDBRANCH   5   6
BRANCH   5   9
HETATM    9  O3  UNL     1      35.471  23.821  22.374  1.00  0.00    -0.379 OA
BRANCH   9  10
HETATM   10  C24 UNL     1      34.289  24.192  21.752  1.00  0.00     0.207 C 
BRANCH  10  11
HETATM   11  C25 UNL     1      34.036  25.644  21.854  1.00  0.00    -0.034 A 
HETATM   12  C26 UNL     1      33.081  26.337  21.153  1.00  0.00     0.009 A 
HETATM   13  C27 UNL     1      32.886  27.688  21.280  1.00  0.00     0.002 A 
HETATM   14  C28 UNL     1      33.694  28.408  22.167  1.00  0.00     0.015 A 
HETATM   15  C29 UNL     1      34.663  27.748  22.889  1.00  0.00     0.005 A 
HETATM   16  C31 UNL     1      34.833  26.387  22.738  1.00  0.00     0.024 A 
BRANCH  15  17
HETATM   17  C30 UNL     1      35.495  28.534  23.808  1.00  0.00     0.120 C 
HETATM   18  N4  UNL     1      36.762  28.676  23.678  1.00  0.00    -0.387 N 
ATOM     19  H42 UNL     1      37.187  28.198  22.884  1.00  0.00     0.157 HD
ATOM     20  H41 UNL     1      37.340  29.222  24.317  1.00  0.00     0.157 HD
HETATM   21  N5  UNL     1      34.901  29.203  24.919  1.00  0.00    -0.082 NA
ENDBRANCH  15  17
ENDBRANCH  10  11
ENDBRANCH   9  10
ENDBRANCH   5   9
ENDBRANCH   4   5
ENDBRANCH   2   4
ENDBRANCH   1   2
BRANCH   1  22
HETATM   22  O1  UNL     1      38.936  27.060  21.905  1.00  0.00    -0.349 OA
ATOM     23  H1  UNL     1      38.468  27.375  22.669  1.00  0.00     0.219 HD
ENDBRANCH   1  22
BRANCH   1  24
HETATM   24  C7  UNL     1      37.241  27.477  20.272  1.00  0.00     0.073 C 
HETATM   25  C8  UNL     1      38.029  28.647  19.738  1.00  0.00     0.016 C 
HETATM   26  C9  UNL     1      37.219  29.636  18.952  1.00  0.00     0.036 C 
HETATM   27  C10 UNL     1      35.773  29.353  19.232  1.00  0.00     0.224 C 
HETATM   28  C17 UNL     1      35.382  28.003  18.731  1.00  0.00     0.050 C 
HETATM   29  C18 UNL     1      36.310  26.907  19.261  1.00  0.00     0.091 C 
BRANCH  27  30
HETATM   30  N2  UNL     1      34.925  30.372  18.623  1.00  0.00     0.093 N 
HETATM   31  C11 UNL     1      33.832  30.786  19.420  1.00  0.00     0.273 C 
HETATM   32  C12 UNL     1      32.501  30.789  18.700  1.00  0.00     0.030 C 
HETATM   33  C13 UNL     1      32.417  31.892  17.664  1.00  0.00     0.002 C 
HETATM   34  C14 UNL     1      32.760  31.294  16.317  1.00  0.00     0.002 C 
HETATM   35  C15 UNL     1      34.258  31.026  16.336  1.00  0.00     0.030 C 
HETATM   36  C16 UNL     1      34.615  29.928  17.300  1.00  0.00     0.273 C 
ENDBRANCH  27  30
BRANCH  29  37
HETATM   37  C19 UNL     1      36.940  26.328  18.063  1.00  0.00     0.223 C 
HETATM   38  O2  UNL     1      37.614  25.247  18.053  1.00  0.00    -0.273 OA
HETATM   39  N3  UNL     1      36.852  26.948  16.772  1.00  0.00    -0.356 N 
ATOM     40  H3  UNL     1      36.330  27.821  16.703  1.00  0.00     0.162 HD
BRANCH  39  41
HETATM   41  C20 UNL     1      37.444  26.431  15.572  1.00  0.00     0.088 A 
HETATM   42  C21 UNL     1      36.928  26.848  14.243  1.00  0.00     0.031 A 
HETATM   43  C22 UNL     1      38.240  27.440  14.762  1.00  0.00     0.006 A 
HETATM   44  C23 UNL     1      39.502  26.995  14.058  1.00  0.00     0.012 C 
ENDBRANCH  39  41
ENDBRANCH  29  37
ENDBRANCH   1  24
TORSDOF 13
ENDMDL
MODEL 2
REMARK VINA RESULT: -7.210382440      2.220      7.028
REMARK  13 active torsions:
REMARK  status: ('A' for Active; 'I' for Inactive)
REMARK    1  A    between atoms: C2_2  and  C4_4 
REMARK    2  A    between atoms: C4_4  and  C5_5 
REMARK    3  A    between atoms: C4_4  and  O3_32 
REMARK    4  A    between atoms: C5_5  and  N1_6 
REMARK    5  A    between atoms: N1_6  and  C6_8 
REMARK    6  A    between atoms: C6_8  and  O1_9 
REMARK    7  A    between atoms: C6_8  and  C7_11 
REMARK    8  A    between atoms: C10_14  and  N2_15 
REMARK    9  A    between atoms: C18_23  and  C19_24 
REMARK       I    between atoms: C19_24  and  N3_26 
REMARK   10  A    between atoms: N3_26  and  C20_28 
REMARK   11  A    between atoms: O3_32  and  C24_33 
REMARK   12  A    between atoms: C24_33  and  C25_34 
REMARK   13  A    between atoms: C29_38  and  C30_39 
ROOT
HETATM    1  C6  UNL     1      37.144  25.909  23.269  1.00  0.00     0.116 C 
ENDROOT
BRANCH   1   2
HETATM    2  N1  UNL     1      36.165  26.535  24.062  1.00  0.00    -0.372 N 
ATOM      3  H1  UNL     1      35.960  26.129  24.975  1.00  0.00     0.161 HD
BRANCH   2   4
HETATM    4  C5  UNL     1      35.443  27.696  23.672  1.00  0.00     0.153 C 
BRANCH   4   5
HETATM    5  C4  UNL     1      35.036  27.856  22.249  1.00  0.00     0.143 C 
BRANCH   5   6
HETATM    6  C2  UNL     1      33.662  27.382  21.909  1.00  0.00     0.008 C 
HETATM    7  C1  UNL     1      32.714  28.577  22.074  1.00  0.00     0.012 C 
HETATM    8  C3  UNL     1      33.477  26.874  20.521  1.00  0.00     0.012 C 
ENDBRANCH   5   6
BRANCH   5   9
HETATM    9  O3  UNL     1      35.048  29.255  21.926  1.00  0.00    -0.379 OA
BRANCH   9  10
HETATM   10  C24 UNL     1      36.084  29.558  21.057  1.00  0.00     0.207 C 
BRANCH  10  11
HETATM   11  C25 UNL     1      35.595  29.936  19.715  1.00  0.00    -0.034 A 
HETATM   12  C26 UNL     1      36.311  29.833  18.548  1.00  0.00     0.009 A 
HETATM   13  C27 UNL     1      35.814  30.200  17.325  1.00  0.00     0.002 A 
HETATM   14  C28 UNL     1      34.512  30.708  17.248  1.00  0.00     0.015 A 
HETATM   15  C29 UNL     1      33.761  30.825  18.397  1.00  0.00     0.005 A 
HETATM   16  C31 UNL     1      34.291  30.446  19.612  1.00  0.00     0.024 A 
BRANCH  15  17
HETATM   17  C30 UNL     1      32.401  31.364  18.280  1.00  0.00     0.120 C 
HETATM   18  N4  UNL     1      31.959  31.966  17.238  1.00  0.00    -0.387 N 
ATOM     19  H42 UNL     1      32.618  32.064  16.465  1.00  0.00     0.157 HD
ATOM     20  H41 UNL     1      31.014  32.340  17.157  1.00  0.00     0.157 HD
HETATM   21  N5  UNL     1      31.480  31.227  19.360  1.00  0.00    -0.082 NA
ENDBRANCH  15  17
ENDBRANCH  10  11
ENDBRANCH   9  10
ENDBRANCH   5   9
ENDBRANCH   4   5
ENDBRANCH   2   4
ENDBRANCH   1   2
BRANCH   1  22
HETATM   22  O1  UNL     1      38.246  26.610  23.206  1.00  0.00    -0.349 OA
ATOM     23  H1  UNL     1      38.667  26.537  22.358  1.00  0.00     0.219 HD
ENDBRANCH   1  22
BRANCH   1  24
HETATM   24  C7  UNL     1      37.059  24.637  22.567  1.00  0.00     0.073 C 
HETATM   25  C8  UNL     1      35.611  24.262  22.368  1.00  0.00     0.016 C 
HETATM   26  C9  UNL     1      35.397  22.970  21.635  1.00  0.00     0.036 C 
HETATM   27  C10 UNL     1      36.707  22.239  21.627  1.00  0.00     0.224 C 
HETATM   28  C17 UNL     1      37.739  22.990  20.855  1.00  0.00     0.050 C 
HETATM   29  C18 UNL     1      37.875  24.435  21.340  1.00  0.00     0.091 C 
BRANCH  27  30
HETATM   30  N2  UNL     1      36.543  20.902  21.066  1.00  0.00     0.093 N 
HETATM   31  C11 UNL     1      36.668  20.832  19.659  1.00  0.00     0.273 C 
HETATM   32  C12 UNL     1      35.548  20.083  18.969  1.00  0.00     0.030 C 
HETATM   33  C13 UNL     1      35.603  18.594  19.246  1.00  0.00     0.002 C 
HETATM   34  C14 UNL     1      34.649  18.295  20.381  1.00  0.00     0.002 C 
HETATM   35  C15 UNL     1      35.295  18.849  21.643  1.00  0.00     0.030 C 
HETATM   36  C16 UNL     1      35.348  20.353  21.626  1.00  0.00     0.273 C 
ENDBRANCH  27  30
BRANCH  29  37
HETATM   37  C19 UNL     1      37.505  25.264  20.181  1.00  0.00     0.223 C 
HETATM   38  O2  UNL     1      37.548  26.536  20.160  1.00  0.00    -0.273 OA
HETATM   39  N3  UNL     1      37.048  24.695  18.945  1.00  0.00    -0.356 N 
ATOM     40  H3  UNL     1      36.983  23.679  18.887  1.00  0.00     0.162 HD
BRANCH  39  41
HETATM   41  C20 UNL     1      36.674  25.451  17.784  1.00  0.00     0.088 A 
HETATM   42  C21 UNL     1      36.136  24.761  16.583  1.00  0.00     0.031 A 
HETATM   43  C22 UNL     1      35.181  25.514  17.511  1.00  0.00     0.006 A 
HETATM   44  C23 UNL     1      34.580  26.790  16.966  1.00  0.00     0.012 C 
ENDBRANCH  39  41
ENDBRANCH  29  37
ENDBRANCH   1  24
TORSDOF 13
ENDMDL
MODEL 3
REMARK VINA RESULT: -7.129847991      1.798      2.574
REMARK  13 active torsions:
REMARK  status: ('A' for Active; 'I' for Inactive)
REMARK    1  A    between atoms: C2_2  and  C4_4 
REMARK    2  A    between atoms: C4_4  and  C5_5 
REMARK    3  A    between atoms: C4_4  and  O3_32 
REMARK    4  A    between atoms: C5_5  and  N1_6 
REMARK    5  A    between atoms: N1_6  and  C6_8 
REMARK    6  A    between atoms: C6_8  and  O1_9 
REMARK    7  A    between atoms: C6_8  and  C7_11 
REMARK    8  A    between atoms: C10_14  and  N2_15 
REMARK    9  A    between atoms: C18_23  and  C19_24 
REMARK       I    between atoms: C19_24  and  N3_26 
REMARK   10  A    between atoms: N3_26  and  C20_28 
REMARK   11  A    between atoms: O3_32  and  C24_33 
REMARK   12  A    between atoms: C24_33  and  C25_34 
REMARK   13  A    between atoms: C29_38  and  C30_39 
ROOT
HETATM    1  C6  UNL     1      39.168  26.815  20.304  1.00  0.00     0.116 C 
ENDROOT
BRANCH   1   2
HETATM    2  N1  UNL     1      39.624  25.710  19.563  1.00  0.00    -0.372 N 
ATOM      3  H1  UNL     1      40.083  25.890  18.671  1.00  0.00     0.161 HD
BRANCH   2   4
HETATM    4  C5  UNL     1      39.484  24.357  19.979  1.00  0.00     0.153 C 
BRANCH   4   5
HETATM    5  C4  UNL     1      38.125  23.754  20.048  1.00  0.00     0.143 C 
BRANCH   5   6
HETATM    6  C2  UNL     1      37.602  23.181  18.773  1.00  0.00     0.008 C 
HETATM    7  C1  UNL     1      37.990  21.697  18.748  1.00  0.00     0.012 C 
HETATM    8  C3  UNL     1      36.125  23.243  18.593  1.00  0.00     0.012 C 
ENDBRANCH   5   6
BRANCH   5   9
HETATM    9  O3  UNL     1      38.160  22.657  20.974  1.00  0.00    -0.379 OA
BRANCH   9  10
HETATM   10  C24 UNL     1      38.066  23.104  22.282  1.00  0.00     0.207 C 
BRANCH  10  11
HETATM   11  C25 UNL     1      36.896  23.983  22.489  1.00  0.00    -0.034 A 
HETATM   12  C26 UNL     1      35.595  23.661  22.188  1.00  0.00     0.009 A 
HETATM   13  C27 UNL     1      34.542  24.513  22.395  1.00  0.00     0.002 A 
HETATM   14  C28 UNL     1      34.791  25.778  22.941  1.00  0.00     0.015 A 
HETATM   15  C29 UNL     1      36.082  26.137  23.257  1.00  0.00     0.005 A 
HETATM   16  C31 UNL     1      37.120  25.255  23.036  1.00  0.00     0.024 A 
BRANCH  15  17
HETATM   17  C30 UNL     1      36.308  27.471  23.825  1.00  0.00     0.120 C 
HETATM   18  N4  UNL     1      37.440  28.072  23.806  1.00  0.00    -0.387 N 
ATOM     19  H42 UNL     1      38.209  27.564  23.368  1.00  0.00     0.157 HD
ATOM     20  H41 UNL     1      37.597  28.999  24.201  1.00  0.00     0.157 HD
HETATM   21  N5  UNL     1      35.234  28.181  24.438  1.00  0.00    -0.082 NA
ENDBRANCH  15  17
ENDBRANCH  10  11
ENDBRANCH   9  10
ENDBRANCH   5   9
ENDBRANCH   4   5
ENDBRANCH   2   4
ENDBRANCH   1   2
BRANCH   1  22
HETATM   22  O1  UNL     1      40.109  27.322  21.057  1.00  0.00    -0.349 OA
ATOM     23  H1  UNL     1      39.767  27.960  21.673  1.00  0.00     0.219 HD
ENDBRANCH   1  22
BRANCH   1  24
HETATM   24  C7  UNL     1      37.842  27.417  20.304  1.00  0.00     0.073 C 
HETATM   25  C8  UNL     1      37.966  28.920  20.257  1.00  0.00     0.016 C 
HETATM   26  C9  UNL     1      36.655  29.651  20.234  1.00  0.00     0.036 C 
HETATM   27  C10 UNL     1      35.590  28.673  20.630  1.00  0.00     0.224 C 
HETATM   28  C17 UNL     1      35.470  27.572  19.630  1.00  0.00     0.050 C 
HETATM   29  C18 UNL     1      36.817  26.898  19.359  1.00  0.00     0.091 C 
BRANCH  27  30
HETATM   30  N2  UNL     1      34.306  29.348  20.781  1.00  0.00     0.093 N 
HETATM   31  C11 UNL     1      33.304  28.580  21.419  1.00  0.00     0.273 C 
HETATM   32  C12 UNL     1      31.980  28.549  20.688  1.00  0.00     0.030 C 
HETATM   33  C13 UNL     1      31.267  29.886  20.744  1.00  0.00     0.002 C 
HETATM   34  C14 UNL     1      31.572  30.631  19.463  1.00  0.00     0.002 C 
HETATM   35  C15 UNL     1      33.025  31.072  19.559  1.00  0.00     0.030 C 
HETATM   36  C16 UNL     1      33.967  29.900  19.506  1.00  0.00     0.273 C 
ENDBRANCH  27  30
BRANCH  29  37
HETATM   37  C19 UNL     1      37.083  27.136  17.931  1.00  0.00     0.223 C 
HETATM   38  O2  UNL     1      38.010  26.572  17.265  1.00  0.00    -0.273 OA
HETATM   39  N3  UNL     1      36.304  28.051  17.146  1.00  0.00    -0.356 N 
ATOM     40  H3  UNL     1      35.543  28.544  17.613  1.00  0.00     0.162 HD
BRANCH  39  41
HETATM   41  C20 UNL     1      36.516  28.323  15.753  1.00  0.00     0.088 A 
HETATM   42  C21 UNL     1      35.413  28.869  14.921  1.00  0.00     0.031 A 
HETATM   43  C22 UNL     1      36.540  29.796  15.382  1.00  0.00     0.006 A 
HETATM   44  C23 UNL     1      37.495  30.276  14.313  1.00  0.00     0.012 C 
ENDBRANCH  39  41
ENDBRANCH  29  37
ENDBRANCH   1  24
TORSDOF 13
ENDMDL
MODEL 4
REMARK VINA RESULT: -7.061858246      1.778      2.548
REMARK  13 active torsions:
REMARK  status: ('A' for Active; 'I' for Inactive)
REMARK    1  A    between atoms: C2_2  and  C4_4 
REMARK    2  A    between atoms: C4_4  and  C5_5 
REMARK    3  A    between atoms: C4_4  and  O3_32 
REMARK    4  A    between atoms: C5_5  and  N1_6 
REMARK    5  A    between atoms: N1_6  and  C6_8 
REMARK    6  A    between atoms: C6_8  and  O1_9 
REMARK    7  A    between atoms: C6_8  and  C7_11 
REMARK    8  A    between atoms: C10_14  and  N2_15 
REMARK    9  A    between atoms: C18_23  and  C19_24 
REMARK       I    between atoms: C19_24  and  N3_26 
REMARK   10  A    between atoms: N3_26  and  C20_28 
REMARK   11  A    between atoms: O3_32  and  C24_33 
REMARK   12  A    between atoms: C24_33  and  C25_34 
REMARK   13  A    between atoms: C29_38  and  C30_39 
ROOT
HETATM    1  C6  UNL     1      39.231  26.959  20.025  1.00  0.00     0.116 C 
ENDROOT
BRANCH   1   2
HETATM    2  N1  UNL     1      39.877  25.786  19.592  1.00  0.00    -0.372 N 
ATOM      3  H1  UNL     1      40.643  25.882  18.926  1.00  0.00     0.161 HD
BRANCH   2   4
HETATM    4  C5  UNL     1      39.530  24.477  20.024  1.00  0.00     0.153 C 
BRANCH   4   5
HETATM    5  C4  UNL     1      38.241  24.264  20.737  1.00  0.00     0.143 C 
BRANCH   5   6
HETATM    6  C2  UNL     1      37.503  23.015  20.387  1.00  0.00     0.008 C 
HETATM    7  C1  UNL     1      36.374  23.408  19.426  1.00  0.00     0.012 C 
HETATM    8  C3  UNL     1      38.301  21.959  19.704  1.00  0.00     0.012 C 
ENDBRANCH   5   6
BRANCH   5   9
HETATM    9  O3  UNL     1      38.509  24.166  22.145  1.00  0.00    -0.379 OA
BRANCH   9  10
HETATM   10  C24 UNL     1      37.346  24.303  22.885  1.00  0.00     0.207 C 
BRANCH  10  11
HETATM   11  C25 UNL     1      36.857  25.697  22.905  1.00  0.00    -0.034 A 
HETATM   12  C26 UNL     1      37.584  26.790  23.303  1.00  0.00     0.009 A 
HETATM   13  C27 UNL     1      37.084  28.066  23.307  1.00  0.00     0.002 A 
HETATM   14  C28 UNL     1      35.767  28.279  22.885  1.00  0.00     0.015 A 
HETATM   15  C29 UNL     1      35.005  27.207  22.476  1.00  0.00     0.005 A 
HETATM   16  C31 UNL     1      35.539  25.935  22.484  1.00  0.00     0.024 A 
BRANCH  15  17
HETATM   17  C30 UNL     1      33.627  27.465  22.042  1.00  0.00     0.120 C 
HETATM   18  N4  UNL     1      32.899  28.413  22.506  1.00  0.00    -0.387 N 
ATOM     19  H42 UNL     1      33.331  29.000  23.220  1.00  0.00     0.157 HD
ATOM     20  H41 UNL     1      31.942  28.592  22.205  1.00  0.00     0.157 HD
HETATM   21  N5  UNL     1      33.023  26.644  21.044  1.00  0.00    -0.082 NA
ENDBRANCH  15  17
ENDBRANCH  10  11
ENDBRANCH   9  10
ENDBRANCH   5   9
ENDBRANCH   4   5
ENDBRANCH   2   4
ENDBRANCH   1   2
BRANCH   1  22
HETATM   22  O1  UNL     1      39.945  27.617  20.901  1.00  0.00    -0.349 OA
ATOM     23  H1  UNL     1      39.476  27.747  21.717  1.00  0.00     0.219 HD
ENDBRANCH   1  22
BRANCH   1  24
HETATM   24  C7  UNL     1      37.937  27.481  19.611  1.00  0.00     0.073 C 
HETATM   25  C8  UNL     1      37.975  28.989  19.603  1.00  0.00     0.016 C 
HETATM   26  C9  UNL     1      36.694  29.642  19.172  1.00  0.00     0.036 C 
HETATM   27  C10 UNL     1      35.621  28.595  19.219  1.00  0.00     0.224 C 
HETATM   28  C17 UNL     1      35.886  27.507  18.233  1.00  0.00     0.050 C 
HETATM   29  C18 UNL     1      37.290  26.919  18.395  1.00  0.00     0.091 C 
BRANCH  27  30
HETATM   30  N2  UNL     1      34.314  29.190  18.961  1.00  0.00     0.093 N 
HETATM   31  C11 UNL     1      33.977  29.309  17.593  1.00  0.00     0.273 C 
HETATM   32  C12 UNL     1      33.480  30.679  17.188  1.00  0.00     0.030 C 
HETATM   33  C13 UNL     1      32.106  30.976  17.755  1.00  0.00     0.002 C 
HETATM   34  C14 UNL     1      32.288  31.787  19.019  1.00  0.00     0.002 C 
HETATM   35  C15 UNL     1      32.835  30.830  20.068  1.00  0.00     0.030 C 
HETATM   36  C16 UNL     1      34.234  30.385  19.741  1.00  0.00     0.273 C 
ENDBRANCH  27  30
BRANCH  29  37
HETATM   37  C19 UNL     1      37.971  27.197  17.120  1.00  0.00     0.223 C 
HETATM   38  O2  UNL     1      39.222  27.060  16.925  1.00  0.00    -0.273 OA
HETATM   39  N3  UNL     1      37.268  27.664  15.959  1.00  0.00    -0.356 N 
ATOM     40  H3  UNL     1      36.261  27.802  16.041  1.00  0.00     0.162 HD
BRANCH  39  41
HETATM   41  C20 UNL     1      37.877  27.951  14.692  1.00  0.00     0.088 A 
HETATM   42  C21 UNL     1      37.075  27.885  13.444  1.00  0.00     0.031 A 
HETATM   43  C22 UNL     1      37.428  29.248  14.043  1.00  0.00     0.006 A 
HETATM   44  C23 UNL     1      38.431  30.080  13.275  1.00  0.00     0.012 C 
ENDBRANCH  39  41
ENDBRANCH  29  37
ENDBRANCH   1  24
TORSDOF 13
ENDMDL
MODEL 5
REMARK VINA RESULT: -6.946063663      2.455      5.325
REMARK  13 active torsions:
REMARK  status: ('A' for Active; 'I' for Inactive)
REMARK    1  A    between atoms: C2_2  and  C4_4 
REMARK    2  A    between atoms: C4_4  and  C5_5 
REMARK    3  A    between atoms: C4_4  and  O3_32 
REMARK    4  A    between atoms: C5_5  and  N1_6 
REMARK    5  A    between atoms: N1_6  and  C6_8 
REMARK    6  A    between atoms: C6_8  and  O1_9 
REMARK    7  A    between atoms: C6_8  and  C7_11 
REMARK    8  A    between atoms: C10_14  and  N2_15 
REMARK    9  A    between atoms: C18_23  and  C19_24 
REMARK       I    between atoms: C19_24  and  N3_26 
REMARK   10  A    between atoms: N3_26  and  C20_28 
REMARK   11  A    between atoms: O3_32  and  C24_33 
REMARK   12  A    between atoms: C24_33  and  C25_34 
REMARK   13  A    between atoms: C29_38  and  C30_39 
ROOT
HETATM    1  C6  UNL     1      36.071  28.440  23.511  1.00  0.00     0.116 C 
ENDROOT
BRANCH   1   2
HETATM    2  N1  UNL     1      36.796  27.264  23.774  1.00  0.00    -0.372 N 
ATOM      3  H1  UNL     1      36.479  26.669  24.540  1.00  0.00     0.161 HD
BRANCH   2   4
HETATM    4  C5  UNL     1      37.941  26.849  23.040  1.00  0.00     0.153 C 
BRANCH   4   5
HETATM    5  C4  UNL     1      37.771  25.917  21.893  1.00  0.00     0.143 C 
BRANCH   5   6
HETATM    6  C2  UNL     1      38.529  26.265  20.655  1.00  0.00     0.008 C 
HETATM    7  C1  UNL     1      37.575  26.073  19.468  1.00  0.00     0.012 C 
HETATM    8  C3  UNL     1      39.037  27.663  20.577  1.00  0.00     0.012 C 
ENDBRANCH   5   6
BRANCH   5   9
HETATM    9  O3  UNL     1      38.252  24.622  22.282  1.00  0.00    -0.379 OA
BRANCH   9  10
HETATM   10  C24 UNL     1      37.263  23.895  22.927  1.00  0.00     0.207 C 
BRANCH  10  11
HETATM   11  C25 UNL     1      36.845  22.710  22.149  1.00  0.00    -0.034 A 
HETATM   12  C26 UNL     1      35.855  21.830  22.510  1.00  0.00     0.009 A 
HETATM   13  C27 UNL     1      35.504  20.741  21.756  1.00  0.00     0.002 A 
HETATM   14  C28 UNL     1      36.181  20.503  20.554  1.00  0.00     0.015 A 
HETATM   15  C29 UNL     1      37.179  21.365  20.157  1.00  0.00     0.005 A 
HETATM   16  C31 UNL     1      37.508  22.452  20.940  1.00  0.00     0.024 A 
BRANCH  15  17
HETATM   17  C30 UNL     1      37.870  21.085  18.893  1.00  0.00     0.120 C 
HETATM   18  N4  UNL     1      38.825  21.803  18.428  1.00  0.00    -0.387 N 
ATOM     19  H42 UNL     1      39.092  22.610  18.990  1.00  0.00     0.157 HD
ATOM     20  H41 UNL     1      39.305  21.608  17.549  1.00  0.00     0.157 HD
HETATM   21  N5  UNL     1      37.497  19.955  18.106  1.00  0.00    -0.082 NA
ENDBRANCH  15  17
ENDBRANCH  10  11
ENDBRANCH   9  10
ENDBRANCH   5   9
ENDBRANCH   4   5
ENDBRANCH   2   4
ENDBRANCH   1   2
BRANCH   1  22
HETATM   22  O1  UNL     1      36.388  29.406  24.334  1.00  0.00    -0.349 OA
ATOM     23  H1  UNL     1      35.670  30.015  24.462  1.00  0.00     0.219 HD
ENDBRANCH   1  22
BRANCH   1  24
HETATM   24  C7  UNL     1      35.077  28.675  22.474  1.00  0.00     0.073 C 
HETATM   25  C8  UNL     1      35.760  28.797  21.134  1.00  0.00     0.016 C 
HETATM   26  C9  UNL     1      34.828  29.023  19.979  1.00  0.00     0.036 C 
HETATM   27  C10 UNL     1      33.499  29.423  20.548  1.00  0.00     0.224 C 
HETATM   28  C17 UNL     1      32.903  28.318  21.355  1.00  0.00     0.050 C 
HETATM   29  C18 UNL     1      33.871  27.805  22.423  1.00  0.00     0.091 C 
BRANCH  27  30
HETATM   30  N2  UNL     1      32.582  29.810  19.482  1.00  0.00     0.093 N 
HETATM   31  C11 UNL     1      31.997  28.728  18.783  1.00  0.00     0.273 C 
HETATM   32  C12 UNL     1      32.083  28.839  17.276  1.00  0.00     0.030 C 
HETATM   33  C13 UNL     1      31.184  29.932  16.733  1.00  0.00     0.002 C 
HETATM   34  C14 UNL     1      32.027  31.173  16.534  1.00  0.00     0.002 C 
HETATM   35  C15 UNL     1      32.333  31.712  17.925  1.00  0.00     0.030 C 
HETATM   36  C16 UNL     1      33.248  30.794  18.688  1.00  0.00     0.273 C 
ENDBRANCH  27  30
BRANCH  29  37
HETATM   37  C19 UNL     1      34.112  26.395  22.076  1.00  0.00     0.223 C 
HETATM   38  O2  UNL     1      34.347  25.473  22.923  1.00  0.00    -0.273 OA
HETATM   39  N3  UNL     1      34.107  25.926  20.720  1.00  0.00    -0.356 N 
ATOM     40  H3  UNL     1      33.929  26.609  19.984  1.00  0.00     0.162 HD
BRANCH  39  41
HETATM   41  C20 UNL     1      34.334  24.566  20.322  1.00  0.00     0.088 A 
HETATM   42  C21 UNL     1      33.187  23.681  19.993  1.00  0.00     0.031 A 
HETATM   43  C22 UNL     1      34.038  24.266  18.863  1.00  0.00     0.006 A 
HETATM   44  C23 UNL     1      34.919  23.292  18.112  1.00  0.00     0.012 C 
ENDBRANCH  39  41
ENDBRANCH  29  37
ENDBRANCH   1  24
TORSDOF 13
ENDMDL
