MODEL 1
REMARK VINA RESULT: -7.286152445      0.000      0.000
REMARK  18 active torsions:
REMARK  status: ('A' for Active; 'I' for Inactive)
REMARK    1  A    between atoms: O1_2  and  C2_3 
REMARK    2  A    between atoms: C3_5  and  C4_6 
REMARK    3  A    between atoms: C4_6  and  O3_7 
REMARK    4  A    between atoms: C5_9  and  O4_10 
REMARK    5  A    between atoms: O4_10  and  C6_11 
REMARK    6  A    between atoms: C7_13  and  O6_14 
REMARK    7  A    between atoms: C9_18  and  C11_20 
REMARK    8  A    between atoms: C11_20  and  O8_21 
REMARK    9  A    between atoms: C11_20  and  C12_23 
REMARK   10  A    between atoms: C11_20  and  C13_26 
REMARK   11  A    between atoms: C12_23  and  O9_24 
REMARK   12  A    between atoms: C13_26  and  O10_27 
REMARK   13  A    between atoms: C22_40  and  O14_41 
REMARK   14  A    between atoms: C23_43  and  O15_44 
REMARK   15  A    between atoms: O15_44  and  C24_45 
REMARK   16  A    between atoms: C26_48  and  C27_49 
REMARK   17  A    between atoms: C27_49  and  O17_50 
REMARK   18  A    between atoms: C28_52  and  O18_53 
ROOT
HETATM    1  C6  UNL     1      -7.045   6.968  23.229  1.00  0.00     0.301 C 
HETATM    2  O5  UNL     1      -5.878   6.556  23.952  1.00  0.00    -0.317 OA
HETATM    3  C7  UNL     1      -6.131   5.280  24.468  1.00  0.00     0.225 C 
HETATM    4  C8  UNL     1      -7.291   5.442  25.408  1.00  0.00     0.222 C 
HETATM    5  O7  UNL     1      -7.593   6.796  25.493  1.00  0.00    -0.359 OA
HETATM    6  C9  UNL     1      -8.073   7.297  24.241  1.00  0.00     0.142 C 
HETATM    7  C10 UNL     1      -9.392   6.608  24.015  1.00  0.00     0.054 C 
HETATM    8  C14 UNL     1      -7.105   4.886  26.774  1.00  0.00     0.215 C 
HETATM    9  O11 UNL     1      -7.928   3.787  27.009  1.00  0.00    -0.343 OA
HETATM   10  C15 UNL     1      -7.182   2.779  27.560  1.00  0.00     0.160 C 
HETATM   11  C16 UNL     1      -6.877   1.771  26.466  1.00  0.00     0.078 C 
HETATM   12  C17 UNL     1      -7.881   2.051  28.694  1.00  0.00     0.078 C 
HETATM   13  O12 UNL     1      -5.979   3.342  27.983  1.00  0.00    -0.323 OA
HETATM   14  C18 UNL     1      -5.741   4.391  27.099  1.00  0.00     0.296 C 
HETATM   15  O13 UNL     1      -5.086   3.836  25.999  1.00  0.00    -0.343 OA
HETATM   16  C19 UNL     1      -4.841   4.858  25.124  1.00  0.00     0.116 C 
HETATM   17  C20 UNL     1      -4.123   6.016  25.768  1.00  0.00     0.051 C 
HETATM   18  C21 UNL     1      -3.954   4.322  23.993  1.00  0.00     0.051 C 
ENDROOT
BRANCH   1  19
HETATM   19  O4  UNL     1      -6.519   7.965  22.427  1.00  0.00    -0.347 OA
BRANCH  19  20
HETATM   20  C5  UNL     1      -6.043   7.523  21.230  1.00  0.00     0.187 C 
HETATM   21  C3  UNL     1      -6.969   7.710  20.102  1.00  0.00     0.180 C 
HETATM   22  O2  UNL     1      -6.314   7.577  18.848  1.00  0.00    -0.349 OA
HETATM   23  C2  UNL     1      -5.328   6.628  18.845  1.00  0.00     0.291 C 
HETATM   24  C23 UNL     1      -4.225   6.983  19.778  1.00  0.00     0.211 C 
HETATM   25  C22 UNL     1      -4.671   8.006  20.839  1.00  0.00     0.183 C 
BRANCH  21  26
HETATM   26  C4  UNL     1      -7.601   9.092  20.029  1.00  0.00     0.198 C 
BRANCH  26  27
HETATM   27  O3  UNL     1      -7.115   9.732  18.877  1.00  0.00    -0.398 OA
ATOM     28  H3  UNL     1      -7.854   9.914  18.308  1.00  0.00     0.209 HD
ENDBRANCH  26  27
ENDBRANCH  21  26
BRANCH  23  29
HETATM   29  O1  UNL     1      -5.966   5.407  19.168  1.00  0.00    -0.363 OA
HETATM   30  C1  UNL     1      -5.080   4.360  18.923  1.00  0.00     0.204 C 
ENDBRANCH  23  29
BRANCH  24  31
HETATM   31  O15 UNL     1      -3.027   7.331  19.207  1.00  0.00    -0.346 OA
BRANCH  31  32
HETATM   32  C24 UNL     1      -1.990   7.136  20.112  1.00  0.00     0.289 C 
HETATM   33  O16 UNL     1      -1.474   5.882  19.934  1.00  0.00    -0.358 OA
HETATM   34  C25 UNL     1      -0.162   5.872  20.403  1.00  0.00     0.180 C 
HETATM   35  C26 UNL     1       0.279   7.297  20.578  1.00  0.00     0.067 C 
HETATM   36  C28 UNL     1      -0.817   8.069  19.873  1.00  0.00     0.181 C 
BRANCH  35  37
HETATM   37  C27 UNL     1       1.647   7.558  20.005  1.00  0.00     0.173 C 
BRANCH  37  38
HETATM   38  O17 UNL     1       2.577   7.587  21.041  1.00  0.00    -0.400 OA
ATOM     39  H17 UNL     1       2.374   8.311  21.621  1.00  0.00     0.209 HD
ENDBRANCH  37  38
ENDBRANCH  35  37
BRANCH  36  40
HETATM   40  O18 UNL     1      -0.563   8.265  18.531  1.00  0.00    -0.390 OA
ATOM     41  H18 UNL     1       0.233   8.762  18.380  1.00  0.00     0.210 HD
ENDBRANCH  36  40
ENDBRANCH  31  32
ENDBRANCH  24  31
BRANCH  25  42
HETATM   42  O14 UNL     1      -4.618   9.287  20.398  1.00  0.00    -0.390 OA
ATOM     43  H14 UNL     1      -3.745   9.658  20.343  1.00  0.00     0.210 HD
ENDBRANCH  25  42
ENDBRANCH  19  20
ENDBRANCH   1  19
BRANCH   6  44
HETATM   44  C11 UNL     1      -8.229   8.781  24.515  1.00  0.00     0.135 C 
BRANCH  44  45
HETATM   45  O8  UNL     1      -7.014   9.237  24.976  1.00  0.00    -0.382 OA
ATOM     46  H8  UNL     1      -7.060   9.245  25.925  1.00  0.00     0.210 HD
ENDBRANCH  44  45
BRANCH  44  47
HETATM   47  C12 UNL     1      -9.174   8.896  25.743  1.00  0.00     0.207 C 
BRANCH  47  48
HETATM   48  O9  UNL     1      -8.413   9.411  26.768  1.00  0.00    -0.398 OA
ATOM     49  H9  UNL     1      -8.878  10.176  27.088  1.00  0.00     0.209 HD
ENDBRANCH  47  48
ENDBRANCH  44  47
BRANCH  44  50
HETATM   50  C13 UNL     1      -8.858   9.566  23.440  1.00  0.00     0.207 C 
BRANCH  50  51
HETATM   51  O10 UNL     1      -8.014  10.657  23.121  1.00  0.00    -0.398 OA
ATOM     52  H10 UNL     1      -8.285  11.411  23.630  1.00  0.00     0.209 HD
ENDBRANCH  50  51
ENDBRANCH  44  50
ENDBRANCH   6  44
BRANCH   3  53
HETATM   53  O6  UNL     1      -6.390   4.434  23.410  1.00  0.00    -0.361 OA
ATOM     54  H6  UNL     1      -5.790   3.700  23.467  1.00  0.00     0.213 HD
ENDBRANCH   3  53
TORSDOF 18
ENDMDL
MODEL 2
REMARK VINA RESULT: -7.084477588      2.129      2.683
REMARK  18 active torsions:
REMARK  status: ('A' for Active; 'I' for Inactive)
REMARK    1  A    between atoms: O1_2  and  C2_3 
REMARK    2  A    between atoms: C3_5  and  C4_6 
REMARK    3  A    between atoms: C4_6  and  O3_7 
REMARK    4  A    between atoms: C5_9  and  O4_10 
REMARK    5  A    between atoms: O4_10  and  C6_11 
REMARK    6  A    between atoms: C7_13  and  O6_14 
REMARK    7  A    between atoms: C9_18  and  C11_20 
REMARK    8  A    between atoms: C11_20  and  O8_21 
REMARK    9  A    between atoms: C11_20  and  C12_23 
REMARK   10  A    between atoms: C11_20  and  C13_26 
REMARK   11  A    between atoms: C12_23  and  O9_24 
REMARK   12  A    between atoms: C13_26  and  O10_27 
REMARK   13  A    between atoms: C22_40  and  O14_41 
REMARK   14  A    between atoms: C23_43  and  O15_44 
REMARK   15  A    between atoms: O15_44  and  C24_45 
REMARK   16  A    between atoms: C26_48  and  C27_49 
REMARK   17  A    between atoms: C27_49  and  O17_50 
REMARK   18  A    between atoms: C28_52  and  O18_53 
ROOT
HETATM    1  C6  UNL     1      -7.114   6.841  23.475  1.00  0.00     0.301 C 
HETATM    2  O5  UNL     1      -5.924   6.413  24.149  1.00  0.00    -0.317 OA
HETATM    3  C7  UNL     1      -6.178   5.147  24.688  1.00  0.00     0.225 C 
HETATM    4  C8  UNL     1      -7.292   5.338  25.677  1.00  0.00     0.222 C 
HETATM    5  O7  UNL     1      -7.564   6.699  25.763  1.00  0.00    -0.359 OA
HETATM    6  C9  UNL     1      -8.090   7.197  24.528  1.00  0.00     0.142 C 
HETATM    7  C10 UNL     1      -9.431   6.531  24.368  1.00  0.00     0.054 C 
HETATM    8  C14 UNL     1      -7.055   4.791  27.039  1.00  0.00     0.215 C 
HETATM    9  O11 UNL     1      -7.887   3.710  27.322  1.00  0.00    -0.343 OA
HETATM   10  C15 UNL     1      -7.136   2.693  27.849  1.00  0.00     0.160 C 
HETATM   11  C16 UNL     1      -6.898   1.670  26.752  1.00  0.00     0.078 C 
HETATM   12  C17 UNL     1      -7.796   1.989  29.019  1.00  0.00     0.078 C 
HETATM   13  O12 UNL     1      -5.904   3.237  28.212  1.00  0.00    -0.323 OA
HETATM   14  C18 UNL     1      -5.687   4.274  27.308  1.00  0.00     0.296 C 
HETATM   15  O13 UNL     1      -5.092   3.697  26.186  1.00  0.00    -0.343 OA
HETATM   16  C19 UNL     1      -4.867   4.706  25.291  1.00  0.00     0.116 C 
HETATM   17  C20 UNL     1      -4.101   5.857  25.891  1.00  0.00     0.051 C 
HETATM   18  C21 UNL     1      -4.042   4.143  24.126  1.00  0.00     0.051 C 
ENDROOT
BRANCH   1  19
HETATM   19  O4  UNL     1      -6.607   7.820  22.640  1.00  0.00    -0.347 OA
BRANCH  19  20
HETATM   20  C5  UNL     1      -6.569   7.466  21.326  1.00  0.00     0.187 C 
HETATM   21  C3  UNL     1      -7.075   8.496  20.405  1.00  0.00     0.180 C 
HETATM   22  O2  UNL     1      -6.690   8.243  19.061  1.00  0.00    -0.349 OA
HETATM   23  C2  UNL     1      -6.668   6.913  18.740  1.00  0.00     0.291 C 
HETATM   24  C23 UNL     1      -5.650   6.177  19.538  1.00  0.00     0.211 C 
HETATM   25  C22 UNL     1      -5.253   6.938  20.816  1.00  0.00     0.183 C 
BRANCH  21  26
HETATM   26  C4  UNL     1      -6.540   9.895  20.671  1.00  0.00     0.198 C 
BRANCH  26  27
HETATM   27  O3  UNL     1      -5.703  10.252  19.601  1.00  0.00    -0.398 OA
ATOM     28  H3  UNL     1      -4.842   9.885  19.767  1.00  0.00     0.209 HD
ENDBRANCH  26  27
ENDBRANCH  21  26
BRANCH  23  29
HETATM   29  O1  UNL     1      -7.987   6.444  18.943  1.00  0.00    -0.363 OA
HETATM   30  C1  UNL     1      -8.307   5.552  17.921  1.00  0.00     0.204 C 
ENDBRANCH  23  29
BRANCH  24  31
HETATM   31  O15 UNL     1      -4.551   5.718  18.856  1.00  0.00    -0.346 OA
BRANCH  31  32
HETATM   32  C24 UNL     1      -4.645   4.345  18.663  1.00  0.00     0.289 C 
HETATM   33  O16 UNL     1      -5.098   4.103  17.395  1.00  0.00    -0.358 OA
HETATM   34  C25 UNL     1      -4.688   2.828  17.014  1.00  0.00     0.180 C 
HETATM   35  C26 UNL     1      -3.628   2.374  17.976  1.00  0.00     0.067 C 
HETATM   36  C28 UNL     1      -3.299   3.648  18.727  1.00  0.00     0.181 C 
BRANCH  35  37
HETATM   37  C27 UNL     1      -2.433   1.771  17.285  1.00  0.00     0.173 C 
BRANCH  37  38
HETATM   38  O17 UNL     1      -1.444   1.512  18.231  1.00  0.00    -0.400 OA
ATOM     39  H17 UNL     1      -1.308   2.289  18.759  1.00  0.00     0.209 HD
ENDBRANCH  37  38
ENDBRANCH  35  37
BRANCH  36  40
HETATM   40  O18 UNL     1      -2.295   4.383  18.130  1.00  0.00    -0.390 OA
ATOM     41  H18 UNL     1      -2.535   5.294  18.007  1.00  0.00     0.210 HD
ENDBRANCH  36  40
ENDBRANCH  31  32
ENDBRANCH  24  31
BRANCH  25  42
HETATM   42  O14 UNL     1      -4.302   7.880  20.600  1.00  0.00    -0.390 OA
ATOM     43  H14 UNL     1      -3.592   7.611  20.029  1.00  0.00     0.210 HD
ENDBRANCH  25  42
ENDBRANCH  19  20
ENDBRANCH   1  19
BRANCH   6  44
HETATM   44  C11 UNL     1      -8.206   8.687  24.794  1.00  0.00     0.135 C 
BRANCH  44  45
HETATM   45  O8  UNL     1      -6.952   9.134  25.147  1.00  0.00    -0.382 OA
ATOM     46  H8  UNL     1      -7.046   9.617  25.960  1.00  0.00     0.210 HD
ENDBRANCH  44  45
BRANCH  44  47
HETATM   47  C12 UNL     1      -9.045   8.829  26.095  1.00  0.00     0.207 C 
BRANCH  47  48
HETATM   48  O9  UNL     1      -8.154   9.144  27.096  1.00  0.00    -0.398 OA
ATOM     49  H9  UNL     1      -8.642   9.102  27.911  1.00  0.00     0.209 HD
ENDBRANCH  47  48
ENDBRANCH  44  47
BRANCH  44  50
HETATM   50  C13 UNL     1      -8.914   9.466  23.765  1.00  0.00     0.207 C 
BRANCH  50  51
HETATM   51  O10 UNL     1      -8.103  10.563  23.389  1.00  0.00    -0.398 OA
ATOM     52  H10 UNL     1      -7.749  10.398  22.523  1.00  0.00     0.209 HD
ENDBRANCH  50  51
ENDBRANCH  44  50
ENDBRANCH   6  44
BRANCH   3  53
HETATM   53  O6  UNL     1      -6.499   4.296  23.652  1.00  0.00    -0.361 OA
ATOM     54  H6  UNL     1      -6.672   4.823  22.880  1.00  0.00     0.213 HD
ENDBRANCH   3  53
TORSDOF 18
ENDMDL
MODEL 3
REMARK VINA RESULT: -7.007867370      2.916      9.232
REMARK  18 active torsions:
REMARK  status: ('A' for Active; 'I' for Inactive)
REMARK    1  A    between atoms: O1_2  and  C2_3 
REMARK    2  A    between atoms: C3_5  and  C4_6 
REMARK    3  A    between atoms: C4_6  and  O3_7 
REMARK    4  A    between atoms: C5_9  and  O4_10 
REMARK    5  A    between atoms: O4_10  and  C6_11 
REMARK    6  A    between atoms: C7_13  and  O6_14 
REMARK    7  A    between atoms: C9_18  and  C11_20 
REMARK    8  A    between atoms: C11_20  and  O8_21 
REMARK    9  A    between atoms: C11_20  and  C12_23 
REMARK   10  A    between atoms: C11_20  and  C13_26 
REMARK   11  A    between atoms: C12_23  and  O9_24 
REMARK   12  A    between atoms: C13_26  and  O10_27 
REMARK   13  A    between atoms: C22_40  and  O14_41 
REMARK   14  A    between atoms: C23_43  and  O15_44 
REMARK   15  A    between atoms: O15_44  and  C24_45 
REMARK   16  A    between atoms: C26_48  and  C27_49 
REMARK   17  A    between atoms: C27_49  and  O17_50 
REMARK   18  A    between atoms: C28_52  and  O18_53 
ROOT
HETATM    1  C6  UNL     1      -6.151   5.149  24.814  1.00  0.00     0.301 C 
HETATM    2  O5  UNL     1      -6.482   6.159  23.852  1.00  0.00    -0.317 OA
HETATM    3  C7  UNL     1      -6.227   5.630  22.582  1.00  0.00     0.225 C 
HETATM    4  C8  UNL     1      -4.753   5.344  22.546  1.00  0.00     0.222 C 
HETATM    5  O7  UNL     1      -4.192   5.813  23.728  1.00  0.00    -0.359 OA
HETATM    6  C9  UNL     1      -4.674   5.073  24.855  1.00  0.00     0.142 C 
HETATM    7  C10 UNL     1      -4.130   3.681  24.681  1.00  0.00     0.054 C 
HETATM    8  C14 UNL     1      -4.010   5.903  21.386  1.00  0.00     0.215 C 
HETATM    9  O11 UNL     1      -3.547   4.905  20.530  1.00  0.00    -0.343 OA
HETATM   10  C15 UNL     1      -3.859   5.242  19.240  1.00  0.00     0.160 C 
HETATM   11  C16 UNL     1      -5.075   4.432  18.826  1.00  0.00     0.078 C 
HETATM   12  C17 UNL     1      -2.745   4.964  18.248  1.00  0.00     0.078 C 
HETATM   13  O12 UNL     1      -4.214   6.591  19.241  1.00  0.00    -0.323 OA
HETATM   14  C18 UNL     1      -4.775   6.815  20.496  1.00  0.00     0.296 C 
HETATM   15  O13 UNL     1      -6.123   6.469  20.389  1.00  0.00    -0.343 OA
HETATM   16  C19 UNL     1      -6.688   6.691  21.615  1.00  0.00     0.116 C 
HETATM   17  C20 UNL     1      -6.432   8.083  22.131  1.00  0.00     0.051 C 
HETATM   18  C21 UNL     1      -8.206   6.505  21.486  1.00  0.00     0.051 C 
ENDROOT
BRANCH   1  19
HETATM   19  O4  UNL     1      -6.853   5.597  25.919  1.00  0.00    -0.347 OA
BRANCH  19  20
HETATM   20  C5  UNL     1      -8.206   5.489  25.800  1.00  0.00     0.187 C 
HETATM   21  C3  UNL     1      -8.682   4.129  25.503  1.00  0.00     0.180 C 
HETATM   22  O2  UNL     1     -10.075   3.989  25.743  1.00  0.00    -0.349 OA
HETATM   23  C2  UNL     1     -10.797   5.109  25.432  1.00  0.00     0.291 C 
HETATM   24  C23 UNL     1     -10.411   6.263  26.288  1.00  0.00     0.211 C 
HETATM   25  C22 UNL     1      -9.021   6.074  26.924  1.00  0.00     0.183 C 
BRANCH  21  26
HETATM   26  C4  UNL     1      -8.060   3.042  26.368  1.00  0.00     0.198 C 
BRANCH  26  27
HETATM   27  O3  UNL     1      -7.562   2.041  25.518  1.00  0.00    -0.398 OA
ATOM     28  H3  UNL     1      -8.240   1.385  25.407  1.00  0.00     0.209 HD
ENDBRANCH  26  27
ENDBRANCH  21  26
BRANCH  23  29
HETATM   29  O1  UNL     1     -10.584   5.337  24.052  1.00  0.00    -0.363 OA
HETATM   30  C1  UNL     1     -11.153   6.561  23.706  1.00  0.00     0.204 C 
ENDBRANCH  23  29
BRANCH  24  31
HETATM   31  O15 UNL     1     -11.339   6.682  27.208  1.00  0.00    -0.346 OA
BRANCH  31  32
HETATM   32  C24 UNL     1     -12.363   7.377  26.575  1.00  0.00     0.289 C 
HETATM   33  O16 UNL     1     -13.494   6.608  26.581  1.00  0.00    -0.358 OA
HETATM   34  C25 UNL     1     -14.600   7.446  26.469  1.00  0.00     0.180 C 
HETATM   35  C26 UNL     1     -14.148   8.851  26.746  1.00  0.00     0.067 C 
HETATM   36  C28 UNL     1     -12.758   8.643  27.311  1.00  0.00     0.181 C 
BRANCH  35  37
HETATM   37  C27 UNL     1     -15.065   9.583  27.691  1.00  0.00     0.173 C 
BRANCH  37  38
HETATM   38  O17 UNL     1     -15.679   8.661  28.536  1.00  0.00    -0.400 OA
ATOM     39  H17 UNL     1     -15.454   8.868  29.436  1.00  0.00     0.209 HD
ENDBRANCH  37  38
ENDBRANCH  35  37
BRANCH  36  40
HETATM   40  O18 UNL     1     -12.750   8.481  28.682  1.00  0.00    -0.390 OA
ATOM     41  H18 UNL     1     -13.579   8.719  29.081  1.00  0.00     0.210 HD
ENDBRANCH  36  40
ENDBRANCH  31  32
ENDBRANCH  24  31
BRANCH  25  42
HETATM   42  O14 UNL     1      -9.052   5.331  28.057  1.00  0.00    -0.390 OA
ATOM     43  H14 UNL     1      -8.352   5.510  28.674  1.00  0.00     0.210 HD
ENDBRANCH  25  42
ENDBRANCH  19  20
ENDBRANCH   1  19
BRANCH   6  44
HETATM   44  C11 UNL     1      -4.043   5.805  26.026  1.00  0.00     0.135 C 
BRANCH  44  45
HETATM   45  O8  UNL     1      -4.657   7.034  26.113  1.00  0.00    -0.382 OA
ATOM     46  H8  UNL     1      -4.898   7.163  27.023  1.00  0.00     0.210 HD
ENDBRANCH  44  45
BRANCH  44  47
HETATM   47  C12 UNL     1      -2.586   6.132  25.595  1.00  0.00     0.207 C 
BRANCH  47  48
HETATM   48  O9  UNL     1      -2.451   7.498  25.698  1.00  0.00    -0.398 OA
ATOM     49  H9  UNL     1      -1.900   7.767  24.972  1.00  0.00     0.209 HD
ENDBRANCH  47  48
ENDBRANCH  44  47
BRANCH  44  50
HETATM   50  C13 UNL     1      -3.936   5.035  27.277  1.00  0.00     0.207 C 
BRANCH  50  51
HETATM   51  O10 UNL     1      -5.064   5.323  28.083  1.00  0.00    -0.398 OA
ATOM     52  H10 UNL     1      -4.776   5.812  28.845  1.00  0.00     0.209 HD
ENDBRANCH  50  51
ENDBRANCH  44  50
ENDBRANCH   6  44
BRANCH   3  53
HETATM   53  O6  UNL     1      -7.012   4.508  22.420  1.00  0.00    -0.361 OA
ATOM     54  H6  UNL     1      -7.149   4.376  21.489  1.00  0.00     0.213 HD
ENDBRANCH   3  53
TORSDOF 18
ENDMDL
MODEL 4
REMARK VINA RESULT: -6.942517740      2.293      8.976
REMARK  18 active torsions:
REMARK  status: ('A' for Active; 'I' for Inactive)
REMARK    1  A    between atoms: O1_2  and  C2_3 
REMARK    2  A    between atoms: C3_5  and  C4_6 
REMARK    3  A    between atoms: C4_6  and  O3_7 
REMARK    4  A    between atoms: C5_9  and  O4_10 
REMARK    5  A    between atoms: O4_10  and  C6_11 
REMARK    6  A    between atoms: C7_13  and  O6_14 
REMARK    7  A    between atoms: C9_18  and  C11_20 
REMARK    8  A    between atoms: C11_20  and  O8_21 
REMARK    9  A    between atoms: C11_20  and  C12_23 
REMARK   10  A    between atoms: C11_20  and  C13_26 
REMARK   11  A    between atoms: C12_23  and  O9_24 
REMARK   12  A    between atoms: C13_26  and  O10_27 
REMARK   13  A    between atoms: C22_40  and  O14_41 
REMARK   14  A    between atoms: C23_43  and  O15_44 
REMARK   15  A    between atoms: O15_44  and  C24_45 
REMARK   16  A    between atoms: C26_48  and  C27_49 
REMARK   17  A    between atoms: C27_49  and  O17_50 
REMARK   18  A    between atoms: C28_52  and  O18_53 
ROOT
HETATM    1  C6  UNL     1      -6.020   5.734  20.626  1.00  0.00     0.301 C 
HETATM    2  O5  UNL     1      -4.623   5.484  20.434  1.00  0.00    -0.317 OA
HETATM    3  C7  UNL     1      -4.028   6.689  20.044  1.00  0.00     0.225 C 
HETATM    4  C8  UNL     1      -4.672   7.060  18.739  1.00  0.00     0.222 C 
HETATM    5  O7  UNL     1      -5.517   6.022  18.363  1.00  0.00    -0.359 OA
HETATM    6  C9  UNL     1      -6.610   5.892  19.279  1.00  0.00     0.142 C 
HETATM    7  C10 UNL     1      -7.422   7.148  19.111  1.00  0.00     0.054 C 
HETATM    8  C14 UNL     1      -3.743   7.376  17.622  1.00  0.00     0.215 C 
HETATM    9  O11 UNL     1      -3.793   8.721  17.263  1.00  0.00    -0.343 OA
HETATM   10  C15 UNL     1      -2.515   9.204  17.161  1.00  0.00     0.160 C 
HETATM   11  C16 UNL     1      -2.212   9.996  18.421  1.00  0.00     0.078 C 
HETATM   12  C17 UNL     1      -2.299  10.114  15.966  1.00  0.00     0.078 C 
HETATM   13  O12 UNL     1      -1.661   8.103  17.123  1.00  0.00    -0.323 OA
HETATM   14  C18 UNL     1      -2.301   7.123  17.878  1.00  0.00     0.296 C 
HETATM   15  O13 UNL     1      -1.935   7.351  19.205  1.00  0.00    -0.343 OA
HETATM   16  C19 UNL     1      -2.553   6.390  19.958  1.00  0.00     0.116 C 
HETATM   17  C20 UNL     1      -2.282   4.995  19.459  1.00  0.00     0.051 C 
HETATM   18  C21 UNL     1      -2.023   6.490  21.395  1.00  0.00     0.051 C 
ENDROOT
BRANCH   1  19
HETATM   19  O4  UNL     1      -6.375   4.656  21.416  1.00  0.00    -0.347 OA
BRANCH  19  20
HETATM   20  C5  UNL     1      -6.829   4.998  22.654  1.00  0.00     0.187 C 
HETATM   21  C3  UNL     1      -5.947   4.587  23.758  1.00  0.00     0.180 C 
HETATM   22  O2  UNL     1      -6.261   5.262  24.968  1.00  0.00    -0.349 OA
HETATM   23  C2  UNL     1      -7.600   5.486  25.137  1.00  0.00     0.291 C 
HETATM   24  C23 UNL     1      -8.138   6.390  24.086  1.00  0.00     0.211 C 
HETATM   25  C22 UNL     1      -7.232   6.437  22.842  1.00  0.00     0.183 C 
BRANCH  21  26
HETATM   26  C4  UNL     1      -4.476   4.908  23.541  1.00  0.00     0.198 C 
BRANCH  26  27
HETATM   27  O3  UNL     1      -4.116   5.923  24.443  1.00  0.00    -0.398 OA
ATOM     28  H3  UNL     1      -4.047   5.537  25.308  1.00  0.00     0.209 HD
ENDBRANCH  26  27
ENDBRANCH  21  26
BRANCH  23  29
HETATM   29  O1  UNL     1      -8.209   4.209  25.146  1.00  0.00    -0.363 OA
HETATM   30  C1  UNL     1      -9.078   4.134  26.232  1.00  0.00     0.204 C 
ENDBRANCH  23  29
BRANCH  24  31
HETATM   31  O15 UNL     1      -8.514   7.647  24.490  1.00  0.00    -0.346 OA
BRANCH  31  32
HETATM   32  C24 UNL     1      -9.896   7.779  24.424  1.00  0.00     0.289 C 
HETATM   33  O16 UNL     1     -10.445   6.569  24.103  1.00  0.00    -0.358 OA
HETATM   34  C25 UNL     1     -11.761   6.545  24.557  1.00  0.00     0.180 C 
HETATM   35  C26 UNL     1     -11.942   7.686  25.516  1.00  0.00     0.067 C 
HETATM   36  C28 UNL     1     -10.518   8.139  25.760  1.00  0.00     0.181 C 
BRANCH  35  37
HETATM   37  C27 UNL     1     -12.657   7.279  26.779  1.00  0.00     0.173 C 
BRANCH  37  38
HETATM   38  O17 UNL     1     -12.347   8.186  27.789  1.00  0.00    -0.400 OA
ATOM     39  H17 UNL     1     -12.970   8.086  28.498  1.00  0.00     0.209 HD
ENDBRANCH  37  38
ENDBRANCH  35  37
BRANCH  36  40
HETATM   40  O18 UNL     1      -9.916   7.484  26.816  1.00  0.00    -0.390 OA
ATOM     41  H18 UNL     1      -9.156   7.950  27.147  1.00  0.00     0.210 HD
ENDBRANCH  36  40
ENDBRANCH  31  32
ENDBRANCH  24  31
BRANCH  25  42
HETATM   42  O14 UNL     1      -6.202   7.310  22.967  1.00  0.00    -0.390 OA
ATOM     43  H14 UNL     1      -6.448   8.227  22.952  1.00  0.00     0.210 HD
ENDBRANCH  25  42
ENDBRANCH  19  20
ENDBRANCH   1  19
BRANCH   6  44
HETATM   44  C11 UNL     1      -7.329   4.658  18.763  1.00  0.00     0.135 C 
BRANCH  44  45
HETATM   45  O8  UNL     1      -6.465   3.596  18.910  1.00  0.00    -0.382 OA
ATOM     46  H8  UNL     1      -6.968   2.875  19.270  1.00  0.00     0.210 HD
ENDBRANCH  44  45
BRANCH  44  47
HETATM   47  C12 UNL     1      -7.452   4.843  17.225  1.00  0.00     0.207 C 
BRANCH  47  48
HETATM   48  O9  UNL     1      -7.575   3.579  16.693  1.00  0.00    -0.398 OA
ATOM     49  H9  UNL     1      -6.860   3.479  16.074  1.00  0.00     0.209 HD
ENDBRANCH  47  48
ENDBRANCH  44  47
BRANCH  44  50
HETATM   50  C13 UNL     1      -8.700   4.463  19.262  1.00  0.00     0.207 C 
BRANCH  50  51
HETATM   51  O10 UNL     1      -9.608   4.740  18.213  1.00  0.00    -0.398 OA
ATOM     52  H10 UNL     1     -10.116   3.957  18.034  1.00  0.00     0.209 HD
ENDBRANCH  50  51
ENDBRANCH  44  50
ENDBRANCH   6  44
BRANCH   3  53
HETATM   53  O6  UNL     1      -4.237   7.613  21.046  1.00  0.00    -0.361 OA
ATOM     54  H6  UNL     1      -5.147   7.882  21.014  1.00  0.00     0.213 HD
ENDBRANCH   3  53
TORSDOF 18
ENDMDL
MODEL 5
REMARK VINA RESULT: -6.880112831      2.046      2.262
REMARK  18 active torsions:
REMARK  status: ('A' for Active; 'I' for Inactive)
REMARK    1  A    between atoms: O1_2  and  C2_3 
REMARK    2  A    between atoms: C3_5  and  C4_6 
REMARK    3  A    between atoms: C4_6  and  O3_7 
REMARK    4  A    between atoms: C5_9  and  O4_10 
REMARK    5  A    between atoms: O4_10  and  C6_11 
REMARK    6  A    between atoms: C7_13  and  O6_14 
REMARK    7  A    between atoms: C9_18  and  C11_20 
REMARK    8  A    between atoms: C11_20  and  O8_21 
REMARK    9  A    between atoms: C11_20  and  C12_23 
REMARK   10  A    between atoms: C11_20  and  C13_26 
REMARK   11  A    between atoms: C12_23  and  O9_24 
REMARK   12  A    between atoms: C13_26  and  O10_27 
REMARK   13  A    between atoms: C22_40  and  O14_41 
REMARK   14  A    between atoms: C23_43  and  O15_44 
REMARK   15  A    between atoms: O15_44  and  C24_45 
REMARK   16  A    between atoms: C26_48  and  C27_49 
REMARK   17  A    between atoms: C27_49  and  O17_50 
REMARK   18  A    between atoms: C28_52  and  O18_53 
ROOT
HETATM    1  C6  UNL     1      -7.117   6.749  23.620  1.00  0.00     0.301 C 
HETATM    2  O5  UNL     1      -5.918   6.308  24.269  1.00  0.00    -0.317 OA
HETATM    3  C7  UNL     1      -6.177   5.050  24.824  1.00  0.00     0.225 C 
HETATM    4  C8  UNL     1      -7.265   5.266  25.837  1.00  0.00     0.222 C 
HETATM    5  O7  UNL     1      -7.515   6.631  25.919  1.00  0.00    -0.359 OA
HETATM    6  C9  UNL     1      -8.063   7.128  24.693  1.00  0.00     0.142 C 
HETATM    7  C10 UNL     1      -9.416   6.481  24.569  1.00  0.00     0.054 C 
HETATM    8  C14 UNL     1      -7.004   4.725  27.197  1.00  0.00     0.215 C 
HETATM    9  O11 UNL     1      -7.845   3.659  27.508  1.00  0.00    -0.343 OA
HETATM   10  C15 UNL     1      -7.097   2.635  28.025  1.00  0.00     0.160 C 
HETATM   11  C16 UNL     1      -6.900   1.600  26.932  1.00  0.00     0.078 C 
HETATM   12  C17 UNL     1      -7.740   1.949  29.217  1.00  0.00     0.078 C 
HETATM   13  O12 UNL     1      -5.850   3.163  28.356  1.00  0.00    -0.323 OA
HETATM   14  C18 UNL     1      -5.638   4.190  27.439  1.00  0.00     0.296 C 
HETATM   15  O13 UNL     1      -5.078   3.595  26.308  1.00  0.00    -0.343 OA
HETATM   16  C19 UNL     1      -4.860   4.595  25.399  1.00  0.00     0.116 C 
HETATM   17  C20 UNL     1      -4.062   5.738  25.973  1.00  0.00     0.051 C 
HETATM   18  C21 UNL     1      -4.070   4.011  24.221  1.00  0.00     0.051 C 
ENDROOT
BRANCH   1  19
HETATM   19  O4  UNL     1      -6.615   7.715  22.766  1.00  0.00    -0.347 OA
BRANCH  19  20
HETATM   20  C5  UNL     1      -6.446   7.289  21.483  1.00  0.00     0.187 C 
HETATM   21  C3  UNL     1      -7.202   8.060  20.484  1.00  0.00     0.180 C 
HETATM   22  O2  UNL     1      -6.729   7.828  19.164  1.00  0.00    -0.349 OA
HETATM   23  C2  UNL     1      -6.320   6.540  18.949  1.00  0.00     0.291 C 
HETATM   24  C23 UNL     1      -5.154   6.188  19.803  1.00  0.00     0.211 C 
HETATM   25  C22 UNL     1      -5.022   7.124  21.019  1.00  0.00     0.183 C 
BRANCH  21  26
HETATM   26  C4  UNL     1      -7.096   9.569  20.641  1.00  0.00     0.198 C 
BRANCH  26  27
HETATM   27  O3  UNL     1      -8.393  10.105  20.584  1.00  0.00    -0.398 OA
ATOM     28  H3  UNL     1      -8.398  10.794  19.929  1.00  0.00     0.209 HD
ENDBRANCH  26  27
ENDBRANCH  21  26
BRANCH  23  29
HETATM   29  O1  UNL     1      -7.456   5.729  19.185  1.00  0.00    -0.363 OA
HETATM   30  C1  UNL     1      -7.054   4.395  19.223  1.00  0.00     0.204 C 
ENDBRANCH  23  29
BRANCH  24  31
HETATM   31  O15 UNL     1      -3.954   6.014  19.161  1.00  0.00    -0.346 OA
BRANCH  31  32
HETATM   32  C24 UNL     1      -4.037   6.480  17.854  1.00  0.00     0.289 C 
HETATM   33  O16 UNL     1      -3.323   7.641  17.749  1.00  0.00    -0.358 OA
HETATM   34  C25 UNL     1      -2.946   7.811  16.419  1.00  0.00     0.180 C 
HETATM   35  C26 UNL     1      -3.153   6.505  15.708  1.00  0.00     0.067 C 
HETATM   36  C28 UNL     1      -3.391   5.542  16.852  1.00  0.00     0.181 C 
BRANCH  35  37
HETATM   37  C27 UNL     1      -1.979   6.119  14.845  1.00  0.00     0.173 C 
BRANCH  37  38
HETATM   38  O17 UNL     1      -0.866   6.860  15.234  1.00  0.00    -0.400 OA
ATOM     39  H17 UNL     1      -0.469   7.250  14.464  1.00  0.00     0.209 HD
ENDBRANCH  37  38
ENDBRANCH  35  37
BRANCH  36  40
HETATM   40  O18 UNL     1      -2.227   4.976  17.333  1.00  0.00    -0.390 OA
ATOM     41  H18 UNL     1      -1.459   5.256  16.848  1.00  0.00     0.210 HD
ENDBRANCH  36  40
ENDBRANCH  31  32
ENDBRANCH  24  31
BRANCH  25  42
HETATM   42  O14 UNL     1      -4.375   8.280  20.731  1.00  0.00    -0.390 OA
ATOM     43  H14 UNL     1      -3.545   8.174  20.280  1.00  0.00     0.210 HD
ENDBRANCH  25  42
ENDBRANCH  19  20
ENDBRANCH   1  19
BRANCH   6  44
HETATM   44  C11 UNL     1      -8.150   8.621  24.950  1.00  0.00     0.135 C 
BRANCH  44  45
HETATM   45  O8  UNL     1      -6.879   9.054  25.258  1.00  0.00    -0.382 OA
ATOM     46  H8  UNL     1      -6.380   9.051  24.449  1.00  0.00     0.210 HD
ENDBRANCH  44  45
BRANCH  44  47
HETATM   47  C12 UNL     1      -8.943   8.784  26.276  1.00  0.00     0.207 C 
BRANCH  47  48
HETATM   48  O9  UNL     1      -8.021   9.132  27.237  1.00  0.00    -0.398 OA
ATOM     49  H9  UNL     1      -8.271   8.667  28.028  1.00  0.00     0.209 HD
ENDBRANCH  47  48
ENDBRANCH  44  47
BRANCH  44  50
HETATM   50  C13 UNL     1      -8.881   9.401  23.938  1.00  0.00     0.207 C 
BRANCH  50  51
HETATM   51  O10 UNL     1      -8.072  10.490  23.533  1.00  0.00    -0.398 OA
ATOM     52  H10 UNL     1      -8.493  10.927  22.803  1.00  0.00     0.209 HD
ENDBRANCH  50  51
ENDBRANCH  44  50
ENDBRANCH   6  44
BRANCH   3  53
HETATM   53  O6  UNL     1      -6.535   4.197  23.802  1.00  0.00    -0.361 OA
ATOM     54  H6  UNL     1      -6.822   3.378  24.188  1.00  0.00     0.213 HD
ENDBRANCH   3  53
TORSDOF 18
ENDMDL
