MODEL 1
REMARK VINA RESULT: -9.150072714      0.000      0.000
REMARK  16 active torsions:
REMARK  status: ('A' for Active; 'I' for Inactive)
REMARK    1  A    between atoms: O1_2  and  C2_3 
REMARK    2  A    between atoms: C2_3  and  C4_6 
REMARK    3  A    between atoms: C4_6  and  C5_8 
REMARK    4  A    between atoms: C6_9  and  C7_10 
REMARK    5  A    between atoms: C7_10  and  S1_11 
REMARK    6  A    between atoms: S1_11  and  C8_12 
REMARK    7  A    between atoms: C12_22  and  C13_23 
REMARK    8  A    between atoms: C15_29  and  C16_30 
REMARK    9  A    between atoms: C16_30  and  N5_31 
REMARK   10  A    between atoms: C17_36  and  C18_37 
REMARK   11  A    between atoms: C18_37  and  C19_39 
REMARK   12  A    between atoms: C19_39  and  N8_40 
REMARK   13  A    between atoms: C19_39  and  C20_44 
REMARK   14  A    between atoms: C20_44  and  S4_45 
REMARK   15  A    between atoms: S4_45  and  N9_46 
REMARK   16  A    between atoms: C21_51  and  O8_52 
ROOT
HETATM    1  C2  UNL     1      54.053  87.163  37.629  1.00  0.00     0.195 C 
HETATM    2  C3  UNL     1      54.579  85.818  37.251  1.00  0.00     0.129 C 
HETATM    3  N1  UNL     1      54.967  84.768  36.950  1.00  0.00    -0.189 NA
ENDROOT
BRANCH   1   4
HETATM    4  O1  UNL     1      54.326  88.023  36.628  1.00  0.00    -0.343 OA
HETATM    5  C1  UNL     1      55.675  88.231  36.352  1.00  0.00     0.211 C 
ENDBRANCH   1   4
BRANCH   1   6
HETATM    6  C4  UNL     1      52.762  87.142  38.277  1.00  0.00     0.198 C 
HETATM    7  O2  UNL     1      51.926  86.424  37.641  1.00  0.00    -0.289 OA
BRANCH   6   8
HETATM    8  C5  UNL     1      52.270  87.781  39.510  1.00  0.00     0.078 C 
HETATM    9  C6  UNL     1      52.128  86.849  40.635  1.00  0.00     0.041 C 
HETATM   10  C11 UNL     1      51.898  87.443  41.968  1.00  0.00     0.156 C 
HETATM   11  N4  UNL     1      50.511  87.725  42.212  1.00  0.00    -0.393 N 
HETATM   12  S3  UNL     1      52.751  89.060  42.169  1.00  0.00    -0.071 SA
HETATM   13  C12 UNL     1      49.718  88.232  41.178  1.00  0.00     0.195 C 
ATOM     14  H4  UNL     1      50.107  87.557  43.133  1.00  0.00     0.155 HD
HETATM   15  C14 UNL     1      50.351  89.237  40.240  1.00  0.00     0.098 C 
HETATM   16  S2  UNL     1      51.450  90.374  41.122  1.00  0.00    -0.088 SA
HETATM   17  C15 UNL     1      51.034  88.551  39.126  1.00  0.00     0.035 C 
BRANCH   9  18
HETATM   18  C7  UNL     1      53.300  85.919  40.701  1.00  0.00     0.090 C 
BRANCH  18  19
HETATM   19  S1  UNL     1      52.971  84.218  41.092  1.00  0.00    -0.094 SA
BRANCH  19  20
HETATM   20  C8  UNL     1      52.219  83.221  39.843  1.00  0.00     0.136 C 
HETATM   21  N2  UNL     1      51.417  82.210  39.899  1.00  0.00    -0.369 N 
HETATM   22  C9  UNL     1      51.053  81.702  38.615  1.00  0.00     0.141 C 
ATOM     23  H2  UNL     1      51.078  81.812  40.774  1.00  0.00     0.161 HD
HETATM   24  C10 UNL     1      52.066  82.344  37.651  1.00  0.00     0.141 C 
HETATM   25  N3  UNL     1      52.389  83.536  38.445  1.00  0.00    -0.369 N 
ATOM     26  H3  UNL     1      52.685  84.437  38.070  1.00  0.00     0.161 HD
ENDBRANCH  19  20
ENDBRANCH  18  19
ENDBRANCH   9  18
BRANCH  13  27
HETATM   27  C13 UNL     1      48.467  88.797  41.776  1.00  0.00     0.197 C 
HETATM   28  O3  UNL     1      48.131  88.624  42.974  1.00  0.00    -0.646 OA
HETATM   29  O4  UNL     1      47.623  89.554  40.978  1.00  0.00    -0.646 OA
ENDBRANCH  13  27
BRANCH  17  30
HETATM   30  C16 UNL     1      51.363  89.418  37.953  1.00  0.00     0.159 C 
BRANCH  30  31
HETATM   31  N5  UNL     1      50.298  90.110  37.327  1.00  0.00    -0.254 N 
HETATM   32  N6  UNL     1      49.417  89.510  36.544  1.00  0.00    -0.238 N 
HETATM   33  N7  UNL     1      48.528  90.383  36.134  1.00  0.00    -0.279 N 
ATOM     34  H6  UNL     1      49.427  88.521  36.296  1.00  0.00     0.208 HD
HETATM   35  C17 UNL     1      48.809  91.585  36.644  1.00  0.00     0.150 A 
ATOM     36  H7  UNL     1      47.742  90.175  35.519  1.00  0.00     0.189 HD
HETATM   37  C21 UNL     1      49.954  91.382  37.408  1.00  0.00     0.191 A 
BRANCH  35  38
HETATM   38  C18 UNL     1      48.099  92.842  36.461  1.00  0.00     0.212 C 
HETATM   39  O5  UNL     1      47.057  93.077  37.110  1.00  0.00    -0.288 OA
BRANCH  38  40
HETATM   40  C19 UNL     1      48.555  93.893  35.523  1.00  0.00     0.274 C 
BRANCH  40  41
HETATM   41  N8  UNL     1      47.909  93.701  34.261  1.00  0.00    -0.067 N 
ATOM     42  H83 UNL     1      48.321  92.938  33.725  1.00  0.00     0.275 HD
ATOM     43  H82 UNL     1      46.970  93.314  34.360  1.00  0.00     0.275 HD
ATOM     44  H81 UNL     1      47.913  94.583  33.749  1.00  0.00     0.275 HD
ENDBRANCH  40  41
BRANCH  40  45
HETATM   45  C20 UNL     1      48.222  95.247  36.139  1.00  0.00     0.204 C 
BRANCH  45  46
HETATM   46  S4  UNL     1      49.426  95.741  37.338  1.00  0.00     0.226 S 
HETATM   47  O6  UNL     1      49.398  97.253  37.382  1.00  0.00    -0.206 OA
HETATM   48  O7  UNL     1      50.772  95.279  36.900  1.00  0.00    -0.206 OA
BRANCH  46  49
HETATM   49  N9  UNL     1      49.014  95.124  38.903  1.00  0.00    -0.328 N 
ATOM     50  H92 UNL     1      48.921  94.131  39.116  1.00  0.00     0.168 HD
ATOM     51  H91 UNL     1      48.882  95.888  39.565  1.00  0.00     0.168 HD
ENDBRANCH  46  49
ENDBRANCH  45  46
ENDBRANCH  40  45
ENDBRANCH  38  40
ENDBRANCH  35  38
BRANCH  37  52
HETATM   52  O8  UNL     1      50.535  92.449  38.091  1.00  0.00    -0.343 OA
ATOM     53  H8  UNL     1      50.223  93.331  38.254  1.00  0.00     0.219 HD
ENDBRANCH  37  52
ENDBRANCH  30  31
ENDBRANCH  17  30
ENDBRANCH   6   8
ENDBRANCH   1   6
TORSDOF 16
ENDMDL
MODEL 2
REMARK VINA RESULT: -9.082072035      3.242      8.291
REMARK  16 active torsions:
REMARK  status: ('A' for Active; 'I' for Inactive)
REMARK    1  A    between atoms: O1_2  and  C2_3 
REMARK    2  A    between atoms: C2_3  and  C4_6 
REMARK    3  A    between atoms: C4_6  and  C5_8 
REMARK    4  A    between atoms: C6_9  and  C7_10 
REMARK    5  A    between atoms: C7_10  and  S1_11 
REMARK    6  A    between atoms: S1_11  and  C8_12 
REMARK    7  A    between atoms: C12_22  and  C13_23 
REMARK    8  A    between atoms: C15_29  and  C16_30 
REMARK    9  A    between atoms: C16_30  and  N5_31 
REMARK   10  A    between atoms: C17_36  and  C18_37 
REMARK   11  A    between atoms: C18_37  and  C19_39 
REMARK   12  A    between atoms: C19_39  and  N8_40 
REMARK   13  A    between atoms: C19_39  and  C20_44 
REMARK   14  A    between atoms: C20_44  and  S4_45 
REMARK   15  A    between atoms: S4_45  and  N9_46 
REMARK   16  A    between atoms: C21_51  and  O8_52 
ROOT
HETATM    1  C2  UNL     1      49.383  89.657  36.330  1.00  0.00     0.195 C 
HETATM    2  C3  UNL     1      50.305  88.696  37.004  1.00  0.00     0.129 C 
HETATM    3  N1  UNL     1      51.023  87.964  37.545  1.00  0.00    -0.189 NA
ENDROOT
BRANCH   1   4
HETATM    4  O1  UNL     1      48.116  89.256  36.554  1.00  0.00    -0.343 OA
HETATM    5  C1  UNL     1      47.255  89.310  35.459  1.00  0.00     0.211 C 
ENDBRANCH   1   4
BRANCH   1   6
HETATM    6  C4  UNL     1      49.770  91.043  36.448  1.00  0.00     0.198 C 
HETATM    7  O2  UNL     1      50.854  91.176  37.102  1.00  0.00    -0.289 OA
BRANCH   6   8
HETATM    8  C5  UNL     1      49.149  92.283  35.952  1.00  0.00     0.078 C 
HETATM    9  C6  UNL     1      49.994  93.022  35.006  1.00  0.00     0.041 C 
HETATM   10  C11 UNL     1      49.354  94.126  34.261  1.00  0.00     0.156 C 
HETATM   11  N4  UNL     1      49.351  95.358  34.999  1.00  0.00    -0.393 N 
HETATM   12  S3  UNL     1      47.582  93.788  33.898  1.00  0.00    -0.071 SA
HETATM   13  C12 UNL     1      49.109  95.336  36.377  1.00  0.00     0.195 C 
ATOM     14  H4  UNL     1      49.523  96.242  34.522  1.00  0.00     0.155 HD
HETATM   15  C14 UNL     1      48.074  94.357  36.889  1.00  0.00     0.098 C 
HETATM   16  S2  UNL     1      46.663  94.226  35.762  1.00  0.00    -0.088 SA
HETATM   17  C15 UNL     1      48.691  93.046  37.167  1.00  0.00     0.035 C 
BRANCH   9  18
HETATM   18  C7  UNL     1      50.648  92.084  34.039  1.00  0.00     0.090 C 
BRANCH  18  19
HETATM   19  S1  UNL     1      52.039  92.697  33.120  1.00  0.00    -0.094 SA
BRANCH  19  20
HETATM   20  C8  UNL     1      53.632  92.047  33.515  1.00  0.00     0.136 C 
HETATM   21  N2  UNL     1      54.406  92.194  34.540  1.00  0.00    -0.369 N 
HETATM   22  C9  UNL     1      55.631  91.468  34.435  1.00  0.00     0.141 C 
ATOM     23  H2  UNL     1      54.165  92.773  35.344  1.00  0.00     0.161 HD
HETATM   24  C10 UNL     1      55.713  91.072  32.951  1.00  0.00     0.141 C 
HETATM   25  N3  UNL     1      54.278  91.093  32.645  1.00  0.00    -0.369 N 
ATOM     26  H3  UNL     1      53.813  90.527  31.936  1.00  0.00     0.161 HD
ENDBRANCH  19  20
ENDBRANCH  18  19
ENDBRANCH   9  18
BRANCH  13  27
HETATM   27  C13 UNL     1      48.772  96.726  36.818  1.00  0.00     0.197 C 
HETATM   28  O3  UNL     1      49.154  97.759  36.213  1.00  0.00    -0.646 OA
HETATM   29  O4  UNL     1      47.998  96.901  37.956  1.00  0.00    -0.646 OA
ENDBRANCH  13  27
BRANCH  17  30
HETATM   30  C16 UNL     1      47.874  92.129  38.020  1.00  0.00     0.159 C 
BRANCH  30  31
HETATM   31  N5  UNL     1      48.522  91.485  39.102  1.00  0.00    -0.254 N 
HETATM   32  N6  UNL     1      49.560  92.011  39.730  1.00  0.00    -0.238 N 
HETATM   33  N7  UNL     1      49.931  91.218  40.707  1.00  0.00    -0.279 N 
ATOM     34  H6  UNL     1      50.005  92.897  39.491  1.00  0.00     0.208 HD
HETATM   35  C17 UNL     1      49.137  90.145  40.740  1.00  0.00     0.150 A 
ATOM     36  H7  UNL     1      50.708  91.394  41.343  1.00  0.00     0.189 HD
HETATM   37  C21 UNL     1      48.238  90.341  39.696  1.00  0.00     0.191 A 
BRANCH  35  38
HETATM   38  C18 UNL     1      49.175  89.010  41.650  1.00  0.00     0.212 C 
HETATM   39  O5  UNL     1      48.300  88.881  42.534  1.00  0.00    -0.288 OA
BRANCH  38  40
HETATM   40  C19 UNL     1      50.221  87.964  41.586  1.00  0.00     0.274 C 
BRANCH  40  41
HETATM   41  N8  UNL     1      50.168  87.332  40.303  1.00  0.00    -0.067 N 
ATOM     42  H83 UNL     1      49.559  87.826  39.651  1.00  0.00     0.275 HD
ATOM     43  H82 UNL     1      51.040  87.431  39.785  1.00  0.00     0.275 HD
ATOM     44  H81 UNL     1      49.897  86.356  40.426  1.00  0.00     0.275 HD
ENDBRANCH  40  41
BRANCH  40  45
HETATM   45  C20 UNL     1      51.567  88.633  41.841  1.00  0.00     0.204 C 
BRANCH  45  46
HETATM   46  S4  UNL     1      52.919  87.531  41.538  1.00  0.00     0.226 S 
HETATM   47  O6  UNL     1      53.309  87.711  40.088  1.00  0.00    -0.206 OA
HETATM   48  O7  UNL     1      52.468  86.129  41.763  1.00  0.00    -0.206 OA
BRANCH  46  49
HETATM   49  N9  UNL     1      54.271  87.939  42.540  1.00  0.00    -0.328 N 
ATOM     50  H92 UNL     1      54.199  88.489  43.396  1.00  0.00     0.168 HD
ATOM     51  H91 UNL     1      55.132  87.554  42.153  1.00  0.00     0.168 HD
ENDBRANCH  46  49
ENDBRANCH  45  46
ENDBRANCH  40  45
ENDBRANCH  38  40
ENDBRANCH  35  38
BRANCH  37  52
HETATM   52  O8  UNL     1      47.252  89.391  39.437  1.00  0.00    -0.343 OA
ATOM     53  H8  UNL     1      47.204  88.466  39.646  1.00  0.00     0.219 HD
ENDBRANCH  37  52
ENDBRANCH  30  31
ENDBRANCH  17  30
ENDBRANCH   6   8
ENDBRANCH   1   6
TORSDOF 16
ENDMDL
MODEL 3
REMARK VINA RESULT: -8.873581888      3.351      8.007
REMARK  16 active torsions:
REMARK  status: ('A' for Active; 'I' for Inactive)
REMARK    1  A    between atoms: O1_2  and  C2_3 
REMARK    2  A    between atoms: C2_3  and  C4_6 
REMARK    3  A    between atoms: C4_6  and  C5_8 
REMARK    4  A    between atoms: C6_9  and  C7_10 
REMARK    5  A    between atoms: C7_10  and  S1_11 
REMARK    6  A    between atoms: S1_11  and  C8_12 
REMARK    7  A    between atoms: C12_22  and  C13_23 
REMARK    8  A    between atoms: C15_29  and  C16_30 
REMARK    9  A    between atoms: C16_30  and  N5_31 
REMARK   10  A    between atoms: C17_36  and  C18_37 
REMARK   11  A    between atoms: C18_37  and  C19_39 
REMARK   12  A    between atoms: C19_39  and  N8_40 
REMARK   13  A    between atoms: C19_39  and  C20_44 
REMARK   14  A    between atoms: C20_44  and  S4_45 
REMARK   15  A    between atoms: S4_45  and  N9_46 
REMARK   16  A    between atoms: C21_51  and  O8_52 
ROOT
HETATM    1  C2  UNL     1      50.455  90.906  36.747  1.00  0.00     0.195 C 
HETATM    2  C3  UNL     1      50.825  89.470  36.920  1.00  0.00     0.129 C 
HETATM    3  N1  UNL     1      51.106  88.351  37.034  1.00  0.00    -0.189 NA
ENDROOT
BRANCH   1   4
HETATM    4  O1  UNL     1      51.575  91.601  36.463  1.00  0.00    -0.343 OA
HETATM    5  C1  UNL     1      51.656  92.880  37.008  1.00  0.00     0.211 C 
ENDBRANCH   1   4
BRANCH   1   6
HETATM    6  C4  UNL     1      49.225  91.125  36.024  1.00  0.00     0.198 C 
HETATM    7  O2  UNL     1      48.628  90.031  35.765  1.00  0.00    -0.289 OA
BRANCH   6   8
HETATM    8  C5  UNL     1      48.565  92.357  35.558  1.00  0.00     0.078 C 
HETATM    9  C6  UNL     1      49.357  93.110  34.578  1.00  0.00     0.041 C 
HETATM   10  C11 UNL     1      48.669  94.205  33.864  1.00  0.00     0.156 C 
HETATM   11  N4  UNL     1      48.680  95.436  34.604  1.00  0.00    -0.393 N 
HETATM   12  S3  UNL     1      46.888  93.842  33.577  1.00  0.00    -0.071 SA
HETATM   13  C12 UNL     1      48.499  95.408  35.990  1.00  0.00     0.195 C 
ATOM     14  H4  UNL     1      48.818  96.323  34.122  1.00  0.00     0.155 HD
HETATM   15  C14 UNL     1      47.502  94.413  36.545  1.00  0.00     0.098 C 
HETATM   16  S2  UNL     1      46.045  94.264  35.480  1.00  0.00    -0.088 SA
HETATM   17  C15 UNL     1      48.148  93.111  36.793  1.00  0.00     0.035 C 
BRANCH   9  18
HETATM   18  C7  UNL     1      49.982  92.182  33.581  1.00  0.00     0.090 C 
BRANCH  18  19
HETATM   19  S1  UNL     1      51.625  92.568  33.025  1.00  0.00    -0.094 SA
BRANCH  19  20
HETATM   20  C8  UNL     1      52.880  91.353  33.274  1.00  0.00     0.136 C 
HETATM   21  N2  UNL     1      53.003  90.385  34.121  1.00  0.00    -0.369 N 
HETATM   22  C9  UNL     1      54.207  89.635  33.957  1.00  0.00     0.141 C 
ATOM     23  H2  UNL     1      52.308  90.177  34.838  1.00  0.00     0.161 HD
HETATM   24  C10 UNL     1      55.081  90.514  33.046  1.00  0.00     0.141 C 
HETATM   25  N3  UNL     1      54.008  91.261  32.378  1.00  0.00    -0.369 N 
ATOM     26  H3  UNL     1      54.053  91.651  31.437  1.00  0.00     0.161 HD
ENDBRANCH  19  20
ENDBRANCH  18  19
ENDBRANCH   9  18
BRANCH  13  27
HETATM   27  C13 UNL     1      48.161  96.793  36.449  1.00  0.00     0.197 C 
HETATM   28  O3  UNL     1      48.253  97.170  37.644  1.00  0.00    -0.646 OA
HETATM   29  O4  UNL     1      47.721  97.721  35.517  1.00  0.00    -0.646 OA
ENDBRANCH  13  27
BRANCH  17  30
HETATM   30  C16 UNL     1      47.383  92.180  37.679  1.00  0.00     0.159 C 
BRANCH  30  31
HETATM   31  N5  UNL     1      48.052  91.645  38.806  1.00  0.00    -0.254 N 
HETATM   32  N6  UNL     1      48.764  92.389  39.636  1.00  0.00    -0.238 N 
HETATM   33  N7  UNL     1      49.237  91.639  40.602  1.00  0.00    -0.279 N 
ATOM     34  H6  UNL     1      48.921  93.392  39.539  1.00  0.00     0.208 HD
HETATM   35  C17 UNL     1      48.842  90.376  40.425  1.00  0.00     0.150 A 
ATOM     36  H7  UNL     1      49.819  91.970  41.371  1.00  0.00     0.189 HD
HETATM   37  C21 UNL     1      48.081  90.407  39.260  1.00  0.00     0.191 A 
BRANCH  35  38
HETATM   38  C18 UNL     1      49.127  89.207  41.245  1.00  0.00     0.212 C 
HETATM   39  O5  UNL     1      48.418  88.950  42.243  1.00  0.00    -0.288 OA
BRANCH  38  40
HETATM   40  C19 UNL     1      50.240  88.275  40.955  1.00  0.00     0.274 C 
BRANCH  40  41
HETATM   41  N8  UNL     1      49.836  87.379  39.914  1.00  0.00    -0.067 N 
ATOM     42  H83 UNL     1      48.825  87.361  39.787  1.00  0.00     0.275 HD
ATOM     43  H82 UNL     1      50.090  87.721  38.988  1.00  0.00     0.275 HD
ATOM     44  H81 UNL     1      50.221  86.454  40.106  1.00  0.00     0.275 HD
ENDBRANCH  40  41
BRANCH  40  45
HETATM   45  C20 UNL     1      51.455  89.105  40.559  1.00  0.00     0.204 C 
BRANCH  45  46
HETATM   46  S4  UNL     1      52.617  89.248  41.886  1.00  0.00     0.226 S 
HETATM   47  O6  UNL     1      53.966  89.509  41.254  1.00  0.00    -0.206 OA
HETATM   48  O7  UNL     1      52.660  87.964  42.641  1.00  0.00    -0.206 OA
BRANCH  46  49
HETATM   49  N9  UNL     1      52.207  90.581  42.912  1.00  0.00    -0.328 N 
ATOM     50  H92 UNL     1      51.343  91.117  42.831  1.00  0.00     0.168 HD
ATOM     51  H91 UNL     1      52.945  90.747  43.596  1.00  0.00     0.168 HD
ENDBRANCH  46  49
ENDBRANCH  45  46
ENDBRANCH  40  45
ENDBRANCH  38  40
ENDBRANCH  35  38
BRANCH  37  52
HETATM   52  O8  UNL     1      47.506  89.234  38.772  1.00  0.00    -0.343 OA
ATOM     53  H8  UNL     1      47.256  88.430  39.210  1.00  0.00     0.219 HD
ENDBRANCH  37  52
ENDBRANCH  30  31
ENDBRANCH  17  30
ENDBRANCH   6   8
ENDBRANCH   1   6
TORSDOF 16
ENDMDL
MODEL 4
REMARK VINA RESULT: -8.823969320      1.275      1.570
REMARK  16 active torsions:
REMARK  status: ('A' for Active; 'I' for Inactive)
REMARK    1  A    between atoms: O1_2  and  C2_3 
REMARK    2  A    between atoms: C2_3  and  C4_6 
REMARK    3  A    between atoms: C4_6  and  C5_8 
REMARK    4  A    between atoms: C6_9  and  C7_10 
REMARK    5  A    between atoms: C7_10  and  S1_11 
REMARK    6  A    between atoms: S1_11  and  C8_12 
REMARK    7  A    between atoms: C12_22  and  C13_23 
REMARK    8  A    between atoms: C15_29  and  C16_30 
REMARK    9  A    between atoms: C16_30  and  N5_31 
REMARK   10  A    between atoms: C17_36  and  C18_37 
REMARK   11  A    between atoms: C18_37  and  C19_39 
REMARK   12  A    between atoms: C19_39  and  N8_40 
REMARK   13  A    between atoms: C19_39  and  C20_44 
REMARK   14  A    between atoms: C20_44  and  S4_45 
REMARK   15  A    between atoms: S4_45  and  N9_46 
REMARK   16  A    between atoms: C21_51  and  O8_52 
ROOT
HETATM    1  C2  UNL     1      54.034  86.924  37.634  1.00  0.00     0.195 C 
HETATM    2  C3  UNL     1      54.495  85.565  37.221  1.00  0.00     0.129 C 
HETATM    3  N1  UNL     1      54.833  84.506  36.893  1.00  0.00    -0.189 NA
ENDROOT
BRANCH   1   4
HETATM    4  O1  UNL     1      54.375  87.799  36.668  1.00  0.00    -0.343 OA
HETATM    5  C1  UNL     1      55.740  87.993  36.472  1.00  0.00     0.211 C 
ENDBRANCH   1   4
BRANCH   1   6
HETATM    6  C4  UNL     1      52.730  86.951  38.255  1.00  0.00     0.198 C 
HETATM    7  O2  UNL     1      51.889  86.239  37.619  1.00  0.00    -0.289 OA
BRANCH   6   8
HETATM    8  C5  UNL     1      52.229  87.635  39.460  1.00  0.00     0.078 C 
HETATM    9  C6  UNL     1      51.994  86.729  40.590  1.00  0.00     0.041 C 
HETATM   10  C11 UNL     1      51.748  87.353  41.906  1.00  0.00     0.156 C 
HETATM   11  N4  UNL     1      50.371  87.715  42.095  1.00  0.00    -0.393 N 
HETATM   12  S3  UNL     1      52.682  88.924  42.119  1.00  0.00    -0.071 SA
HETATM   13  C12 UNL     1      49.646  88.249  41.025  1.00  0.00     0.195 C 
ATOM     14  H4  UNL     1      49.925  87.583  43.002  1.00  0.00     0.155 HD
HETATM   15  C14 UNL     1      50.368  89.204  40.099  1.00  0.00     0.098 C 
HETATM   16  S2  UNL     1      51.495  90.291  41.008  1.00  0.00    -0.088 SA
HETATM   17  C15 UNL     1      51.052  88.466  39.020  1.00  0.00     0.035 C 
BRANCH   9  18
HETATM   18  C7  UNL     1      53.110  85.736  40.712  1.00  0.00     0.090 C 
BRANCH  18  19
HETATM   19  S1  UNL     1      52.666  84.039  40.990  1.00  0.00    -0.094 SA
BRANCH  19  20
HETATM   20  C8  UNL     1      52.187  83.078  39.590  1.00  0.00     0.136 C 
HETATM   21  N2  UNL     1      52.452  83.179  38.329  1.00  0.00    -0.369 N 
HETATM   22  C9  UNL     1      51.840  82.161  37.536  1.00  0.00     0.141 C 
ATOM     23  H2  UNL     1      53.040  83.915  37.938  1.00  0.00     0.161 HD
HETATM   24  C10 UNL     1      50.785  81.537  38.466  1.00  0.00     0.141 C 
HETATM   25  N3  UNL     1      51.411  81.872  39.751  1.00  0.00    -0.369 N 
ATOM     26  H3  UNL     1      51.313  81.339  40.616  1.00  0.00     0.161 HD
ENDBRANCH  19  20
ENDBRANCH  18  19
ENDBRANCH   9  18
BRANCH  13  27
HETATM   27  C13 UNL     1      48.407  88.890  41.569  1.00  0.00     0.197 C 
HETATM   28  O3  UNL     1      47.623  89.586  40.876  1.00  0.00    -0.646 OA
HETATM   29  O4  UNL     1      48.094  88.718  42.909  1.00  0.00    -0.646 OA
ENDBRANCH  13  27
BRANCH  17  30
HETATM   30  C16 UNL     1      51.472  89.296  37.850  1.00  0.00     0.159 C 
BRANCH  30  31
HETATM   31  N5  UNL     1      50.572  90.289  37.392  1.00  0.00    -0.254 N 
HETATM   32  N6  UNL     1      50.820  91.584  37.498  1.00  0.00    -0.238 N 
HETATM   33  N7  UNL     1      49.836  92.265  36.962  1.00  0.00    -0.279 N 
ATOM     34  H6  UNL     1      51.650  91.991  37.930  1.00  0.00     0.208 HD
HETATM   35  C17 UNL     1      48.912  91.425  36.489  1.00  0.00     0.150 A 
ATOM     36  H7  UNL     1      49.783  93.282  36.914  1.00  0.00     0.189 HD
HETATM   37  C21 UNL     1      49.411  90.158  36.780  1.00  0.00     0.191 A 
BRANCH  35  38
HETATM   38  C18 UNL     1      47.658  91.731  35.817  1.00  0.00     0.212 C 
HETATM   39  O5  UNL     1      46.764  90.861  35.725  1.00  0.00    -0.288 OA
BRANCH  38  40
HETATM   40  C19 UNL     1      47.370  93.054  35.219  1.00  0.00     0.274 C 
BRANCH  40  41
HETATM   41  N8  UNL     1      46.443  92.884  34.141  1.00  0.00    -0.067 N 
ATOM     42  H83 UNL     1      46.850  93.120  33.237  1.00  0.00     0.275 HD
ATOM     43  H82 UNL     1      46.240  91.902  33.955  1.00  0.00     0.275 HD
ATOM     44  H81 UNL     1      45.601  93.424  34.341  1.00  0.00     0.275 HD
ENDBRANCH  40  41
BRANCH  40  45
HETATM   45  C20 UNL     1      46.814  93.953  36.317  1.00  0.00     0.204 C 
BRANCH  45  46
HETATM   46  S4  UNL     1      48.002  95.150  36.853  1.00  0.00     0.226 S 
HETATM   47  O6  UNL     1      49.145  95.101  35.863  1.00  0.00    -0.206 OA
HETATM   48  O7  UNL     1      48.499  94.775  38.206  1.00  0.00    -0.206 OA
BRANCH  46  49
HETATM   49  N9  UNL     1      47.313  96.738  36.841  1.00  0.00    -0.328 N 
ATOM     50  H92 UNL     1      47.527  97.456  37.534  1.00  0.00     0.168 HD
ATOM     51  H91 UNL     1      46.674  96.845  36.054  1.00  0.00     0.168 HD
ENDBRANCH  46  49
ENDBRANCH  45  46
ENDBRANCH  40  45
ENDBRANCH  38  40
ENDBRANCH  35  38
BRANCH  37  52
HETATM   52  O8  UNL     1      48.683  89.024  36.422  1.00  0.00    -0.343 OA
ATOM     53  H8  UNL     1      48.443  88.251  36.919  1.00  0.00     0.219 HD
ENDBRANCH  37  52
ENDBRANCH  30  31
ENDBRANCH  17  30
ENDBRANCH   6   8
ENDBRANCH   1   6
TORSDOF 16
ENDMDL
MODEL 5
REMARK VINA RESULT: -8.722558467      1.079      1.439
REMARK  16 active torsions:
REMARK  status: ('A' for Active; 'I' for Inactive)
REMARK    1  A    between atoms: O1_2  and  C2_3 
REMARK    2  A    between atoms: C2_3  and  C4_6 
REMARK    3  A    between atoms: C4_6  and  C5_8 
REMARK    4  A    between atoms: C6_9  and  C7_10 
REMARK    5  A    between atoms: C7_10  and  S1_11 
REMARK    6  A    between atoms: S1_11  and  C8_12 
REMARK    7  A    between atoms: C12_22  and  C13_23 
REMARK    8  A    between atoms: C15_29  and  C16_30 
REMARK    9  A    between atoms: C16_30  and  N5_31 
REMARK   10  A    between atoms: C17_36  and  C18_37 
REMARK   11  A    between atoms: C18_37  and  C19_39 
REMARK   12  A    between atoms: C19_39  and  N8_40 
REMARK   13  A    between atoms: C19_39  and  C20_44 
REMARK   14  A    between atoms: C20_44  and  S4_45 
REMARK   15  A    between atoms: S4_45  and  N9_46 
REMARK   16  A    between atoms: C21_51  and  O8_52 
ROOT
HETATM    1  C2  UNL     1      54.038  86.936  37.629  1.00  0.00     0.195 C 
HETATM    2  C3  UNL     1      54.487  85.575  37.209  1.00  0.00     0.129 C 
HETATM    3  N1  UNL     1      54.814  84.514  36.876  1.00  0.00    -0.189 NA
ENDROOT
BRANCH   1   4
HETATM    4  O1  UNL     1      54.381  87.812  36.664  1.00  0.00    -0.343 OA
HETATM    5  C1  UNL     1      55.714  88.215  36.650  1.00  0.00     0.211 C 
ENDBRANCH   1   4
BRANCH   1   6
HETATM    6  C4  UNL     1      52.738  86.971  38.256  1.00  0.00     0.198 C 
HETATM    7  O2  UNL     1      51.890  86.261  37.626  1.00  0.00    -0.289 OA
BRANCH   6   8
HETATM    8  C5  UNL     1      52.246  87.660  39.462  1.00  0.00     0.078 C 
HETATM    9  C6  UNL     1      52.042  86.762  40.605  1.00  0.00     0.041 C 
HETATM   10  C11 UNL     1      51.808  87.397  41.919  1.00  0.00     0.156 C 
HETATM   11  N4  UNL     1      50.429  87.740  42.126  1.00  0.00    -0.393 N 
HETATM   12  S3  UNL     1      52.722  88.983  42.101  1.00  0.00    -0.071 SA
HETATM   13  C12 UNL     1      49.679  88.253  41.062  1.00  0.00     0.195 C 
ATOM     14  H4  UNL     1      50.000  87.611  43.041  1.00  0.00     0.155 HD
HETATM   15  C14 UNL     1      50.373  89.208  40.115  1.00  0.00     0.098 C 
HETATM   16  S2  UNL     1      51.498  90.321  40.995  1.00  0.00    -0.088 SA
HETATM   17  C15 UNL     1      51.051  88.469  39.033  1.00  0.00     0.035 C 
BRANCH   9  18
HETATM   18  C7  UNL     1      53.174  85.787  40.719  1.00  0.00     0.090 C 
BRANCH  18  19
HETATM   19  S1  UNL     1      52.758  84.081  40.986  1.00  0.00    -0.094 SA
BRANCH  19  20
HETATM   20  C8  UNL     1      52.253  83.133  39.585  1.00  0.00     0.136 C 
HETATM   21  N2  UNL     1      52.501  83.241  38.322  1.00  0.00    -0.369 N 
HETATM   22  C9  UNL     1      51.870  82.233  37.530  1.00  0.00     0.141 C 
ATOM     23  H2  UNL     1      53.090  83.974  37.928  1.00  0.00     0.161 HD
HETATM   24  C10 UNL     1      50.823  81.611  38.471  1.00  0.00     0.141 C 
HETATM   25  N3  UNL     1      51.469  81.932  39.750  1.00  0.00    -0.369 N 
ATOM     26  H3  UNL     1      51.379  81.394  40.612  1.00  0.00     0.161 HD
ENDBRANCH  19  20
ENDBRANCH  18  19
ENDBRANCH   9  18
BRANCH  13  27
HETATM   27  C13 UNL     1      48.440  88.882  41.620  1.00  0.00     0.197 C 
HETATM   28  O3  UNL     1      47.654  89.588  40.940  1.00  0.00    -0.646 OA
HETATM   29  O4  UNL     1      48.130  88.685  42.957  1.00  0.00    -0.646 OA
ENDBRANCH  13  27
BRANCH  17  30
HETATM   30  C16 UNL     1      51.439  89.294  37.848  1.00  0.00     0.159 C 
BRANCH  30  31
HETATM   31  N5  UNL     1      50.403  89.924  37.117  1.00  0.00    -0.254 N 
HETATM   32  N6  UNL     1      49.316  89.284  36.718  1.00  0.00    -0.238 N 
HETATM   33  N7  UNL     1      48.517  90.120  36.098  1.00  0.00    -0.279 N 
ATOM     34  H6  UNL     1      49.128  88.293  36.869  1.00  0.00     0.208 HD
HETATM   35  C17 UNL     1      49.068  91.336  36.077  1.00  0.00     0.150 A 
ATOM     36  H7  UNL     1      47.613  89.877  35.694  1.00  0.00     0.189 HD
HETATM   37  C21 UNL     1      50.282  91.183  36.739  1.00  0.00     0.191 A 
BRANCH  35  38
HETATM   38  C18 UNL     1      48.543  92.565  35.500  1.00  0.00     0.212 C 
HETATM   39  O5  UNL     1      48.499  92.710  34.259  1.00  0.00    -0.288 OA
BRANCH  38  40
HETATM   40  C19 UNL     1      48.042  93.689  36.324  1.00  0.00     0.274 C 
BRANCH  40  41
HETATM   41  N8  UNL     1      48.145  93.333  37.706  1.00  0.00    -0.067 N 
ATOM     42  H83 UNL     1      49.075  93.508  38.085  1.00  0.00     0.275 HD
ATOM     43  H82 UNL     1      47.623  93.967  38.310  1.00  0.00     0.275 HD
ATOM     44  H81 UNL     1      47.855  92.361  37.820  1.00  0.00     0.275 HD
ENDBRANCH  40  41
BRANCH  40  45
HETATM   45  C20 UNL     1      48.870  94.922  35.986  1.00  0.00     0.204 C 
BRANCH  45  46
HETATM   46  S4  UNL     1      48.070  96.415  36.499  1.00  0.00     0.226 S 
HETATM   47  O6  UNL     1      48.879  97.559  35.929  1.00  0.00    -0.206 OA
HETATM   48  O7  UNL     1      48.079  96.491  37.986  1.00  0.00    -0.206 OA
BRANCH  46  49
HETATM   49  N9  UNL     1      46.461  96.492  35.863  1.00  0.00    -0.328 N 
ATOM     50  H92 UNL     1      46.196  97.049  35.051  1.00  0.00     0.168 HD
ATOM     51  H91 UNL     1      45.831  95.907  36.413  1.00  0.00     0.168 HD
ENDBRANCH  46  49
ENDBRANCH  45  46
ENDBRANCH  40  45
ENDBRANCH  38  40
ENDBRANCH  35  38
BRANCH  37  52
HETATM   52  O8  UNL     1      51.133  92.276  36.897  1.00  0.00    -0.343 OA
ATOM     53  H8  UNL     1      52.010  92.340  37.255  1.00  0.00     0.219 HD
ENDBRANCH  37  52
ENDBRANCH  30  31
ENDBRANCH  17  30
ENDBRANCH   6   8
ENDBRANCH   1   6
TORSDOF 16
ENDMDL
