MODEL 1
REMARK VINA RESULT: -6.666124295      0.000      0.000
REMARK  10 active torsions:
REMARK  status: ('A' for Active; 'I' for Inactive)
REMARK       I    between atoms: C2_2  and  N1_4 
REMARK    1  A    between atoms: N1_4  and  C3_6 
REMARK    2  A    between atoms: C6_9  and  C7_10 
REMARK    3  A    between atoms: C8_14  and  O5_15 
REMARK    4  A    between atoms: O5_15  and  C9_16 
REMARK    5  A    between atoms: C9_16  and  C10_17 
REMARK    6  A    between atoms: C14_21  and  O6_22 
REMARK    7  A    between atoms: O6_22  and  C15_23 
REMARK    8  A    between atoms: C18_27  and  O8_28 
REMARK    9  A    between atoms: C19_30  and  O9_31 
REMARK   10  A    between atoms: C20_33  and  O10_34 
ROOT
HETATM    1  C10 UNL     1      10.337  27.876  37.480  1.00  0.00     0.148 C 
HETATM    2  C11 UNL     1       9.983  28.777  38.635  1.00  0.00     0.034 C 
HETATM    3  C12 UNL     1      11.251  29.087  39.410  1.00  0.00     0.007 C 
HETATM    4  C13 UNL     1      11.847  27.731  39.806  1.00  0.00     0.061 C 
HETATM    5  C14 UNL     1      12.163  27.020  38.504  1.00  0.00     0.263 C 
HETATM    6  O11 UNL     1      10.946  26.716  37.897  1.00  0.00    -0.354 OA
ENDROOT
BRANCH   1   7
HETATM    7  C9  UNL     1       9.091  27.561  36.681  1.00  0.00     0.203 C 
BRANCH   7   8
HETATM    8  O5  UNL     1       9.407  27.346  35.343  1.00  0.00    -0.357 OA
BRANCH   8   9
HETATM    9  C8  UNL     1       8.330  27.587  34.501  1.00  0.00     0.283 C 
HETATM   10  C3  UNL     1       7.922  26.286  33.873  1.00  0.00     0.139 C 
HETATM   11  C4  UNL     1       6.791  26.609  32.926  1.00  0.00     0.033 C 
HETATM   12  C5  UNL     1       5.714  27.386  33.596  1.00  0.00     0.045 C 
HETATM   13  C6  UNL     1       6.069  27.979  34.912  1.00  0.00     0.225 C 
HETATM   14  O4  UNL     1       7.350  28.233  35.182  1.00  0.00    -0.343 OA
BRANCH  10  15
HETATM   15  N1  UNL     1       9.036  25.810  33.082  1.00  0.00    -0.352 N 
HETATM   16  C2  UNL     1       9.491  24.467  33.132  1.00  0.00     0.214 C 
HETATM   17  C1  UNL     1      10.633  23.998  32.316  1.00  0.00     0.117 C 
HETATM   18  O1  UNL     1       8.939  23.605  33.881  1.00  0.00    -0.274 OA
ATOM     19  H1  UNL     1       9.514  26.467  32.463  1.00  0.00     0.163 HD
ENDBRANCH  10  15
BRANCH  13  20
HETATM   20  C7  UNL     1       5.269  29.212  35.091  1.00  0.00     0.203 C 
HETATM   21  O2  UNL     1       5.085  29.642  36.254  1.00  0.00    -0.646 OA
HETATM   22  O3  UNL     1       4.703  29.932  34.050  1.00  0.00    -0.646 OA
ENDBRANCH  13  20
ENDBRANCH   8   9
ENDBRANCH   7   8
ENDBRANCH   1   7
BRANCH   5  23
HETATM   23  O6  UNL     1      12.821  27.935  37.693  1.00  0.00    -0.329 OA
BRANCH  23  24
HETATM   24  C15 UNL     1      14.015  27.446  37.180  1.00  0.00     0.294 C 
HETATM   25  O7  UNL     1      15.052  27.450  38.072  1.00  0.00    -0.351 OA
HETATM   26  C16 UNL     1      16.178  28.118  37.668  1.00  0.00     0.152 C 
HETATM   27  C17 UNL     1      17.276  27.799  38.689  1.00  0.00     0.042 C 
HETATM   28  C18 UNL     1      16.678  27.703  36.303  1.00  0.00     0.178 C 
HETATM   29  C19 UNL     1      15.604  27.747  35.265  1.00  0.00     0.183 C 
HETATM   30  C20 UNL     1      14.295  28.158  35.894  1.00  0.00     0.204 C 
BRANCH  28  31
HETATM   31  O8  UNL     1      17.225  26.422  36.329  1.00  0.00    -0.390 OA
ATOM     32  H8  UNL     1      16.769  25.837  35.736  1.00  0.00     0.210 HD
ENDBRANCH  28  31
BRANCH  29  33
HETATM   33  O9  UNL     1      15.490  26.550  34.562  1.00  0.00    -0.390 OA
ATOM     34  H9  UNL     1      15.354  26.684  33.631  1.00  0.00     0.210 HD
ENDBRANCH  29  33
BRANCH  30  35
HETATM   35  O10 UNL     1      13.226  27.944  35.039  1.00  0.00    -0.388 OA
ATOM     36  H10 UNL     1      12.454  28.343  35.423  1.00  0.00     0.210 HD
ENDBRANCH  30  35
ENDBRANCH  23  24
ENDBRANCH   5  23
TORSDOF 10
ENDMDL
MODEL 2
REMARK VINA RESULT: -6.650178723      2.744      7.597
REMARK  10 active torsions:
REMARK  status: ('A' for Active; 'I' for Inactive)
REMARK       I    between atoms: C2_2  and  N1_4 
REMARK    1  A    between atoms: N1_4  and  C3_6 
REMARK    2  A    between atoms: C6_9  and  C7_10 
REMARK    3  A    between atoms: C8_14  and  O5_15 
REMARK    4  A    between atoms: O5_15  and  C9_16 
REMARK    5  A    between atoms: C9_16  and  C10_17 
REMARK    6  A    between atoms: C14_21  and  O6_22 
REMARK    7  A    between atoms: O6_22  and  C15_23 
REMARK    8  A    between atoms: C18_27  and  O8_28 
REMARK    9  A    between atoms: C19_30  and  O9_31 
REMARK   10  A    between atoms: C20_33  and  O10_34 
ROOT
HETATM    1  C10 UNL     1       7.888  26.319  35.804  1.00  0.00     0.148 C 
HETATM    2  C11 UNL     1       7.155  25.683  36.958  1.00  0.00     0.034 C 
HETATM    3  C12 UNL     1       6.872  24.233  36.607  1.00  0.00     0.007 C 
HETATM    4  C13 UNL     1       6.096  24.262  35.285  1.00  0.00     0.061 C 
HETATM    5  C14 UNL     1       7.027  24.897  34.271  1.00  0.00     0.263 C 
HETATM    6  O11 UNL     1       7.177  26.235  34.632  1.00  0.00    -0.354 OA
ENDROOT
BRANCH   1   7
HETATM    7  C9  UNL     1       8.196  27.764  36.133  1.00  0.00     0.203 C 
BRANCH   7   8
HETATM    8  O5  UNL     1       8.593  27.891  37.460  1.00  0.00    -0.357 OA
BRANCH   8   9
HETATM    9  C8  UNL     1       9.831  28.507  37.585  1.00  0.00     0.283 C 
HETATM   10  C3  UNL     1      10.038  28.863  39.028  1.00  0.00     0.139 C 
HETATM   11  C4  UNL     1      11.366  29.579  39.101  1.00  0.00     0.033 C 
HETATM   12  C5  UNL     1      12.451  28.797  38.452  1.00  0.00     0.045 C 
HETATM   13  C6  UNL     1      12.008  27.673  37.587  1.00  0.00     0.225 C 
HETATM   14  O4  UNL     1      10.792  27.718  37.041  1.00  0.00    -0.343 OA
BRANCH  10  15
HETATM   15  N1  UNL     1       9.008  29.810  39.399  1.00  0.00    -0.352 N 
HETATM   16  C2  UNL     1       8.289  29.718  40.619  1.00  0.00     0.214 C 
HETATM   17  C1  UNL     1       7.239  30.694  40.983  1.00  0.00     0.117 C 
HETATM   18  O1  UNL     1       8.516  28.792  41.457  1.00  0.00    -0.274 OA
ATOM     19  H1  UNL     1       8.789  30.573  38.758  1.00  0.00     0.163 HD
ENDBRANCH  10  15
BRANCH  13  20
HETATM   20  C7  UNL     1      13.023  27.482  36.525  1.00  0.00     0.203 C 
HETATM   21  O2  UNL     1      13.385  28.477  35.856  1.00  0.00    -0.646 OA
HETATM   22  O3  UNL     1      13.607  26.262  36.217  1.00  0.00    -0.646 OA
ENDBRANCH  13  20
ENDBRANCH   8   9
ENDBRANCH   7   8
ENDBRANCH   1   7
BRANCH   5  23
HETATM   23  O6  UNL     1       8.264  24.282  34.417  1.00  0.00    -0.329 OA
BRANCH  23  24
HETATM   24  C15 UNL     1       8.806  23.858  33.211  1.00  0.00     0.294 C 
HETATM   25  O7  UNL     1       8.722  22.510  33.001  1.00  0.00    -0.351 OA
HETATM   26  C16 UNL     1       9.910  21.876  32.741  1.00  0.00     0.152 C 
HETATM   27  C17 UNL     1       9.567  20.447  32.306  1.00  0.00     0.042 C 
HETATM   28  C18 UNL     1      10.715  22.518  31.634  1.00  0.00     0.178 C 
HETATM   29  C19 UNL     1      10.902  23.986  31.843  1.00  0.00     0.183 C 
HETATM   30  C20 UNL     1      10.187  24.424  33.097  1.00  0.00     0.204 C 
BRANCH  28  31
HETATM   31  O8  UNL     1      10.122  22.314  30.389  1.00  0.00    -0.390 OA
ATOM     32  H8  UNL     1      10.771  22.283  29.697  1.00  0.00     0.210 HD
ENDBRANCH  28  31
BRANCH  29  33
HETATM   33  O9  UNL     1      10.518  24.738  30.735  1.00  0.00    -0.390 OA
ATOM     34  H9  UNL     1      11.212  25.307  30.421  1.00  0.00     0.210 HD
ENDBRANCH  29  33
BRANCH  30  35
HETATM   35  O10 UNL     1      10.098  25.805  33.181  1.00  0.00    -0.388 OA
ATOM     36  H10 UNL     1       9.463  26.021  33.854  1.00  0.00     0.210 HD
ENDBRANCH  30  35
ENDBRANCH  23  24
ENDBRANCH   5  23
TORSDOF 10
ENDMDL
MODEL 3
REMARK VINA RESULT: -6.527326574      3.037      7.044
REMARK  10 active torsions:
REMARK  status: ('A' for Active; 'I' for Inactive)
REMARK       I    between atoms: C2_2  and  N1_4 
REMARK    1  A    between atoms: N1_4  and  C3_6 
REMARK    2  A    between atoms: C6_9  and  C7_10 
REMARK    3  A    between atoms: C8_14  and  O5_15 
REMARK    4  A    between atoms: O5_15  and  C9_16 
REMARK    5  A    between atoms: C9_16  and  C10_17 
REMARK    6  A    between atoms: C14_21  and  O6_22 
REMARK    7  A    between atoms: O6_22  and  C15_23 
REMARK    8  A    between atoms: C18_27  and  O8_28 
REMARK    9  A    between atoms: C19_30  and  O9_31 
REMARK   10  A    between atoms: C20_33  and  O10_34 
ROOT
HETATM    1  C10 UNL     1       7.812  24.117  34.593  1.00  0.00     0.148 C 
HETATM    2  C11 UNL     1       6.982  23.094  35.326  1.00  0.00     0.034 C 
HETATM    3  C12 UNL     1       7.199  21.740  34.673  1.00  0.00     0.007 C 
HETATM    4  C13 UNL     1       6.842  21.923  33.192  1.00  0.00     0.061 C 
HETATM    5  C14 UNL     1       7.818  22.952  32.654  1.00  0.00     0.263 C 
HETATM    6  O11 UNL     1       7.503  24.169  33.255  1.00  0.00    -0.354 OA
ENDROOT
BRANCH   1   7
HETATM    7  C9  UNL     1       7.624  25.476  35.233  1.00  0.00     0.203 C 
BRANCH   7   8
HETATM    8  O5  UNL     1       8.247  26.464  34.478  1.00  0.00    -0.357 OA
BRANCH   8   9
HETATM    9  C8  UNL     1       8.625  27.556  35.246  1.00  0.00     0.283 C 
HETATM   10  C3  UNL     1       7.406  28.089  35.941  1.00  0.00     0.139 C 
HETATM   11  C4  UNL     1       7.857  29.306  36.713  1.00  0.00     0.033 C 
HETATM   12  C5  UNL     1       9.031  29.008  37.576  1.00  0.00     0.045 C 
HETATM   13  C6  UNL     1       9.738  27.733  37.288  1.00  0.00     0.225 C 
HETATM   14  O4  UNL     1       9.651  27.208  36.064  1.00  0.00    -0.343 OA
BRANCH  10  15
HETATM   15  N1  UNL     1       6.479  28.534  34.922  1.00  0.00    -0.352 N 
HETATM   16  C2  UNL     1       5.074  28.537  35.117  1.00  0.00     0.214 C 
HETATM   17  C1  UNL     1       4.140  28.995  34.065  1.00  0.00     0.117 C 
HETATM   18  O1  UNL     1       4.552  28.146  36.205  1.00  0.00    -0.274 OA
ATOM     19  H1  UNL     1       6.851  28.858  34.029  1.00  0.00     0.163 HD
ENDBRANCH  10  15
BRANCH  13  20
HETATM   20  C7  UNL     1      11.162  27.902  37.656  1.00  0.00     0.203 C 
HETATM   21  O2  UNL     1      11.814  26.892  38.007  1.00  0.00    -0.646 OA
HETATM   22  O3  UNL     1      11.832  29.117  37.639  1.00  0.00    -0.646 OA
ENDBRANCH  13  20
ENDBRANCH   8   9
ENDBRANCH   7   8
ENDBRANCH   1   7
BRANCH   5  23
HETATM   23  O6  UNL     1       9.082  22.580  33.095  1.00  0.00    -0.329 OA
BRANCH  23  24
HETATM   24  C15 UNL     1      10.046  22.651  32.099  1.00  0.00     0.294 C 
HETATM   25  O7  UNL     1      10.495  21.434  31.665  1.00  0.00    -0.351 OA
HETATM   26  C16 UNL     1      11.851  21.244  31.734  1.00  0.00     0.152 C 
HETATM   27  C17 UNL     1      12.156  19.939  30.990  1.00  0.00     0.042 C 
HETATM   28  C18 UNL     1      12.656  22.348  31.087  1.00  0.00     0.178 C 
HETATM   29  C19 UNL     1      12.260  23.704  31.574  1.00  0.00     0.183 C 
HETATM   30  C20 UNL     1      11.121  23.586  32.558  1.00  0.00     0.204 C 
BRANCH  28  31
HETATM   31  O8  UNL     1      12.538  22.318  29.698  1.00  0.00    -0.390 OA
ATOM     32  H8  UNL     1      13.342  22.593  29.276  1.00  0.00     0.210 HD
ENDBRANCH  28  31
BRANCH  29  33
HETATM   33  O9  UNL     1      11.961  24.580  30.535  1.00  0.00    -0.390 OA
ATOM     34  H9  UNL     1      11.125  24.389  30.124  1.00  0.00     0.210 HD
ENDBRANCH  29  33
BRANCH  30  35
HETATM   35  O10 UNL     1      10.541  24.817  32.821  1.00  0.00    -0.388 OA
ATOM     36  H10 UNL     1      11.191  25.491  32.660  1.00  0.00     0.210 HD
ENDBRANCH  30  35
ENDBRANCH  23  24
ENDBRANCH   5  23
TORSDOF 10
ENDMDL
MODEL 4
REMARK VINA RESULT: -6.453026345      3.163      8.216
REMARK  10 active torsions:
REMARK  status: ('A' for Active; 'I' for Inactive)
REMARK       I    between atoms: C2_2  and  N1_4 
REMARK    1  A    between atoms: N1_4  and  C3_6 
REMARK    2  A    between atoms: C6_9  and  C7_10 
REMARK    3  A    between atoms: C8_14  and  O5_15 
REMARK    4  A    between atoms: O5_15  and  C9_16 
REMARK    5  A    between atoms: C9_16  and  C10_17 
REMARK    6  A    between atoms: C14_21  and  O6_22 
REMARK    7  A    between atoms: O6_22  and  C15_23 
REMARK    8  A    between atoms: C18_27  and  O8_28 
REMARK    9  A    between atoms: C19_30  and  O9_31 
REMARK   10  A    between atoms: C20_33  and  O10_34 
ROOT
HETATM    1  C10 UNL     1       9.297  22.797  32.903  1.00  0.00     0.148 C 
HETATM    2  C11 UNL     1       8.585  21.852  31.968  1.00  0.00     0.034 C 
HETATM    3  C12 UNL     1       7.119  22.246  31.911  1.00  0.00     0.007 C 
HETATM    4  C13 UNL     1       6.619  22.222  33.361  1.00  0.00     0.061 C 
HETATM    5  C14 UNL     1       7.436  23.265  34.099  1.00  0.00     0.263 C 
HETATM    6  O11 UNL     1       8.745  22.792  34.161  1.00  0.00    -0.354 OA
ENDROOT
BRANCH   1   7
HETATM    7  C9  UNL     1      10.765  22.435  32.968  1.00  0.00     0.203 C 
BRANCH   7   8
HETATM    8  O5  UNL     1      11.505  23.227  32.096  1.00  0.00    -0.357 OA
BRANCH   8   9
HETATM    9  C8  UNL     1      12.644  23.749  32.693  1.00  0.00     0.283 C 
HETATM   10  C3  UNL     1      13.706  23.890  31.642  1.00  0.00     0.139 C 
HETATM   11  C4  UNL     1      14.937  24.404  32.350  1.00  0.00     0.033 C 
HETATM   12  C5  UNL     1      14.643  25.617  33.158  1.00  0.00     0.045 C 
HETATM   13  C6  UNL     1      13.204  25.900  33.398  1.00  0.00     0.225 C 
HETATM   14  O4  UNL     1      12.332  24.892  33.355  1.00  0.00    -0.343 OA
BRANCH  10  15
HETATM   15  N1  UNL     1      14.007  22.565  31.142  1.00  0.00    -0.352 N 
HETATM   16  C2  UNL     1      14.792  22.348  29.980  1.00  0.00     0.214 C 
HETATM   17  C1  UNL     1      15.091  20.987  29.482  1.00  0.00     0.117 C 
HETATM   18  O1  UNL     1      15.276  23.313  29.313  1.00  0.00    -0.274 OA
ATOM     19  H1  UNL     1      13.641  21.756  31.644  1.00  0.00     0.163 HD
ENDBRANCH  10  15
BRANCH  13  20
HETATM   20  C7  UNL     1      13.085  26.607  34.694  1.00  0.00     0.203 C 
HETATM   21  O2  UNL     1      14.053  26.569  35.488  1.00  0.00    -0.646 OA
HETATM   22  O3  UNL     1      11.961  27.315  35.094  1.00  0.00    -0.646 OA
ENDBRANCH  13  20
ENDBRANCH   8   9
ENDBRANCH   7   8
ENDBRANCH   1   7
BRANCH   5  23
HETATM   23  O6  UNL     1       7.439  24.409  33.311  1.00  0.00    -0.329 OA
BRANCH  23  24
HETATM   24  C15 UNL     1       7.324  25.578  34.050  1.00  0.00     0.294 C 
HETATM   25  O7  UNL     1       6.060  26.100  34.082  1.00  0.00    -0.351 OA
HETATM   26  C16 UNL     1       5.946  27.401  33.664  1.00  0.00     0.152 C 
HETATM   27  C17 UNL     1       4.521  27.854  34.002  1.00  0.00     0.042 C 
HETATM   28  C18 UNL     1       6.908  28.347  34.345  1.00  0.00     0.178 C 
HETATM   29  C19 UNL     1       8.321  27.866  34.283  1.00  0.00     0.183 C 
HETATM   30  C20 UNL     1       8.381  26.529  33.584  1.00  0.00     0.204 C 
BRANCH  28  31
HETATM   31  O8  UNL     1       6.562  28.552  35.680  1.00  0.00    -0.390 OA
ATOM     32  H8  UNL     1       7.313  28.449  36.252  1.00  0.00     0.210 HD
ENDBRANCH  28  31
BRANCH  29  33
HETATM   33  O9  UNL     1       8.930  27.826  35.535  1.00  0.00    -0.390 OA
ATOM     34  H9  UNL     1       9.635  28.456  35.619  1.00  0.00     0.210 HD
ENDBRANCH  29  33
BRANCH  30  35
HETATM   35  O10 UNL     1       9.615  25.920  33.748  1.00  0.00    -0.388 OA
ATOM     36  H10 UNL     1       9.950  25.693  32.888  1.00  0.00     0.210 HD
ENDBRANCH  30  35
ENDBRANCH  23  24
ENDBRANCH   5  23
TORSDOF 10
ENDMDL
MODEL 5
REMARK VINA RESULT: -6.449846152      2.545      8.218
REMARK  10 active torsions:
REMARK  status: ('A' for Active; 'I' for Inactive)
REMARK       I    between atoms: C2_2  and  N1_4 
REMARK    1  A    between atoms: N1_4  and  C3_6 
REMARK    2  A    between atoms: C6_9  and  C7_10 
REMARK    3  A    between atoms: C8_14  and  O5_15 
REMARK    4  A    between atoms: O5_15  and  C9_16 
REMARK    5  A    between atoms: C9_16  and  C10_17 
REMARK    6  A    between atoms: C14_21  and  O6_22 
REMARK    7  A    between atoms: O6_22  and  C15_23 
REMARK    8  A    between atoms: C18_27  and  O8_28 
REMARK    9  A    between atoms: C19_30  and  O9_31 
REMARK   10  A    between atoms: C20_33  and  O10_34 
ROOT
HETATM    1  C10 UNL     1       6.688  28.298  35.667  1.00  0.00     0.148 C 
HETATM    2  C11 UNL     1       5.351  28.780  36.171  1.00  0.00     0.034 C 
HETATM    3  C12 UNL     1       4.259  28.009  35.449  1.00  0.00     0.007 C 
HETATM    4  C13 UNL     1       4.505  28.231  33.951  1.00  0.00     0.061 C 
HETATM    5  C14 UNL     1       5.872  27.641  33.663  1.00  0.00     0.263 C 
HETATM    6  O11 UNL     1       6.810  28.445  34.306  1.00  0.00    -0.354 OA
ENDROOT
BRANCH   1   7
HETATM    7  C9  UNL     1       7.796  29.042  36.381  1.00  0.00     0.203 C 
BRANCH   7   8
HETATM    8  O5  UNL     1       8.496  28.186  37.225  1.00  0.00    -0.357 OA
BRANCH   8   9
HETATM    9  C8  UNL     1       9.767  28.659  37.522  1.00  0.00     0.283 C 
HETATM   10  C3  UNL     1       9.879  28.806  39.012  1.00  0.00     0.139 C 
HETATM   11  C4  UNL     1      11.252  29.377  39.278  1.00  0.00     0.033 C 
HETATM   12  C5  UNL     1      12.319  28.583  38.611  1.00  0.00     0.045 C 
HETATM   13  C6  UNL     1      11.857  27.627  37.571  1.00  0.00     0.225 C 
HETATM   14  O4  UNL     1      10.700  27.858  36.949  1.00  0.00    -0.343 OA
BRANCH  10  15
HETATM   15  N1  UNL     1       8.905  29.792  39.431  1.00  0.00    -0.352 N 
HETATM   16  C2  UNL     1       7.810  29.472  40.274  1.00  0.00     0.214 C 
HETATM   17  C1  UNL     1       6.823  30.491  40.693  1.00  0.00     0.117 C 
HETATM   18  O1  UNL     1       7.626  28.294  40.709  1.00  0.00    -0.274 OA
ATOM     19  H1  UNL     1       9.010  30.753  39.107  1.00  0.00     0.163 HD
ENDBRANCH  10  15
BRANCH  13  20
HETATM   20  C7  UNL     1      12.939  27.477  36.571  1.00  0.00     0.203 C 
HETATM   21  O2  UNL     1      13.338  28.498  35.963  1.00  0.00    -0.646 OA
HETATM   22  O3  UNL     1      13.547  26.271  36.257  1.00  0.00    -0.646 OA
ENDBRANCH  13  20
ENDBRANCH   8   9
ENDBRANCH   7   8
ENDBRANCH   1   7
BRANCH   5  23
HETATM   23  O6  UNL     1       5.908  26.389  34.266  1.00  0.00    -0.329 OA
BRANCH  23  24
HETATM   24  C15 UNL     1       6.665  25.467  33.557  1.00  0.00     0.294 C 
HETATM   25  O7  UNL     1       5.934  24.655  32.734  1.00  0.00    -0.351 OA
HETATM   26  C16 UNL     1       6.097  23.308  32.932  1.00  0.00     0.152 C 
HETATM   27  C17 UNL     1       5.391  22.598  31.772  1.00  0.00     0.042 C 
HETATM   28  C18 UNL     1       7.542  22.863  32.940  1.00  0.00     0.178 C 
HETATM   29  C19 UNL     1       8.382  23.669  33.877  1.00  0.00     0.183 C 
HETATM   30  C20 UNL     1       7.545  24.743  34.527  1.00  0.00     0.204 C 
BRANCH  28  31
HETATM   31  O8  UNL     1       8.102  22.930  31.665  1.00  0.00    -0.390 OA
ATOM     32  H8  UNL     1       7.468  22.704  30.995  1.00  0.00     0.210 HD
ENDBRANCH  28  31
BRANCH  29  33
HETATM   33  O9  UNL     1       9.516  24.195  33.263  1.00  0.00    -0.390 OA
ATOM     34  H9  UNL     1      10.284  24.161  33.822  1.00  0.00     0.210 HD
ENDBRANCH  29  33
BRANCH  30  35
HETATM   35  O10 UNL     1       8.329  25.679  35.182  1.00  0.00    -0.388 OA
ATOM     36  H10 UNL     1       9.060  25.224  35.585  1.00  0.00     0.210 HD
ENDBRANCH  30  35
ENDBRANCH  23  24
ENDBRANCH   5  23
TORSDOF 10
ENDMDL
