MODEL 1
REMARK VINA RESULT: -5.811730750      0.000      0.000
REMARK  13 active torsions:
REMARK  status: ('A' for Active; 'I' for Inactive)
REMARK    1  A    between atoms: N1_1  and  C1_5 
REMARK    2  A    between atoms: C1_5  and  C2_6 
REMARK    3  A    between atoms: C3_8  and  N2_9 
REMARK       I    between atoms: N2_9  and  C4_11 
REMARK    4  A    between atoms: C4_11  and  C5_13 
REMARK    5  A    between atoms: C8_16  and  O3_17 
REMARK    6  A    between atoms: O3_17  and  C9_18 
REMARK    7  A    between atoms: C10_19  and  C11_20 
REMARK    8  A    between atoms: C11_20  and  O4_21 
REMARK    9  A    between atoms: C12_24  and  S1_25 
REMARK   10  A    between atoms: S1_25  and  C13_26 
REMARK   11  A    between atoms: C18_31  and  O6_32 
REMARK   12  A    between atoms: C19_34  and  O7_35 
REMARK   13  A    between atoms: C20_37  and  O8_38 
ROOT
HETATM    1  C2  UNL     1      15.175  32.888  45.587  1.00  0.00     0.180 C 
HETATM    2  O1  UNL     1      13.971  33.049  44.936  1.00  0.00    -0.354 OA
HETATM    3  C3  UNL     1      13.504  31.914  44.284  1.00  0.00     0.255 C 
HETATM    4  C8  UNL     1      14.500  31.354  43.288  1.00  0.00     0.202 C 
HETATM    5  C19 UNL     1      15.580  32.436  43.170  1.00  0.00     0.182 C 
HETATM    6  C20 UNL     1      16.234  32.620  44.547  1.00  0.00     0.180 C 
ENDROOT
BRANCH   4   7
HETATM    7  O3  UNL     1      13.832  31.163  42.111  1.00  0.00    -0.368 OA
BRANCH   7   8
HETATM    8  C9  UNL     1      13.787  29.917  41.595  1.00  0.00     0.185 C 
HETATM    9  C10 UNL     1      12.511  29.205  41.514  1.00  0.00     0.178 C 
HETATM   10  O5  UNL     1      12.453  28.522  40.301  1.00  0.00    -0.363 OA
HETATM   11  C12 UNL     1      13.255  29.169  39.403  1.00  0.00     0.215 C 
HETATM   12  C18 UNL     1      14.272  29.994  40.153  1.00  0.00     0.188 C 
BRANCH   9  13
HETATM   13  C11 UNL     1      12.384  28.129  42.582  1.00  0.00     0.198 C 
BRANCH  13  14
HETATM   14  O4  UNL     1      12.029  28.634  43.812  1.00  0.00    -0.398 OA
ATOM     15  H4  UNL     1      11.159  29.015  43.820  1.00  0.00     0.209 HD
ENDBRANCH  13  14
ENDBRANCH   9  13
BRANCH  11  16
HETATM   16  S1  UNL     1      14.107  28.161  38.226  1.00  0.00    -0.130 SA
BRANCH  16  17
HETATM   17  C13 UNL     1      15.845  28.487  37.985  1.00  0.00     0.050 C 
HETATM   18  C14 UNL     1      16.296  28.455  36.555  1.00  0.00     0.015 C 
HETATM   19  C15 UNL     1      16.846  27.063  36.377  1.00  0.00     0.001 C 
HETATM   20  C16 UNL     1      17.265  26.588  37.738  1.00  0.00     0.001 C 
HETATM   21  C17 UNL     1      16.791  27.614  38.704  1.00  0.00     0.015 C 
ENDBRANCH  16  17
ENDBRANCH  11  16
BRANCH  12  22
HETATM   22  O6  UNL     1      14.328  31.280  39.682  1.00  0.00    -0.389 OA
ATOM     23  H6  UNL     1      14.940  31.380  38.961  1.00  0.00     0.210 HD
ENDBRANCH  12  22
ENDBRANCH   7   8
ENDBRANCH   4   7
BRANCH   3  24
HETATM   24  N2  UNL     1      12.273  32.312  43.647  1.00  0.00    -0.332 N 
HETATM   25  C4  UNL     1      11.031  31.944  44.203  1.00  0.00     0.223 C 
HETATM   26  O2  UNL     1      11.007  31.270  45.251  1.00  0.00    -0.273 OA
ATOM     27  H2  UNL     1      12.301  32.862  42.788  1.00  0.00     0.165 HD
BRANCH  25  28
HETATM   28  C5  UNL     1       9.749  32.348  43.558  1.00  0.00     0.078 A 
HETATM   29  C6  UNL     1       9.110  33.652  44.135  1.00  0.00     0.015 A 
HETATM   30  C7  UNL     1       8.527  32.267  44.383  1.00  0.00     0.015 A 
ENDBRANCH  25  28
ENDBRANCH   3  24
BRANCH   5  31
HETATM   31  O7  UNL     1      15.011  33.645  42.846  1.00  0.00    -0.390 OA
ATOM     32  H7  UNL     1      15.664  34.228  42.476  1.00  0.00     0.210 HD
ENDBRANCH   5  31
BRANCH   6  33
HETATM   33  O8  UNL     1      17.070  33.724  44.433  1.00  0.00    -0.390 OA
ATOM     34  H8  UNL     1      16.550  34.508  44.306  1.00  0.00     0.210 HD
ENDBRANCH   6  33
BRANCH   1  35
HETATM   35  C1  UNL     1      15.194  31.758  46.587  1.00  0.00     0.264 C 
BRANCH  35  36
HETATM   36  N1  UNL     1      14.516  32.094  47.812  1.00  0.00    -0.077 N 
ATOM     37  H13 UNL     1      15.010  32.831  48.315  1.00  0.00     0.274 HD
ATOM     38  H12 UNL     1      13.641  32.582  47.625  1.00  0.00     0.274 HD
ATOM     39  H11 UNL     1      14.361  31.281  48.409  1.00  0.00     0.274 HD
ENDBRANCH  35  36
ENDBRANCH   1  35
TORSDOF 13
ENDMDL
MODEL 2
REMARK VINA RESULT: -5.681183469     11.341     14.306
REMARK  13 active torsions:
REMARK  status: ('A' for Active; 'I' for Inactive)
REMARK    1  A    between atoms: N1_1  and  C1_5 
REMARK    2  A    between atoms: C1_5  and  C2_6 
REMARK    3  A    between atoms: C3_8  and  N2_9 
REMARK       I    between atoms: N2_9  and  C4_11 
REMARK    4  A    between atoms: C4_11  and  C5_13 
REMARK    5  A    between atoms: C8_16  and  O3_17 
REMARK    6  A    between atoms: O3_17  and  C9_18 
REMARK    7  A    between atoms: C10_19  and  C11_20 
REMARK    8  A    between atoms: C11_20  and  O4_21 
REMARK    9  A    between atoms: C12_24  and  S1_25 
REMARK   10  A    between atoms: S1_25  and  C13_26 
REMARK   11  A    between atoms: C18_31  and  O6_32 
REMARK   12  A    between atoms: C19_34  and  O7_35 
REMARK   13  A    between atoms: C20_37  and  O8_38 
ROOT
HETATM    1  C2  UNL     1      13.867  23.187  31.065  1.00  0.00     0.180 C 
HETATM    2  O1  UNL     1      13.029  22.225  31.588  1.00  0.00    -0.354 OA
HETATM    3  C3  UNL     1      11.675  22.526  31.504  1.00  0.00     0.255 C 
HETATM    4  C8  UNL     1      11.322  23.851  32.151  1.00  0.00     0.202 C 
HETATM    5  C19 UNL     1      12.588  24.255  32.918  1.00  0.00     0.182 C 
HETATM    6  C20 UNL     1      13.730  24.430  31.908  1.00  0.00     0.180 C 
ENDROOT
BRANCH   4   7
HETATM    7  O3  UNL     1      10.265  23.626  32.986  1.00  0.00    -0.368 OA
BRANCH   7   8
HETATM    8  C9  UNL     1       9.066  24.153  32.659  1.00  0.00     0.185 C 
HETATM    9  C10 UNL     1       7.855  23.697  33.343  1.00  0.00     0.178 C 
HETATM   10  O5  UNL     1       7.038  24.797  33.591  1.00  0.00    -0.363 OA
HETATM   11  C12 UNL     1       7.824  25.912  33.665  1.00  0.00     0.215 C 
HETATM   12  C18 UNL     1       9.123  25.649  32.944  1.00  0.00     0.188 C 
BRANCH   9  13
HETATM   13  C11 UNL     1       7.020  22.768  32.476  1.00  0.00     0.198 C 
BRANCH  13  14
HETATM   14  O4  UNL     1       7.428  22.750  31.162  1.00  0.00    -0.398 OA
ATOM     15  H4  UNL     1       6.912  23.321  30.605  1.00  0.00     0.209 HD
ENDBRANCH  13  14
ENDBRANCH   9  13
BRANCH  11  16
HETATM   16  S1  UNL     1       7.133  27.417  33.043  1.00  0.00    -0.130 SA
BRANCH  16  17
HETATM   17  C13 UNL     1       6.451  28.551  34.240  1.00  0.00     0.050 C 
HETATM   18  C14 UNL     1       6.092  27.932  35.558  1.00  0.00     0.015 C 
HETATM   19  C15 UNL     1       4.616  27.650  35.439  1.00  0.00     0.001 C 
HETATM   20  C16 UNL     1       4.074  28.613  34.423  1.00  0.00     0.001 C 
HETATM   21  C17 UNL     1       5.250  29.305  33.834  1.00  0.00     0.015 C 
ENDBRANCH  16  17
ENDBRANCH  11  16
BRANCH  12  22
HETATM   22  O6  UNL     1      10.207  26.000  33.708  1.00  0.00    -0.389 OA
ATOM     23  H6  UNL     1      10.529  26.872  33.508  1.00  0.00     0.210 HD
ENDBRANCH  12  22
ENDBRANCH   7   8
ENDBRANCH   4   7
BRANCH   3  24
HETATM   24  N2  UNL     1      10.993  21.422  32.136  1.00  0.00    -0.332 N 
HETATM   25  C4  UNL     1      10.072  20.642  31.407  1.00  0.00     0.223 C 
HETATM   26  O2  UNL     1       9.850  20.917  30.211  1.00  0.00    -0.273 OA
ATOM     27  H2  UNL     1      11.178  21.205  33.115  1.00  0.00     0.165 HD
BRANCH  25  28
HETATM   28  C5  UNL     1       9.360  19.497  32.043  1.00  0.00     0.078 A 
HETATM   29  C6  UNL     1       7.805  19.529  31.894  1.00  0.00     0.015 A 
HETATM   30  C7  UNL     1       8.514  19.799  33.215  1.00  0.00     0.015 A 
ENDBRANCH  25  28
ENDBRANCH   3  24
BRANCH   5  31
HETATM   31  O7  UNL     1      12.972  23.247  33.769  1.00  0.00    -0.390 OA
ATOM     32  H7  UNL     1      13.107  23.588  34.645  1.00  0.00     0.210 HD
ENDBRANCH   5  31
BRANCH   6  33
HETATM   33  O8  UNL     1      14.885  24.617  32.660  1.00  0.00    -0.390 OA
ATOM     34  H8  UNL     1      15.093  25.542  32.704  1.00  0.00     0.210 HD
ENDBRANCH   6  33
BRANCH   1  35
HETATM   35  C1  UNL     1      13.577  23.550  29.630  1.00  0.00     0.264 C 
BRANCH  35  36
HETATM   36  N1  UNL     1      13.549  24.973  29.416  1.00  0.00    -0.077 N 
ATOM     37  H13 UNL     1      14.349  25.427  29.857  1.00  0.00     0.274 HD
ATOM     38  H12 UNL     1      13.748  25.202  28.443  1.00  0.00     0.274 HD
ATOM     39  H11 UNL     1      12.672  25.397  29.721  1.00  0.00     0.274 HD
ENDBRANCH  35  36
ENDBRANCH   1  35
TORSDOF 13
ENDMDL
MODEL 3
REMARK VINA RESULT: -5.464551657      1.245      1.468
REMARK  13 active torsions:
REMARK  status: ('A' for Active; 'I' for Inactive)
REMARK    1  A    between atoms: N1_1  and  C1_5 
REMARK    2  A    between atoms: C1_5  and  C2_6 
REMARK    3  A    between atoms: C3_8  and  N2_9 
REMARK       I    between atoms: N2_9  and  C4_11 
REMARK    4  A    between atoms: C4_11  and  C5_13 
REMARK    5  A    between atoms: C8_16  and  O3_17 
REMARK    6  A    between atoms: O3_17  and  C9_18 
REMARK    7  A    between atoms: C10_19  and  C11_20 
REMARK    8  A    between atoms: C11_20  and  O4_21 
REMARK    9  A    between atoms: C12_24  and  S1_25 
REMARK   10  A    between atoms: S1_25  and  C13_26 
REMARK   11  A    between atoms: C18_31  and  O6_32 
REMARK   12  A    between atoms: C19_34  and  O7_35 
REMARK   13  A    between atoms: C20_37  and  O8_38 
ROOT
HETATM    1  C2  UNL     1      15.385  33.213  45.336  1.00  0.00     0.180 C 
HETATM    2  O1  UNL     1      14.169  33.251  44.689  1.00  0.00    -0.354 OA
HETATM    3  C3  UNL     1      13.646  32.007  44.358  1.00  0.00     0.255 C 
HETATM    4  C8  UNL     1      14.593  31.172  43.520  1.00  0.00     0.202 C 
HETATM    5  C19 UNL     1      15.706  32.145  43.107  1.00  0.00     0.182 C 
HETATM    6  C20 UNL     1      16.404  32.647  44.379  1.00  0.00     0.180 C 
ENDROOT
BRANCH   4   7
HETATM    7  O3  UNL     1      13.886  30.714  42.444  1.00  0.00    -0.368 OA
BRANCH   7   8
HETATM    8  C9  UNL     1      13.634  29.391  42.359  1.00  0.00     0.185 C 
HETATM    9  C10 UNL     1      12.274  28.921  42.093  1.00  0.00     0.178 C 
HETATM   10  O5  UNL     1      12.334  27.849  41.205  1.00  0.00    -0.363 OA
HETATM   11  C12 UNL     1      13.476  27.965  40.464  1.00  0.00     0.215 C 
HETATM   12  C18 UNL     1      14.461  28.834  41.207  1.00  0.00     0.188 C 
BRANCH   9  13
HETATM   13  C11 UNL     1      11.602  28.368  43.341  1.00  0.00     0.198 C 
BRANCH  13  14
HETATM   14  O4  UNL     1      12.282  28.674  44.497  1.00  0.00    -0.398 OA
ATOM     15  H4  UNL     1      12.530  29.590  44.550  1.00  0.00     0.209 HD
ENDBRANCH  13  14
ENDBRANCH   9  13
BRANCH  11  16
HETATM   16  S1  UNL     1      14.286  26.461  40.008  1.00  0.00    -0.130 SA
BRANCH  16  17
HETATM   17  C13 UNL     1      14.657  26.232  38.277  1.00  0.00     0.050 C 
HETATM   18  C14 UNL     1      15.948  26.848  37.826  1.00  0.00     0.015 C 
HETATM   19  C15 UNL     1      15.536  28.177  37.247  1.00  0.00     0.001 C 
HETATM   20  C16 UNL     1      14.105  28.033  36.816  1.00  0.00     0.001 C 
HETATM   21  C17 UNL     1      13.650  26.707  37.311  1.00  0.00     0.015 C 
ENDBRANCH  16  17
ENDBRANCH  11  16
BRANCH  12  22
HETATM   22  O6  UNL     1      14.977  29.817  40.402  1.00  0.00    -0.389 OA
ATOM     23  H6  UNL     1      14.498  30.635  40.471  1.00  0.00     0.210 HD
ENDBRANCH  12  22
ENDBRANCH   7   8
ENDBRANCH   4   7
BRANCH   3  24
HETATM   24  N2  UNL     1      12.411  32.277  43.664  1.00  0.00    -0.332 N 
HETATM   25  C4  UNL     1      11.174  31.950  44.256  1.00  0.00     0.223 C 
HETATM   26  O2  UNL     1      11.158  31.422  45.386  1.00  0.00    -0.273 OA
ATOM     27  H2  UNL     1      12.433  32.708  42.740  1.00  0.00     0.165 HD
BRANCH  25  28
HETATM   28  C5  UNL     1       9.888  32.225  43.554  1.00  0.00     0.078 A 
HETATM   29  C6  UNL     1       9.149  33.518  44.026  1.00  0.00     0.015 A 
HETATM   30  C7  UNL     1       8.651  32.115  44.351  1.00  0.00     0.015 A 
ENDBRANCH  25  28
ENDBRANCH   3  24
BRANCH   5  31
HETATM   31  O7  UNL     1      15.168  33.252  42.497  1.00  0.00    -0.390 OA
ATOM     32  H7  UNL     1      15.820  33.940  42.428  1.00  0.00     0.210 HD
ENDBRANCH   5  31
BRANCH   6  33
HETATM   33  O8  UNL     1      17.273  33.652  43.970  1.00  0.00    -0.390 OA
ATOM     34  H8  UNL     1      18.162  33.427  44.217  1.00  0.00     0.210 HD
ENDBRANCH   6  33
BRANCH   1  35
HETATM   35  C1  UNL     1      15.395  32.377  46.591  1.00  0.00     0.264 C 
BRANCH  35  36
HETATM   36  N1  UNL     1      16.523  31.485  46.651  1.00  0.00    -0.077 N 
ATOM     37  H13 UNL     1      16.615  30.950  45.788  1.00  0.00     0.274 HD
ATOM     38  H12 UNL     1      17.402  32.002  46.617  1.00  0.00     0.274 HD
ATOM     39  H11 UNL     1      16.492  30.868  47.463  1.00  0.00     0.274 HD
ENDBRANCH  35  36
ENDBRANCH   1  35
TORSDOF 13
ENDMDL
MODEL 4
REMARK VINA RESULT: -5.425008037      3.856      8.111
REMARK  13 active torsions:
REMARK  status: ('A' for Active; 'I' for Inactive)
REMARK    1  A    between atoms: N1_1  and  C1_5 
REMARK    2  A    between atoms: C1_5  and  C2_6 
REMARK    3  A    between atoms: C3_8  and  N2_9 
REMARK       I    between atoms: N2_9  and  C4_11 
REMARK    4  A    between atoms: C4_11  and  C5_13 
REMARK    5  A    between atoms: C8_16  and  O3_17 
REMARK    6  A    between atoms: O3_17  and  C9_18 
REMARK    7  A    between atoms: C10_19  and  C11_20 
REMARK    8  A    between atoms: C11_20  and  O4_21 
REMARK    9  A    between atoms: C12_24  and  S1_25 
REMARK   10  A    between atoms: S1_25  and  C13_26 
REMARK   11  A    between atoms: C18_31  and  O6_32 
REMARK   12  A    between atoms: C19_34  and  O7_35 
REMARK   13  A    between atoms: C20_37  and  O8_38 
ROOT
HETATM    1  C2  UNL     1      13.708  26.524  37.133  1.00  0.00     0.180 C 
HETATM    2  O1  UNL     1      12.418  26.906  37.430  1.00  0.00    -0.354 OA
HETATM    3  C3  UNL     1      12.317  27.980  38.307  1.00  0.00     0.255 C 
HETATM    4  C8  UNL     1      13.045  27.745  39.615  1.00  0.00     0.202 C 
HETATM    5  C19 UNL     1      13.410  26.255  39.593  1.00  0.00     0.182 C 
HETATM    6  C20 UNL     1      14.343  26.004  38.399  1.00  0.00     0.180 C 
ENDROOT
BRANCH   4   7
HETATM    7  O3  UNL     1      12.174  28.045  40.624  1.00  0.00    -0.368 OA
BRANCH   7   8
HETATM    8  C9  UNL     1      12.495  29.045  41.472  1.00  0.00     0.185 C 
HETATM    9  C10 UNL     1      12.573  30.422  40.981  1.00  0.00     0.178 C 
HETATM   10  O5  UNL     1      12.017  31.271  41.935  1.00  0.00    -0.363 OA
HETATM   11  C12 UNL     1      11.111  30.560  42.671  1.00  0.00     0.215 C 
HETATM   12  C18 UNL     1      11.432  29.090  42.562  1.00  0.00     0.188 C 
BRANCH   9  13
HETATM   13  C11 UNL     1      14.010  30.893  40.818  1.00  0.00     0.198 C 
BRANCH  13  14
HETATM   14  O4  UNL     1      14.363  31.093  39.503  1.00  0.00    -0.398 OA
ATOM     15  H4  UNL     1      15.206  30.714  39.284  1.00  0.00     0.209 HD
ENDBRANCH  13  14
ENDBRANCH   9  13
BRANCH  11  16
HETATM   16  S1  UNL     1      10.973  30.978  44.384  1.00  0.00    -0.130 SA
BRANCH  16  17
HETATM   17  C13 UNL     1       9.484  31.819  44.896  1.00  0.00     0.050 C 
HETATM   18  C14 UNL     1       8.223  31.029  44.708  1.00  0.00     0.015 C 
HETATM   19  C15 UNL     1       7.679  31.518  43.390  1.00  0.00     0.001 C 
HETATM   20  C16 UNL     1       8.224  32.902  43.186  1.00  0.00     0.001 C 
HETATM   21  C17 UNL     1       9.211  33.128  44.275  1.00  0.00     0.015 C 
ENDBRANCH  16  17
ENDBRANCH  11  16
BRANCH  12  22
HETATM   22  O6  UNL     1      10.320  28.350  42.247  1.00  0.00    -0.389 OA
ATOM     23  H6  UNL     1       9.511  28.830  42.382  1.00  0.00     0.210 HD
ENDBRANCH  12  22
ENDBRANCH   7   8
ENDBRANCH   4   7
BRANCH   3  24
HETATM   24  N2  UNL     1      10.903  28.184  38.509  1.00  0.00    -0.332 N 
HETATM   25  C4  UNL     1      10.316  29.435  38.232  1.00  0.00     0.223 C 
HETATM   26  O2  UNL     1      11.032  30.366  37.812  1.00  0.00    -0.273 OA
ATOM     27  H2  UNL     1      10.325  27.418  38.854  1.00  0.00     0.165 HD
BRANCH  25  28
HETATM   28  C5  UNL     1       8.857  29.662  38.432  1.00  0.00     0.078 A 
HETATM   29  C6  UNL     1       8.461  30.148  39.863  1.00  0.00     0.015 A 
HETATM   30  C7  UNL     1       8.154  28.746  39.352  1.00  0.00     0.015 A 
ENDBRANCH  25  28
ENDBRANCH   3  24
BRANCH   5  31
HETATM   31  O7  UNL     1      12.288  25.492  39.376  1.00  0.00    -0.390 OA
ATOM     32  H7  UNL     1      12.405  24.944  38.608  1.00  0.00     0.210 HD
ENDBRANCH   5  31
BRANCH   6  33
HETATM   33  O8  UNL     1      14.498  24.625  38.314  1.00  0.00    -0.390 OA
ATOM     34  H8  UNL     1      14.499  24.248  39.185  1.00  0.00     0.210 HD
ENDBRANCH   6  33
BRANCH   1  35
HETATM   35  C1  UNL     1      14.575  27.631  36.586  1.00  0.00     0.264 C 
BRANCH  35  36
HETATM   36  N1  UNL     1      15.376  27.204  35.469  1.00  0.00    -0.077 N 
ATOM     37  H13 UNL     1      16.366  27.379  35.640  1.00  0.00     0.274 HD
ATOM     38  H12 UNL     1      15.400  26.187  35.401  1.00  0.00     0.274 HD
ATOM     39  H11 UNL     1      15.076  27.623  34.589  1.00  0.00     0.274 HD
ENDBRANCH  35  36
ENDBRANCH   1  35
TORSDOF 13
ENDMDL
MODEL 5
REMARK VINA RESULT: -5.400249366      1.570      2.440
REMARK  13 active torsions:
REMARK  status: ('A' for Active; 'I' for Inactive)
REMARK    1  A    between atoms: N1_1  and  C1_5 
REMARK    2  A    between atoms: C1_5  and  C2_6 
REMARK    3  A    between atoms: C3_8  and  N2_9 
REMARK       I    between atoms: N2_9  and  C4_11 
REMARK    4  A    between atoms: C4_11  and  C5_13 
REMARK    5  A    between atoms: C8_16  and  O3_17 
REMARK    6  A    between atoms: O3_17  and  C9_18 
REMARK    7  A    between atoms: C10_19  and  C11_20 
REMARK    8  A    between atoms: C11_20  and  O4_21 
REMARK    9  A    between atoms: C12_24  and  S1_25 
REMARK   10  A    between atoms: S1_25  and  C13_26 
REMARK   11  A    between atoms: C18_31  and  O6_32 
REMARK   12  A    between atoms: C19_34  and  O7_35 
REMARK   13  A    between atoms: C20_37  and  O8_38 
ROOT
HETATM    1  C2  UNL     1      14.186  31.808  47.166  1.00  0.00     0.180 C 
HETATM    2  O1  UNL     1      13.276  32.271  46.240  1.00  0.00    -0.354 OA
HETATM    3  C3  UNL     1      13.300  31.609  45.018  1.00  0.00     0.255 C 
HETATM    4  C8  UNL     1      14.669  31.617  44.369  1.00  0.00     0.202 C 
HETATM    5  C19 UNL     1      15.486  32.616  45.199  1.00  0.00     0.182 C 
HETATM    6  C20 UNL     1      15.571  32.092  46.639  1.00  0.00     0.180 C 
ENDROOT
BRANCH   4   7
HETATM    7  O3  UNL     1      14.504  32.036  43.079  1.00  0.00    -0.368 OA
BRANCH   7   8
HETATM    8  C9  UNL     1      15.170  31.384  42.103  1.00  0.00     0.185 C 
HETATM    9  C10 UNL     1      15.909  30.160  42.415  1.00  0.00     0.178 C 
HETATM   10  O5  UNL     1      15.720  29.245  41.381  1.00  0.00    -0.363 OA
HETATM   11  C12 UNL     1      14.530  29.524  40.770  1.00  0.00     0.215 C 
HETATM   12  C18 UNL     1      14.154  30.957  41.051  1.00  0.00     0.188 C 
BRANCH   9  13
HETATM   13  C11 UNL     1      17.411  30.393  42.470  1.00  0.00     0.198 C 
BRANCH  13  14
HETATM   14  O4  UNL     1      17.753  31.720  42.344  1.00  0.00    -0.398 OA
ATOM     15  H4  UNL     1      18.667  31.847  42.119  1.00  0.00     0.209 HD
ENDBRANCH  13  14
ENDBRANCH   9  13
BRANCH  11  16
HETATM   16  S1  UNL     1      14.450  29.254  39.024  1.00  0.00    -0.130 SA
BRANCH  16  17
HETATM   17  C13 UNL     1      15.343  27.851  38.377  1.00  0.00     0.050 C 
HETATM   18  C14 UNL     1      16.761  28.139  37.982  1.00  0.00     0.015 C 
HETATM   19  C15 UNL     1      16.684  28.386  36.497  1.00  0.00     0.001 C 
HETATM   20  C16 UNL     1      15.465  27.662  36.004  1.00  0.00     0.001 C 
HETATM   21  C17 UNL     1      14.754  27.167  37.212  1.00  0.00     0.015 C 
ENDBRANCH  16  17
ENDBRANCH  11  16
BRANCH  12  22
HETATM   22  O6  UNL     1      12.860  31.065  41.492  1.00  0.00    -0.389 OA
ATOM     23  H6  UNL     1      12.615  31.961  41.693  1.00  0.00     0.210 HD
ENDBRANCH  12  22
ENDBRANCH   7   8
ENDBRANCH   4   7
BRANCH   3  24
HETATM   24  N2  UNL     1      12.313  32.270  44.200  1.00  0.00    -0.332 N 
HETATM   25  C4  UNL     1      10.948  31.941  44.323  1.00  0.00     0.223 C 
HETATM   26  O2  UNL     1      10.601  31.071  45.146  1.00  0.00    -0.273 OA
ATOM     27  H2  UNL     1      12.605  32.980  43.528  1.00  0.00     0.165 HD
BRANCH  25  28
HETATM   28  C5  UNL     1       9.915  32.616  43.486  1.00  0.00     0.078 A 
HETATM   29  C6  UNL     1       9.047  33.671  44.244  1.00  0.00     0.015 A 
HETATM   30  C7  UNL     1       8.502  32.321  43.796  1.00  0.00     0.015 A 
ENDBRANCH  25  28
ENDBRANCH   3  24
BRANCH   5  31
HETATM   31  O7  UNL     1      14.836  33.826  45.264  1.00  0.00    -0.390 OA
ATOM     32  H7  UNL     1      15.360  34.504  44.854  1.00  0.00     0.210 HD
ENDBRANCH   5  31
BRANCH   6  33
HETATM   33  O8  UNL     1      16.157  33.108  47.386  1.00  0.00    -0.390 OA
ATOM     34  H8  UNL     1      16.871  33.495  46.895  1.00  0.00     0.210 HD
ENDBRANCH   6  33
BRANCH   1  35
HETATM   35  C1  UNL     1      14.081  30.331  47.455  1.00  0.00     0.264 C 
BRANCH  35  36
HETATM   36  N1  UNL     1      15.363  29.724  47.701  1.00  0.00    -0.077 N 
ATOM     37  H13 UNL     1      15.606  29.068  46.959  1.00  0.00     0.274 HD
ATOM     38  H12 UNL     1      16.117  30.398  47.577  1.00  0.00     0.274 HD
ATOM     39  H11 UNL     1      15.416  29.279  48.617  1.00  0.00     0.274 HD
ENDBRANCH  35  36
ENDBRANCH   1  35
TORSDOF 13
ENDMDL
