MODEL 1
REMARK VINA RESULT: -6.863985953      0.000      0.000
REMARK  2 active torsions:
REMARK  status: ('A' for Active; 'I' for Inactive)
REMARK    1  A    between atoms: C2_3  and  C3_5 
REMARK    2  A    between atoms: C3_5  and  N3_6 
ROOT
HETATM    1  N1  UNL     1       6.788  17.132  36.700  1.00  0.00    -0.190 NA
HETATM    2  C1  UNL     1       6.510  17.965  35.927  1.00  0.00     0.116 C 
HETATM    3  C2  UNL     1       6.170  18.994  34.998  1.00  0.00     0.142 C 
HETATM    4  N2  UNL     1       4.867  19.104  34.449  1.00  0.00    -0.089 NA
ENDROOT
BRANCH   3   5
HETATM    5  C3  UNL     1       7.082  19.868  34.639  1.00  0.00     0.137 C 
BRANCH   5   6
HETATM    6  N3  UNL     1       7.344  21.033  35.440  1.00  0.00    -0.300 N 
HETATM    7  C4  UNL     1       8.264  21.151  36.407  1.00  0.00     0.190 A 
HETATM    8  N4  UNL     1       8.141  22.414  36.871  1.00  0.00    -0.344 N 
HETATM    9  C5  UNL     1       7.181  23.072  36.223  1.00  0.00     0.147 A 
ATOM     10  H4  UNL     1       8.710  22.811  37.618  1.00  0.00     0.167 HD
HETATM   11  C6  UNL     1       6.624  24.332  36.255  1.00  0.00     0.280 A 
HETATM   12  C8  UNL     1       6.659  22.181  35.293  1.00  0.00     0.149 A 
HETATM   13  O1  UNL     1       7.090  25.140  37.092  1.00  0.00    -0.265 OA
HETATM   14  N5  UNL     1       5.623  24.660  35.414  1.00  0.00    -0.273 N 
HETATM   15  C7  UNL     1       5.130  23.786  34.521  1.00  0.00     0.328 A 
ATOM     16  H5  UNL     1       5.228  25.599  35.458  1.00  0.00     0.173 HD
HETATM   17  O2  UNL     1       4.182  24.119  33.734  1.00  0.00    -0.247 OA
HETATM   18  N6  UNL     1       5.662  22.549  34.474  1.00  0.00    -0.292 N 
ATOM     19  H6  UNL     1       5.297  21.877  33.800  1.00  0.00     0.172 HD
ENDBRANCH   5   6
ENDBRANCH   3   5
TORSDOF 2
ENDMDL
MODEL 2
REMARK VINA RESULT: -6.775002733      0.574      1.238
REMARK  2 active torsions:
REMARK  status: ('A' for Active; 'I' for Inactive)
REMARK    1  A    between atoms: C2_3  and  C3_5 
REMARK    2  A    between atoms: C3_5  and  N3_6 
ROOT
HETATM    1  N1  UNL     1       4.023  18.324  35.184  1.00  0.00    -0.190 NA
HETATM    2  C1  UNL     1       5.177  18.520  35.195  1.00  0.00     0.116 C 
HETATM    3  C2  UNL     1       6.585  18.755  35.189  1.00  0.00     0.142 C 
HETATM    4  N2  UNL     1       7.498  17.831  35.756  1.00  0.00    -0.089 NA
ENDROOT
BRANCH   3   5
HETATM    5  C3  UNL     1       7.055  19.854  34.647  1.00  0.00     0.137 C 
BRANCH   5   6
HETATM    6  N3  UNL     1       7.323  21.017  35.449  1.00  0.00    -0.300 N 
HETATM    7  C4  UNL     1       8.241  21.128  36.419  1.00  0.00     0.190 A 
HETATM    8  N4  UNL     1       8.126  22.392  36.883  1.00  0.00    -0.344 N 
HETATM    9  C5  UNL     1       7.172  23.057  36.232  1.00  0.00     0.147 A 
ATOM     10  H4  UNL     1       8.695  22.785  37.632  1.00  0.00     0.167 HD
HETATM   11  C6  UNL     1       6.624  24.321  36.263  1.00  0.00     0.280 A 
HETATM   12  C8  UNL     1       6.647  22.170  35.301  1.00  0.00     0.149 A 
HETATM   13  O1  UNL     1       7.094  25.126  37.102  1.00  0.00    -0.265 OA
HETATM   14  N5  UNL     1       5.628  24.657  35.420  1.00  0.00    -0.273 N 
HETATM   15  C7  UNL     1       5.132  23.786  34.525  1.00  0.00     0.328 A 
ATOM     16  H5  UNL     1       5.240  25.599  35.462  1.00  0.00     0.173 HD
HETATM   17  O2  UNL     1       4.188  24.126  33.735  1.00  0.00    -0.247 OA
HETATM   18  N6  UNL     1       5.655  22.546  34.479  1.00  0.00    -0.292 N 
ATOM     19  H6  UNL     1       5.287  21.876  33.803  1.00  0.00     0.172 HD
ENDBRANCH   5   6
ENDBRANCH   3   5
TORSDOF 2
ENDMDL
MODEL 3
REMARK VINA RESULT: -6.607241900      1.124      1.362
REMARK  2 active torsions:
REMARK  status: ('A' for Active; 'I' for Inactive)
REMARK    1  A    between atoms: C2_3  and  C3_5 
REMARK    2  A    between atoms: C3_5  and  N3_6 
ROOT
HETATM    1  N1  UNL     1       4.540  17.633  33.064  1.00  0.00    -0.190 NA
HETATM    2  C1  UNL     1       4.932  18.409  33.849  1.00  0.00     0.116 C 
HETATM    3  C2  UNL     1       5.421  19.341  34.813  1.00  0.00     0.142 C 
HETATM    4  N2  UNL     1       4.659  19.706  35.952  1.00  0.00    -0.089 NA
ENDROOT
BRANCH   3   5
HETATM    5  C3  UNL     1       6.606  19.879  34.648  1.00  0.00     0.137 C 
BRANCH   5   6
HETATM    6  N3  UNL     1       7.013  21.021  35.422  1.00  0.00    -0.300 N 
HETATM    7  C4  UNL     1       7.989  21.063  36.339  1.00  0.00     0.190 A 
HETATM    8  N4  UNL     1       8.003  22.334  36.795  1.00  0.00    -0.344 N 
HETATM    9  C5  UNL     1       7.071  23.071  36.192  1.00  0.00     0.147 A 
ATOM     10  H4  UNL     1       8.644  22.684  37.508  1.00  0.00     0.167 HD
HETATM   11  C6  UNL     1       6.629  24.376  36.240  1.00  0.00     0.280 A 
HETATM   12  C8  UNL     1       6.424  22.224  35.300  1.00  0.00     0.149 A 
HETATM   13  O1  UNL     1       7.209  25.144  37.044  1.00  0.00    -0.265 OA
HETATM   14  N5  UNL     1       5.618  24.786  35.451  1.00  0.00    -0.273 N 
HETATM   15  C7  UNL     1       5.003  23.953  34.593  1.00  0.00     0.328 A 
ATOM     16  H5  UNL     1       5.309  25.756  35.505  1.00  0.00     0.173 HD
HETATM   17  O2  UNL     1       4.047  24.364  33.854  1.00  0.00    -0.247 OA
HETATM   18  N6  UNL     1       5.421  22.674  34.531  1.00  0.00    -0.292 N 
ATOM     19  H6  UNL     1       4.963  22.033  33.884  1.00  0.00     0.172 HD
ENDBRANCH   5   6
ENDBRANCH   3   5
TORSDOF 2
ENDMDL
MODEL 4
REMARK VINA RESULT: -6.334707598      1.188      1.274
REMARK  2 active torsions:
REMARK  status: ('A' for Active; 'I' for Inactive)
REMARK    1  A    between atoms: C2_3  and  C3_5 
REMARK    2  A    between atoms: C3_5  and  N3_6 
ROOT
HETATM    1  N1  UNL     1       7.504  17.574  35.951  1.00  0.00    -0.190 NA
HETATM    2  C1  UNL     1       6.580  18.254  35.715  1.00  0.00     0.116 C 
HETATM    3  C2  UNL     1       5.443  19.070  35.437  1.00  0.00     0.142 C 
HETATM    4  N2  UNL     1       4.806  19.057  34.171  1.00  0.00    -0.089 NA
ENDROOT
BRANCH   3   5
HETATM    5  C3  UNL     1       4.968  19.857  36.374  1.00  0.00     0.137 C 
BRANCH   5   6
HETATM    6  N3  UNL     1       5.700  21.019  36.803  1.00  0.00    -0.300 N 
HETATM    7  C4  UNL     1       6.595  21.082  37.797  1.00  0.00     0.190 A 
HETATM    8  N4  UNL     1       7.013  22.365  37.828  1.00  0.00    -0.344 N 
HETATM    9  C5  UNL     1       6.406  23.091  36.889  1.00  0.00     0.147 A 
ATOM     10  H4  UNL     1       7.703  22.732  38.483  1.00  0.00     0.167 HD
HETATM   11  C6  UNL     1       6.423  24.399  36.457  1.00  0.00     0.280 A 
HETATM   12  C8  UNL     1       5.551  22.222  36.221  1.00  0.00     0.149 A 
HETATM   13  O1  UNL     1       7.191  25.187  37.057  1.00  0.00    -0.265 OA
HETATM   14  N5  UNL     1       5.640  24.793  35.434  1.00  0.00    -0.273 N 
HETATM   15  C7  UNL     1       4.819  23.940  34.798  1.00  0.00     0.328 A 
ATOM     16  H5  UNL     1       5.671  25.767  35.133  1.00  0.00     0.173 HD
HETATM   17  O2  UNL     1       4.086  24.335  33.830  1.00  0.00    -0.247 OA
HETATM   18  N6  UNL     1       4.789  22.656  35.205  1.00  0.00    -0.292 N 
ATOM     19  H6  UNL     1       4.171  21.999  34.730  1.00  0.00     0.172 HD
ENDBRANCH   5   6
ENDBRANCH   3   5
TORSDOF 2
ENDMDL
MODEL 5
REMARK VINA RESULT: -6.326027978      1.435      2.864
REMARK  2 active torsions:
REMARK  status: ('A' for Active; 'I' for Inactive)
REMARK    1  A    between atoms: C2_3  and  C3_5 
REMARK    2  A    between atoms: C3_5  and  N3_6 
ROOT
HETATM    1  N1  UNL     1       6.777  19.440  39.179  1.00  0.00    -0.190 NA
HETATM    2  C1  UNL     1       7.199  19.441  38.087  1.00  0.00     0.116 C 
HETATM    3  C2  UNL     1       7.697  19.448  36.750  1.00  0.00     0.142 C 
HETATM    4  N2  UNL     1       7.933  18.246  36.035  1.00  0.00    -0.089 NA
ENDROOT
BRANCH   3   5
HETATM    5  C3  UNL     1       7.946  20.593  36.158  1.00  0.00     0.137 C 
BRANCH   5   6
HETATM    6  N3  UNL     1       6.920  21.283  35.423  1.00  0.00    -0.300 N 
HETATM    7  C4  UNL     1       6.120  20.764  34.482  1.00  0.00     0.190 A 
HETATM    8  N4  UNL     1       5.325  21.779  34.082  1.00  0.00    -0.344 N 
HETATM    9  C5  UNL     1       5.610  22.901  34.743  1.00  0.00     0.147 A 
ATOM     10  H4  UNL     1       4.602  21.699  33.367  1.00  0.00     0.167 HD
HETATM   11  C6  UNL     1       5.156  24.202  34.764  1.00  0.00     0.280 A 
HETATM   12  C8  UNL     1       6.645  22.585  35.614  1.00  0.00     0.149 A 
HETATM   13  O1  UNL     1       4.223  24.493  33.979  1.00  0.00    -0.265 OA
HETATM   14  N5  UNL     1       5.705  25.106  35.599  1.00  0.00    -0.273 N 
HETATM   15  C7  UNL     1       6.705  24.783  36.436  1.00  0.00     0.328 A 
ATOM     16  H5  UNL     1       5.351  26.062  35.596  1.00  0.00     0.173 HD
HETATM   17  O2  UNL     1       7.210  25.656  37.220  1.00  0.00    -0.247 OA
HETATM   18  N6  UNL     1       7.163  23.516  36.431  1.00  0.00    -0.292 N 
ATOM     19  H6  UNL     1       7.921  23.259  37.062  1.00  0.00     0.172 HD
ENDBRANCH   5   6
ENDBRANCH   3   5
TORSDOF 2
ENDMDL
