MODEL 1
REMARK VINA RESULT: -10.386021475      0.000      0.000
REMARK  5 active torsions:
REMARK  status: ('A' for Active; 'I' for Inactive)
REMARK    1  A    between atoms: C2_2  and  C3_3 
REMARK    2  A    between atoms: C2_2  and  C11_11 
REMARK    3  A    between atoms: C3_3  and  C4_4 
REMARK    4  A    between atoms: C4_4  and  C5_5 
REMARK    5  A    between atoms: C18_18  and  O1_19 
ROOT
HETATM    1  C11 UNL     1      26.850  29.079   8.474  1.00  0.00    -0.002 C 
HETATM    2  C12 UNL     1      25.607  28.300   8.067  1.00  0.00     0.006 C 
HETATM    3  C13 UNL     1      25.743  26.947   8.718  1.00  0.00     0.006 C 
HETATM    4  C14 UNL     1      27.075  26.954   9.317  1.00  0.00    -0.002 C 
HETATM    5  C15 UNL     1      27.747  25.624   9.434  1.00  0.00    -0.005 C 
HETATM    6  C16 UNL     1      26.897  24.740  10.324  1.00  0.00     0.008 C 
HETATM    7  C17 UNL     1      27.601  23.396  10.390  1.00  0.00     0.032 C 
HETATM    8  C18 UNL     1      28.929  23.623  11.107  1.00  0.00     0.118 C 
HETATM    9  C19 UNL     1      29.780  24.594  10.280  1.00  0.00     0.036 C 
HETATM   10  C20 UNL     1      29.045  25.884  10.213  1.00  0.00    -0.008 C 
HETATM   11  C21 UNL     1      29.862  26.944   9.560  1.00  0.00     0.006 C 
HETATM   12  C22 UNL     1      29.114  28.238   9.299  1.00  0.00     0.010 C 
HETATM   13  C23 UNL     1      27.884  27.957   8.529  1.00  0.00    -0.036 C 
HETATM   14  C24 UNL     1      28.217  27.458   7.143  1.00  0.00     0.016 C 
ENDROOT
BRANCH   1  15
HETATM   15  C2  UNL     1      27.164  30.195   7.534  1.00  0.00    -0.014 C 
HETATM   16  C1  UNL     1      27.845  31.349   8.183  1.00  0.00     0.010 C 
BRANCH  15  17
HETATM   17  C3  UNL     1      26.138  30.464   6.501  1.00  0.00     0.005 C 
BRANCH  17  18
HETATM   18  C4  UNL     1      26.073  31.841   6.001  1.00  0.00     0.005 C 
BRANCH  18  19
HETATM   19  C5  UNL     1      24.977  32.760   6.294  1.00  0.00    -0.014 C 
HETATM   20  C6  UNL     1      24.744  33.887   5.316  1.00  0.00     0.004 C 
HETATM   21  C7  UNL     1      23.516  34.636   5.794  1.00  0.00     0.000 C 
HETATM   22  C8  UNL     1      23.735  35.246   7.161  1.00  0.00     0.000 C 
HETATM   23  C9  UNL     1      24.154  34.208   8.153  1.00  0.00     0.000 C 
HETATM   24  C10 UNL     1      25.358  33.484   7.613  1.00  0.00     0.004 C 
ENDBRANCH  18  19
ENDBRANCH  17  18
ENDBRANCH  15  17
ENDBRANCH   1  15
BRANCH   8  25
HETATM   25  O1  UNL     1      28.614  24.227  12.327  1.00  0.00    -0.396 OA
ATOM     26  H1  UNL     1      29.423  24.603  12.653  1.00  0.00     0.210 HD
ENDBRANCH   8  25
TORSDOF 5
ENDMDL
MODEL 2
REMARK VINA RESULT: -10.368289422      0.613      1.098
REMARK  5 active torsions:
REMARK  status: ('A' for Active; 'I' for Inactive)
REMARK    1  A    between atoms: C2_2  and  C3_3 
REMARK    2  A    between atoms: C2_2  and  C11_11 
REMARK    3  A    between atoms: C3_3  and  C4_4 
REMARK    4  A    between atoms: C4_4  and  C5_5 
REMARK    5  A    between atoms: C18_18  and  O1_19 
ROOT
HETATM    1  C11 UNL     1      26.923  29.388   8.466  1.00  0.00    -0.002 C 
HETATM    2  C12 UNL     1      25.640  28.684   8.048  1.00  0.00     0.006 C 
HETATM    3  C13 UNL     1      25.713  27.307   8.658  1.00  0.00     0.006 C 
HETATM    4  C14 UNL     1      27.049  27.231   9.244  1.00  0.00    -0.002 C 
HETATM    5  C15 UNL     1      27.655  25.866   9.315  1.00  0.00    -0.005 C 
HETATM    6  C16 UNL     1      26.771  24.999  10.187  1.00  0.00     0.008 C 
HETATM    7  C17 UNL     1      27.407  23.621  10.206  1.00  0.00     0.032 C 
HETATM    8  C18 UNL     1      28.751  23.760  10.916  1.00  0.00     0.118 C 
HETATM    9  C19 UNL     1      29.642  24.712  10.110  1.00  0.00     0.036 C 
HETATM   10  C20 UNL     1      28.971  26.039  10.088  1.00  0.00    -0.008 C 
HETATM   11  C21 UNL     1      29.834  27.076   9.459  1.00  0.00     0.006 C 
HETATM   12  C22 UNL     1      29.149  28.413   9.244  1.00  0.00     0.010 C 
HETATM   13  C23 UNL     1      27.900  28.216   8.478  1.00  0.00    -0.036 C 
HETATM   14  C24 UNL     1      28.197  27.743   7.075  1.00  0.00     0.016 C 
ENDROOT
BRANCH   1  15
HETATM   15  C2  UNL     1      27.284  30.515   7.557  1.00  0.00    -0.014 C 
HETATM   16  C1  UNL     1      27.958  31.648   8.247  1.00  0.00     0.010 C 
BRANCH  15  17
HETATM   17  C3  UNL     1      26.297  30.816   6.494  1.00  0.00     0.005 C 
BRANCH  17  18
HETATM   18  C4  UNL     1      26.012  32.236   6.263  1.00  0.00     0.005 C 
BRANCH  18  19
HETATM   19  C5  UNL     1      25.226  33.064   7.173  1.00  0.00    -0.014 C 
HETATM   20  C6  UNL     1      24.119  32.381   7.941  1.00  0.00     0.004 C 
HETATM   21  C7  UNL     1      23.519  33.422   8.865  1.00  0.00     0.000 C 
HETATM   22  C8  UNL     1      22.907  34.566   8.089  1.00  0.00     0.000 C 
HETATM   23  C9  UNL     1      23.904  35.181   7.160  1.00  0.00     0.000 C 
HETATM   24  C10 UNL     1      24.482  34.098   6.288  1.00  0.00     0.004 C 
ENDBRANCH  18  19
ENDBRANCH  17  18
ENDBRANCH  15  17
ENDBRANCH   1  15
BRANCH   8  25
HETATM   25  O1  UNL     1      28.476  24.343  12.157  1.00  0.00    -0.396 OA
ATOM     26  H1  UNL     1      28.602  25.278  12.044  1.00  0.00     0.210 HD
ENDBRANCH   8  25
TORSDOF 5
ENDMDL
MODEL 3
REMARK VINA RESULT: -10.364140221      2.400      3.801
REMARK  5 active torsions:
REMARK  status: ('A' for Active; 'I' for Inactive)
REMARK    1  A    between atoms: C2_2  and  C3_3 
REMARK    2  A    between atoms: C2_2  and  C11_11 
REMARK    3  A    between atoms: C3_3  and  C4_4 
REMARK    4  A    between atoms: C4_4  and  C5_5 
REMARK    5  A    between atoms: C18_18  and  O1_19 
ROOT
HETATM    1  C11 UNL     1      26.411  31.226   6.496  1.00  0.00    -0.002 C 
HETATM    2  C12 UNL     1      26.458  31.923   7.848  1.00  0.00     0.006 C 
HETATM    3  C13 UNL     1      27.071  30.927   8.800  1.00  0.00     0.006 C 
HETATM    4  C14 UNL     1      27.199  29.698   8.020  1.00  0.00    -0.002 C 
HETATM    5  C15 UNL     1      27.131  28.421   8.794  1.00  0.00    -0.005 C 
HETATM    6  C16 UNL     1      28.276  28.405   9.784  1.00  0.00     0.008 C 
HETATM    7  C17 UNL     1      28.149  27.108  10.565  1.00  0.00     0.032 C 
HETATM    8  C18 UNL     1      28.384  25.969   9.578  1.00  0.00     0.118 C 
HETATM    9  C19 UNL     1      27.294  26.013   8.500  1.00  0.00     0.036 C 
HETATM   10  C20 UNL     1      27.432  27.307   7.781  1.00  0.00    -0.008 C 
HETATM   11  C21 UNL     1      26.515  27.381   6.610  1.00  0.00     0.006 C 
HETATM   12  C22 UNL     1      26.474  28.738   5.932  1.00  0.00     0.010 C 
HETATM   13  C23 UNL     1      26.159  29.783   6.928  1.00  0.00    -0.036 C 
HETATM   14  C24 UNL     1      24.757  29.615   7.462  1.00  0.00     0.016 C 
ENDROOT
BRANCH   1  15
HETATM   15  C2  UNL     1      25.387  31.810   5.582  1.00  0.00    -0.014 C 
HETATM   16  C1  UNL     1      25.647  31.539   4.141  1.00  0.00     0.010 C 
BRANCH  15  17
HETATM   17  C3  UNL     1      24.871  33.142   5.973  1.00  0.00     0.005 C 
BRANCH  17  18
HETATM   18  C4  UNL     1      23.414  33.305   5.933  1.00  0.00     0.005 C 
BRANCH  18  19
HETATM   19  C5  UNL     1      22.469  32.199   6.062  1.00  0.00    -0.014 C 
HETATM   20  C6  UNL     1      21.524  31.964   4.908  1.00  0.00     0.004 C 
HETATM   21  C7  UNL     1      20.718  30.726   5.245  1.00  0.00     0.000 C 
HETATM   22  C8  UNL     1      19.886  30.929   6.492  1.00  0.00     0.000 C 
HETATM   23  C9  UNL     1      20.739  31.349   7.646  1.00  0.00     0.000 C 
HETATM   24  C10 UNL     1      21.532  32.563   7.242  1.00  0.00     0.004 C 
ENDBRANCH  18  19
ENDBRANCH  17  18
ENDBRANCH  15  17
ENDBRANCH   1  15
BRANCH   8  25
HETATM   25  O1  UNL     1      29.620  26.222   8.978  1.00  0.00    -0.396 OA
ATOM     26  H1  UNL     1      29.572  25.850   8.105  1.00  0.00     0.210 HD
ENDBRANCH   8  25
TORSDOF 5
ENDMDL
MODEL 4
REMARK VINA RESULT: -10.325667677      2.759      8.447
REMARK  5 active torsions:
REMARK  status: ('A' for Active; 'I' for Inactive)
REMARK    1  A    between atoms: C2_2  and  C3_3 
REMARK    2  A    between atoms: C2_2  and  C11_11 
REMARK    3  A    between atoms: C3_3  and  C4_4 
REMARK    4  A    between atoms: C4_4  and  C5_5 
REMARK    5  A    between atoms: C18_18  and  O1_19 
ROOT
HETATM    1  C11 UNL     1      26.590  29.577   7.291  1.00  0.00    -0.002 C 
HETATM    2  C12 UNL     1      27.711  30.565   7.580  1.00  0.00     0.006 C 
HETATM    3  C13 UNL     1      27.039  31.899   7.781  1.00  0.00     0.006 C 
HETATM    4  C14 UNL     1      25.634  31.660   7.458  1.00  0.00    -0.002 C 
HETATM    5  C15 UNL     1      24.877  32.832   6.925  1.00  0.00    -0.005 C 
HETATM    6  C16 UNL     1      24.879  33.919   7.979  1.00  0.00     0.008 C 
HETATM    7  C17 UNL     1      24.127  35.096   7.384  1.00  0.00     0.032 C 
HETATM    8  C18 UNL     1      22.680  34.650   7.193  1.00  0.00     0.118 C 
HETATM    9  C19 UNL     1      22.648  33.481   6.202  1.00  0.00     0.036 C 
HETATM   10  C20 UNL     1      23.419  32.362   6.806  1.00  0.00    -0.008 C 
HETATM   11  C21 UNL     1      23.316  31.124   5.987  1.00  0.00     0.006 C 
HETATM   12  C22 UNL     1      24.218  29.993   6.447  1.00  0.00     0.010 C 
HETATM   13  C23 UNL     1      25.614  30.470   6.528  1.00  0.00    -0.036 C 
HETATM   14  C24 UNL     1      26.149  30.809   5.157  1.00  0.00     0.016 C 
ENDROOT
BRANCH   1  15
HETATM   15  C2  UNL     1      27.062  28.368   6.556  1.00  0.00    -0.014 C 
HETATM   16  C1  UNL     1      26.012  27.327   6.379  1.00  0.00     0.010 C 
BRANCH  15  17
HETATM   17  C3  UNL     1      28.445  27.938   6.862  1.00  0.00     0.005 C 
BRANCH  17  18
HETATM   18  C4  UNL     1      28.721  27.604   8.264  1.00  0.00     0.005 C 
BRANCH  18  19
HETATM   19  C5  UNL     1      28.369  26.326   8.877  1.00  0.00    -0.014 C 
HETATM   20  C6  UNL     1      27.125  26.294   9.732  1.00  0.00     0.004 C 
HETATM   21  C7  UNL     1      26.934  24.857  10.176  1.00  0.00     0.000 C 
HETATM   22  C8  UNL     1      28.092  24.381  11.025  1.00  0.00     0.000 C 
HETATM   23  C9  UNL     1      29.393  24.557  10.309  1.00  0.00     0.000 C 
HETATM   24  C10 UNL     1      29.512  25.992   9.871  1.00  0.00     0.004 C 
ENDBRANCH  18  19
ENDBRANCH  17  18
ENDBRANCH  15  17
ENDBRANCH   1  15
BRANCH   8  25
HETATM   25  O1  UNL     1      22.246  34.193   8.441  1.00  0.00    -0.396 OA
ATOM     26  H1  UNL     1      22.249  34.950   9.015  1.00  0.00     0.210 HD
ENDBRANCH   8  25
TORSDOF 5
ENDMDL
MODEL 5
REMARK VINA RESULT: -10.225210543      2.820      4.063
REMARK  5 active torsions:
REMARK  status: ('A' for Active; 'I' for Inactive)
REMARK    1  A    between atoms: C2_2  and  C3_3 
REMARK    2  A    between atoms: C2_2  and  C11_11 
REMARK    3  A    between atoms: C3_3  and  C4_4 
REMARK    4  A    between atoms: C4_4  and  C5_5 
REMARK    5  A    between atoms: C18_18  and  O1_19 
ROOT
HETATM    1  C11 UNL     1      26.259  30.805   6.542  1.00  0.00    -0.002 C 
HETATM    2  C12 UNL     1      26.202  31.527   7.881  1.00  0.00     0.006 C 
HETATM    3  C13 UNL     1      26.934  30.639   8.855  1.00  0.00     0.006 C 
HETATM    4  C14 UNL     1      27.231  29.424   8.100  1.00  0.00    -0.002 C 
HETATM    5  C15 UNL     1      27.328  28.165   8.898  1.00  0.00    -0.005 C 
HETATM    6  C16 UNL     1      28.457  28.320   9.895  1.00  0.00     0.008 C 
HETATM    7  C17 UNL     1      28.498  27.032  10.700  1.00  0.00     0.032 C 
HETATM    8  C18 UNL     1      28.890  25.917   9.736  1.00  0.00     0.118 C 
HETATM    9  C19 UNL     1      27.813  25.795   8.652  1.00  0.00     0.036 C 
HETATM   10  C20 UNL     1      27.783  27.083   7.908  1.00  0.00    -0.008 C 
HETATM   11  C21 UNL     1      26.874  27.011   6.732  1.00  0.00     0.006 C 
HETATM   12  C22 UNL     1      26.658  28.338   6.027  1.00  0.00     0.010 C 
HETATM   13  C23 UNL     1      26.198  29.350   7.001  1.00  0.00    -0.036 C 
HETATM   14  C24 UNL     1      24.826  29.006   7.530  1.00  0.00     0.016 C 
ENDROOT
BRANCH   1  15
HETATM   15  C2  UNL     1      25.173  31.230   5.611  1.00  0.00    -0.014 C 
HETATM   16  C1  UNL     1      25.642  31.483   4.221  1.00  0.00     0.010 C 
BRANCH  15  17
HETATM   17  C3  UNL     1      24.154  32.133   6.193  1.00  0.00     0.005 C 
BRANCH  17  18
HETATM   18  C4  UNL     1      22.762  31.862   5.816  1.00  0.00     0.005 C 
BRANCH  18  19
HETATM   19  C5  UNL     1      21.883  30.960   6.554  1.00  0.00    -0.014 C 
HETATM   20  C6  UNL     1      21.552  29.638   5.904  1.00  0.00     0.004 C 
HETATM   21  C7  UNL     1      20.706  28.861   6.893  1.00  0.00     0.000 C 
HETATM   22  C8  UNL     1      19.404  29.572   7.188  1.00  0.00     0.000 C 
HETATM   23  C9  UNL     1      19.649  30.967   7.667  1.00  0.00     0.000 C 
HETATM   24  C10 UNL     1      20.512  31.678   6.658  1.00  0.00     0.004 C 
ENDBRANCH  18  19
ENDBRANCH  17  18
ENDBRANCH  15  17
ENDBRANCH   1  15
BRANCH   8  25
HETATM   25  O1  UNL     1      30.087  26.322   9.138  1.00  0.00    -0.396 OA
ATOM     26  H1  UNL     1      30.123  27.266   9.232  1.00  0.00     0.210 HD
ENDBRANCH   8  25
TORSDOF 5
ENDMDL
