MODEL 1
REMARK VINA RESULT: -8.581176872      0.000      0.000
REMARK  3 active torsions:
REMARK  status: ('A' for Active; 'I' for Inactive)
REMARK       I    between atoms: N1_7  and  C6_8 
REMARK       I    between atoms: C6_8  and  N2_10 
REMARK       I    between atoms: C7_12  and  N3_13 
REMARK       I    between atoms: C7_12  and  N6_34 
REMARK    1  A    between atoms: N3_13  and  C8_15 
REMARK    2  A    between atoms: C10_19  and  C11_20 
REMARK    3  A    between atoms: N6_34  and  N7_36 
ROOT
HETATM    1  C8  UNL     1      16.474 -15.824  22.107  1.00  0.00     0.137 A 
HETATM    2  C9  UNL     1      17.241 -14.682  22.171  1.00  0.00     0.137 A 
HETATM    3  N4  UNL     1      18.209 -14.587  23.074  1.00  0.00    -0.363 N 
ATOM      4  H4  UNL     1      18.760 -13.728  23.097  1.00  0.00     0.165 HD
HETATM    5  C10 UNL     1      18.514 -15.574  23.981  1.00  0.00     0.052 A 
HETATM    6  C20 UNL     1      17.733 -16.689  23.885  1.00  0.00     0.104 A 
HETATM    7 BR1  UNL     1      17.978 -18.141  25.062  1.00  0.00    -0.029 Br
HETATM    8  N5  UNL     1      16.736 -16.814  22.971  1.00  0.00    -0.333 N 
ATOM      9  H5  UNL     1      16.182 -17.670  22.942  1.00  0.00     0.168 HD
ENDROOT
BRANCH   1  10
HETATM   10  N3  UNL     1      15.520 -15.964  21.243  1.00  0.00    -0.174 N 
HETATM   11  C7  UNL     1      14.146 -15.972  21.542  1.00  0.00     0.702 C 
HETATM   12  N2  UNL     1      13.459 -17.043  21.454  1.00  0.00    -0.140 N 
HETATM   13  N6  UNL     1      13.502 -14.776  21.945  1.00  0.00    -0.138 N 
HETATM   14  C6  UNL     1      14.100 -18.242  21.047  1.00  0.00     0.339 C 
ATOM     15  H2  UNL     1      12.463 -17.038  21.674  1.00  0.00     0.189 HD
HETATM   16  N1  UNL     1      13.658 -19.049  19.988  1.00  0.00    -0.301 N 
HETATM   17  O2  UNL     1      15.125 -18.583  21.687  1.00  0.00    -0.246 OA
HETATM   18  C2  UNL     1      12.516 -18.818  19.149  1.00  0.00     0.053 C 
HETATM   19  C5  UNL     1      14.259 -20.269  19.533  1.00  0.00     0.298 C 
HETATM   20  C1  UNL     1      12.315 -17.363  18.788  1.00  0.00     0.041 C 
HETATM   21  C3  UNL     1      11.255 -19.421  19.738  1.00  0.00     0.041 C 
HETATM   22  C4  UNL     1      12.881 -19.608  17.910  1.00  0.00     0.200 C 
HETATM   23  O1  UNL     1      13.831 -20.532  18.258  1.00  0.00    -0.369 OA
ATOM     24  H6  UNL     1      13.853 -13.878  21.612  1.00  0.00     0.205 HD
ATOM     25  H3  UNL     1      15.787 -16.077  20.264  1.00  0.00     0.186 HD
BRANCH  13  26
HETATM   26  N7  UNL     1      12.387 -14.813  22.794  1.00  0.00    -0.331 N 
ATOM     27  H72 UNL     1      12.520 -14.597  23.783  1.00  0.00     0.177 HD
ATOM     28  H71 UNL     1      11.464 -15.050  22.434  1.00  0.00     0.177 HD
ENDBRANCH  13  26
ENDBRANCH   1  10
BRANCH   5  29
HETATM   29  C11 UNL     1      19.600 -15.431  24.943  1.00  0.00     0.011 C 
HETATM   30  C12 UNL     1      19.285 -15.638  26.377  1.00  0.00     0.021 C 
HETATM   31  C13 UNL     1      20.548 -15.077  27.045  1.00  0.00    -0.012 C 
HETATM   32  C14 UNL     1      21.594 -16.167  26.907  1.00  0.00     0.020 C 
HETATM   33  C19 UNL     1      20.904 -13.906  26.196  1.00  0.00     0.011 C 
HETATM   34  C15 UNL     1      21.809 -16.551  25.489  1.00  0.00     0.049 C 
HETATM   35  C16 UNL     1      20.588 -16.579  24.629  1.00  0.00     0.031 C 
HETATM   36  S1  UNL     1      22.844 -15.223  24.734  1.00  0.00    -0.164 SA
HETATM   37  C17 UNL     1      21.560 -14.265  23.825  1.00  0.00     0.080 C 
HETATM   38  C18 UNL     1      20.393 -14.169  24.809  1.00  0.00     0.010 C 
ENDBRANCH   5  29
TORSDOF 3
ENDMDL
MODEL 2
REMARK VINA RESULT: -8.443093149      4.467      8.781
REMARK  3 active torsions:
REMARK  status: ('A' for Active; 'I' for Inactive)
REMARK       I    between atoms: N1_7  and  C6_8 
REMARK       I    between atoms: C6_8  and  N2_10 
REMARK       I    between atoms: C7_12  and  N3_13 
REMARK       I    between atoms: C7_12  and  N6_34 
REMARK    1  A    between atoms: N3_13  and  C8_15 
REMARK    2  A    between atoms: C10_19  and  C11_20 
REMARK    3  A    between atoms: N6_34  and  N7_36 
ROOT
HETATM    1  C8  UNL     1      20.056 -15.569  23.868  1.00  0.00     0.137 A 
HETATM    2  C9  UNL     1      18.728 -15.624  24.229  1.00  0.00     0.137 A 
HETATM    3  N4  UNL     1      17.810 -15.055  23.457  1.00  0.00    -0.363 N 
ATOM      4  H4  UNL     1      16.834 -15.113  23.751  1.00  0.00     0.165 HD
HETATM    5  C10 UNL     1      18.093 -14.393  22.286  1.00  0.00     0.052 A 
HETATM    6  C20 UNL     1      19.419 -14.361  21.962  1.00  0.00     0.104 A 
HETATM    7 BR1  UNL     1      20.010 -13.474  20.408  1.00  0.00    -0.029 Br
HETATM    8  N5  UNL     1      20.379 -14.934  22.732  1.00  0.00    -0.333 N 
ATOM      9  H5  UNL     1      21.356 -14.881  22.444  1.00  0.00     0.168 HD
ENDROOT
BRANCH   1  10
HETATM   10  N3  UNL     1      20.987 -16.109  24.588  1.00  0.00    -0.174 N 
HETATM   11  C7  UNL     1      22.351 -15.775  24.537  1.00  0.00     0.702 C 
HETATM   12  N2  UNL     1      23.209 -16.582  24.046  1.00  0.00    -0.140 N 
HETATM   13  N6  UNL     1      22.795 -14.527  25.039  1.00  0.00    -0.138 N 
HETATM   14  C6  UNL     1      22.770 -17.836  23.545  1.00  0.00     0.339 C 
ATOM     15  H2  UNL     1      24.197 -16.330  24.014  1.00  0.00     0.189 HD
HETATM   16  N1  UNL     1      23.304 -19.071  23.940  1.00  0.00    -0.301 N 
HETATM   17  O2  UNL     1      21.844 -17.814  22.697  1.00  0.00    -0.246 OA
HETATM   18  C2  UNL     1      24.357 -19.288  24.892  1.00  0.00     0.053 C 
HETATM   19  C5  UNL     1      22.906 -20.366  23.469  1.00  0.00     0.298 C 
HETATM   20  C1  UNL     1      24.290 -18.365  26.088  1.00  0.00     0.041 C 
HETATM   21  C3  UNL     1      25.724 -19.247  24.237  1.00  0.00     0.041 C 
HETATM   22  C4  UNL     1      24.087 -20.713  25.328  1.00  0.00     0.200 C 
HETATM   23  O1  UNL     1      23.325 -21.316  24.363  1.00  0.00    -0.369 OA
ATOM     24  H6  UNL     1      22.282 -14.079  25.799  1.00  0.00     0.205 HD
ATOM     25  H3  UNL     1      20.707 -16.836  25.246  1.00  0.00     0.186 HD
BRANCH  13  26
HETATM   26  N7  UNL     1      23.930 -13.902  24.505  1.00  0.00    -0.331 N 
ATOM     27  H72 UNL     1      24.768 -13.836  25.083  1.00  0.00     0.177 HD
ATOM     28  H71 UNL     1      23.920 -13.520  23.560  1.00  0.00     0.177 HD
ENDBRANCH  13  26
ENDBRANCH   1  10
BRANCH   5  29
HETATM   29  C11 UNL     1      17.047 -13.801  21.461  1.00  0.00     0.011 C 
HETATM   30  C12 UNL     1      17.203 -12.381  21.063  1.00  0.00     0.021 C 
HETATM   31  C13 UNL     1      15.798 -12.062  20.533  1.00  0.00    -0.012 C 
HETATM   32  C14 UNL     1      15.747 -12.661  19.141  1.00  0.00     0.020 C 
HETATM   33  C19 UNL     1      14.897 -12.814  21.453  1.00  0.00     0.011 C 
HETATM   34  C15 UNL     1      16.048 -14.114  19.150  1.00  0.00     0.049 C 
HETATM   35  C16 UNL     1      17.104 -14.554  20.111  1.00  0.00     0.031 C 
HETATM   36  S1  UNL     1      14.527 -14.964  19.758  1.00  0.00    -0.164 SA
HETATM   37  C17 UNL     1      14.996 -15.297  21.507  1.00  0.00     0.080 C 
HETATM   38  C18 UNL     1      15.656 -13.999  21.975  1.00  0.00     0.010 C 
ENDBRANCH   5  29
TORSDOF 3
ENDMDL
MODEL 3
REMARK VINA RESULT: -8.300386398      1.939      2.429
REMARK  3 active torsions:
REMARK  status: ('A' for Active; 'I' for Inactive)
REMARK       I    between atoms: N1_7  and  C6_8 
REMARK       I    between atoms: C6_8  and  N2_10 
REMARK       I    between atoms: C7_12  and  N3_13 
REMARK       I    between atoms: C7_12  and  N6_34 
REMARK    1  A    between atoms: N3_13  and  C8_15 
REMARK    2  A    between atoms: C10_19  and  C11_20 
REMARK    3  A    between atoms: N6_34  and  N7_36 
ROOT
HETATM    1  C8  UNL     1      16.976 -16.685  21.460  1.00  0.00     0.137 A 
HETATM    2  C9  UNL     1      17.028 -17.271  22.706  1.00  0.00     0.137 A 
HETATM    3  N4  UNL     1      17.911 -16.844  23.599  1.00  0.00    -0.363 N 
ATOM      4  H4  UNL     1      17.926 -17.297  24.513  1.00  0.00     0.165 HD
HETATM    5  C10 UNL     1      18.808 -15.827  23.369  1.00  0.00     0.052 A 
HETATM    6  C20 UNL     1      18.724 -15.272  22.125  1.00  0.00     0.104 A 
HETATM    7 BR1  UNL     1      19.890 -13.883  21.609  1.00  0.00    -0.029 Br
HETATM    8  N5  UNL     1      17.831 -15.689  21.191  1.00  0.00    -0.333 N 
ATOM      9  H5  UNL     1      17.810 -15.239  20.276  1.00  0.00     0.168 HD
ENDROOT
BRANCH   1  10
HETATM   10  N3  UNL     1      16.132 -17.068  20.556  1.00  0.00    -0.174 N 
HETATM   11  C7  UNL     1      15.166 -16.248  19.946  1.00  0.00     0.702 C 
HETATM   12  N2  UNL     1      13.923 -16.397  20.195  1.00  0.00    -0.140 N 
HETATM   13  N6  UNL     1      15.566 -15.239  19.035  1.00  0.00    -0.138 N 
HETATM   14  C6  UNL     1      13.518 -17.409  21.103  1.00  0.00     0.339 C 
ATOM     15  H2  UNL     1      13.231 -15.796  19.747  1.00  0.00     0.189 HD
HETATM   16  N1  UNL     1      12.562 -18.392  20.810  1.00  0.00    -0.301 N 
HETATM   17  O2  UNL     1      14.062 -17.406  22.235  1.00  0.00    -0.246 OA
HETATM   18  C2  UNL     1      11.842 -18.551  19.577  1.00  0.00     0.053 C 
HETATM   19  C5  UNL     1      12.110 -19.434  21.684  1.00  0.00     0.298 C 
HETATM   20  C1  UNL     1      12.682 -18.286  18.348  1.00  0.00     0.041 C 
HETATM   21  C3  UNL     1      10.566 -17.733  19.562  1.00  0.00     0.041 C 
HETATM   22  C4  UNL     1      11.462 -20.016  19.631  1.00  0.00     0.200 C 
HETATM   23  O1  UNL     1      11.525 -20.424  20.938  1.00  0.00    -0.369 OA
ATOM     24  H6  UNL     1      16.416 -15.365  18.485  1.00  0.00     0.205 HD
ATOM     25  H3  UNL     1      16.171 -18.044  20.262  1.00  0.00     0.186 HD
BRANCH  13  26
HETATM   26  N7  UNL     1      14.807 -14.071  18.880  1.00  0.00    -0.331 N 
ATOM     27  H72 UNL     1      13.896 -14.016  19.336  1.00  0.00     0.177 HD
ATOM     28  H71 UNL     1      15.156 -13.292  18.323  1.00  0.00     0.177 HD
ENDBRANCH  13  26
ENDBRANCH   1  10
BRANCH   5  29
HETATM   29  C11 UNL     1      19.747 -15.379  24.390  1.00  0.00     0.011 C 
HETATM   30  C12 UNL     1      19.641 -13.976  24.858  1.00  0.00     0.021 C 
HETATM   31  C13 UNL     1      20.960 -13.817  25.628  1.00  0.00    -0.012 C 
HETATM   32  C14 UNL     1      20.731 -14.495  26.964  1.00  0.00     0.020 C 
HETATM   33  C19 UNL     1      21.937 -14.594  24.813  1.00  0.00     0.011 C 
HETATM   34  C15 UNL     1      20.320 -15.912  26.803  1.00  0.00     0.049 C 
HETATM   35  C16 UNL     1      19.406 -16.200  25.657  1.00  0.00     0.031 C 
HETATM   36  S1  UNL     1      21.848 -16.861  26.389  1.00  0.00    -0.164 SA
HETATM   37  C17 UNL     1      21.651 -17.050  24.569  1.00  0.00     0.080 C 
HETATM   38  C18 UNL     1      21.183 -15.673  24.094  1.00  0.00     0.010 C 
ENDBRANCH   5  29
TORSDOF 3
ENDMDL
MODEL 4
REMARK VINA RESULT: -8.241697349      1.266      1.452
REMARK  3 active torsions:
REMARK  status: ('A' for Active; 'I' for Inactive)
REMARK       I    between atoms: N1_7  and  C6_8 
REMARK       I    between atoms: C6_8  and  N2_10 
REMARK       I    between atoms: C7_12  and  N3_13 
REMARK       I    between atoms: C7_12  and  N6_34 
REMARK    1  A    between atoms: N3_13  and  C8_15 
REMARK    2  A    between atoms: C10_19  and  C11_20 
REMARK    3  A    between atoms: N6_34  and  N7_36 
ROOT
HETATM    1  C8  UNL     1      16.749 -16.377  21.809  1.00  0.00     0.137 A 
HETATM    2  C9  UNL     1      17.594 -15.295  21.696  1.00  0.00     0.137 A 
HETATM    3  N4  UNL     1      18.473 -15.040  22.658  1.00  0.00    -0.363 N 
ATOM      4  H4  UNL     1      19.085 -14.232  22.545  1.00  0.00     0.165 HD
HETATM    5  C10 UNL     1      18.608 -15.800  23.796  1.00  0.00     0.052 A 
HETATM    6  C20 UNL     1      17.754 -16.862  23.871  1.00  0.00     0.104 A 
HETATM    7 BR1  UNL     1      17.767 -18.004  25.371  1.00  0.00    -0.029 Br
HETATM    8  N5  UNL     1      16.846 -17.146  22.903  1.00  0.00    -0.333 N 
ATOM      9  H5  UNL     1      16.231 -17.953  23.008  1.00  0.00     0.168 HD
ENDROOT
BRANCH   1  10
HETATM   10  N3  UNL     1      15.877 -16.666  20.897  1.00  0.00    -0.174 N 
HETATM   11  C7  UNL     1      14.794 -15.852  20.521  1.00  0.00     0.702 C 
HETATM   12  N2  UNL     1      13.594 -16.179  20.807  1.00  0.00    -0.140 N 
HETATM   13  N6  UNL     1      15.025 -14.650  19.809  1.00  0.00    -0.138 N 
HETATM   14  C6  UNL     1      13.357 -17.386  21.516  1.00  0.00     0.339 C 
ATOM     15  H2  UNL     1      12.816 -15.582  20.529  1.00  0.00     0.189 HD
HETATM   16  N1  UNL     1      12.478 -18.390  21.087  1.00  0.00    -0.301 N 
HETATM   17  O2  UNL     1      13.986 -17.543  22.592  1.00  0.00    -0.246 OA
HETATM   18  C2  UNL     1      11.683 -18.385  19.892  1.00  0.00     0.053 C 
HETATM   19  C5  UNL     1      12.196 -19.625  21.760  1.00  0.00     0.298 C 
HETATM   20  C1  UNL     1      12.395 -17.798  18.694  1.00  0.00     0.041 C 
HETATM   21  C3  UNL     1      10.337 -17.721  20.115  1.00  0.00     0.041 C 
HETATM   22  C4  UNL     1      11.447 -19.865  19.674  1.00  0.00     0.200 C 
HETATM   23  O1  UNL     1      11.650 -20.508  20.866  1.00  0.00    -0.369 OA
ATOM     24  H6  UNL     1      15.837 -14.574  19.197  1.00  0.00     0.205 HD
ATOM     25  H3  UNL     1      15.984 -17.557  20.412  1.00  0.00     0.186 HD
BRANCH  13  26
HETATM   26  N7  UNL     1      14.149 -13.562  19.936  1.00  0.00    -0.331 N 
ATOM     27  H72 UNL     1      13.531 -13.524  20.746  1.00  0.00     0.177 HD
ATOM     28  H71 UNL     1      14.130 -12.823  19.233  1.00  0.00     0.177 HD
ENDBRANCH  13  26
ENDBRANCH   1  10
BRANCH   5  29
HETATM   29  C11 UNL     1      19.602 -15.490  24.817  1.00  0.00     0.011 C 
HETATM   30  C12 UNL     1      19.180 -15.560  26.236  1.00  0.00     0.021 C 
HETATM   31  C13 UNL     1      20.354 -14.859  26.933  1.00  0.00    -0.012 C 
HETATM   32  C14 UNL     1      21.460 -15.894  26.998  1.00  0.00     0.020 C 
HETATM   33  C19 UNL     1      20.722 -13.767  25.988  1.00  0.00     0.011 C 
HETATM   34  C15 UNL     1      21.811 -16.416  25.654  1.00  0.00     0.049 C 
HETATM   35  C16 UNL     1      20.668 -16.607  24.711  1.00  0.00     0.031 C 
HETATM   36  S1  UNL     1      22.838 -15.119  24.836  1.00  0.00    -0.164 SA
HETATM   37  C17 UNL     1      21.589 -14.340  23.730  1.00  0.00     0.080 C 
HETATM   38  C18 UNL     1      20.341 -14.207  24.604  1.00  0.00     0.010 C 
ENDBRANCH   5  29
TORSDOF 3
ENDMDL
MODEL 5
REMARK VINA RESULT: -8.053216391      1.447      1.858
REMARK  3 active torsions:
REMARK  status: ('A' for Active; 'I' for Inactive)
REMARK       I    between atoms: N1_7  and  C6_8 
REMARK       I    between atoms: C6_8  and  N2_10 
REMARK       I    between atoms: C7_12  and  N3_13 
REMARK       I    between atoms: C7_12  and  N6_34 
REMARK    1  A    between atoms: N3_13  and  C8_15 
REMARK    2  A    between atoms: C10_19  and  C11_20 
REMARK    3  A    between atoms: N6_34  and  N7_36 
ROOT
HETATM    1  C8  UNL     1      16.634 -16.153  21.806  1.00  0.00     0.137 A 
HETATM    2  C9  UNL     1      16.697 -16.733  23.055  1.00  0.00     0.137 A 
HETATM    3  N4  UNL     1      17.717 -16.458  23.859  1.00  0.00    -0.363 N 
ATOM      4  H4  UNL     1      17.735 -16.902  24.777  1.00  0.00     0.165 HD
HETATM    5  C10 UNL     1      18.749 -15.611  23.530  1.00  0.00     0.052 A 
HETATM    6  C20 UNL     1      18.650 -15.056  22.287  1.00  0.00     0.104 A 
HETATM    7 BR1  UNL     1      19.983 -13.891  21.643  1.00  0.00    -0.029 Br
HETATM    8  N5  UNL     1      17.618 -15.319  21.443  1.00  0.00    -0.333 N 
ATOM      9  H5  UNL     1      17.593 -14.878  20.524  1.00  0.00     0.168 HD
ENDROOT
BRANCH   1  10
HETATM   10  N3  UNL     1      15.660 -16.390  20.987  1.00  0.00    -0.174 N 
HETATM   11  C7  UNL     1      14.301 -16.468  21.340  1.00  0.00     0.702 C 
HETATM   12  N2  UNL     1      13.679 -17.583  21.326  1.00  0.00    -0.140 N 
HETATM   13  N6  UNL     1      13.598 -15.297  21.715  1.00  0.00    -0.138 N 
HETATM   14  C6  UNL     1      14.379 -18.758  20.947  1.00  0.00     0.339 C 
ATOM     15  H2  UNL     1      12.694 -17.628  21.584  1.00  0.00     0.189 HD
HETATM   16  N1  UNL     1      13.951 -19.638  19.943  1.00  0.00    -0.301 N 
HETATM   17  O2  UNL     1      15.446 -19.006  21.562  1.00  0.00    -0.246 OA
HETATM   18  C2  UNL     1      12.767 -19.517  19.140  1.00  0.00     0.053 C 
HETATM   19  C5  UNL     1      14.610 -20.839  19.519  1.00  0.00     0.298 C 
HETATM   20  C1  UNL     1      12.462 -18.095  18.724  1.00  0.00     0.041 C 
HETATM   21  C3  UNL     1      11.568 -20.167  19.803  1.00  0.00     0.041 C 
HETATM   22  C4  UNL     1      13.136 -20.339  17.923  1.00  0.00     0.200 C 
HETATM   23  O1  UNL     1      14.153 -21.186  18.275  1.00  0.00    -0.369 OA
ATOM     24  H6  UNL     1      13.879 -14.395  21.330  1.00  0.00     0.205 HD
ATOM     25  H3  UNL     1      15.897 -16.532  20.005  1.00  0.00     0.186 HD
BRANCH  13  26
HETATM   26  N7  UNL     1      12.519 -15.363  22.608  1.00  0.00    -0.331 N 
ATOM     27  H72 UNL     1      12.123 -16.276  22.828  1.00  0.00     0.177 HD
ATOM     28  H71 UNL     1      12.139 -14.516  23.030  1.00  0.00     0.177 HD
ENDBRANCH  13  26
ENDBRANCH   1  10
BRANCH   5  29
HETATM   29  C11 UNL     1      19.837 -15.325  24.456  1.00  0.00     0.011 C 
HETATM   30  C12 UNL     1      20.026 -13.919  24.888  1.00  0.00     0.021 C 
HETATM   31  C13 UNL     1      21.414 -13.989  25.541  1.00  0.00    -0.012 C 
HETATM   32  C14 UNL     1      21.183 -14.595  26.912  1.00  0.00     0.020 C 
HETATM   33  C19 UNL     1      22.162 -14.942  24.673  1.00  0.00     0.011 C 
HETATM   34  C15 UNL     1      20.513 -15.917  26.829  1.00  0.00     0.049 C 
HETATM   35  C16 UNL     1      19.467 -16.051  25.771  1.00  0.00     0.031 C 
HETATM   36  S1  UNL     1      21.806 -17.132  26.319  1.00  0.00    -0.164 SA
HETATM   37  C17 UNL     1      21.420 -17.310  24.527  1.00  0.00     0.080 C 
HETATM   38  C18 UNL     1      21.167 -15.878  24.051  1.00  0.00     0.010 C 
ENDBRANCH   5  29
TORSDOF 3
ENDMDL
