MODEL 1
REMARK VINA RESULT: -6.175563178      0.000      0.000
REMARK  15 active torsions:
REMARK  status: ('A' for Active; 'I' for Inactive)
REMARK    1  A    between atoms: C2_2  and  C4_4 
REMARK    2  A    between atoms: C5_5  and  C6_6 
REMARK    3  A    between atoms: C8_8  and  C9_9 
REMARK    4  A    between atoms: C9_9  and  N1_10 
REMARK    5  A    between atoms: C9_9  and  N2_14 
REMARK    6  A    between atoms: C12_20  and  O1_21 
REMARK    7  A    between atoms: O1_21  and  C13_22 
REMARK    8  A    between atoms: C13_22  and  C14_23 
REMARK    9  A    between atoms: C14_23  and  O2_24 
REMARK   10  A    between atoms: O2_24  and  C15_25 
REMARK   11  A    between atoms: C15_25  and  C16_26 
REMARK   12  A    between atoms: C16_26  and  O3_27 
REMARK   13  A    between atoms: O3_27  and  C17_28 
REMARK   14  A    between atoms: C17_28  and  C18_29 
REMARK   15  A    between atoms: C18_29  and  N3_30 
ROOT
HETATM    1  C13 UNL     1      50.731  31.110  34.980  1.00  0.00     0.201 C 
ENDROOT
BRANCH   1   2
HETATM    2  O1  UNL     1      51.946  30.954  35.584  1.00  0.00    -0.348 OA
BRANCH   2   3
HETATM    3  C12 UNL     1      53.074  31.708  35.533  1.00  0.00     0.087 A 
HETATM    4  C6  UNL     1      53.552  32.208  36.749  1.00  0.00     0.051 A 
HETATM    5  C7  UNL     1      54.722  32.987  36.827  1.00  0.00     0.034 A 
HETATM    6  C8  UNL     1      55.365  33.233  35.641  1.00  0.00     0.000 A 
HETATM    7  C10 UNL     1      54.903  32.755  34.445  1.00  0.00     0.014 A 
HETATM    8  C11 UNL     1      53.760  31.991  34.364  1.00  0.00     0.039 A 
BRANCH   4   9
HETATM    9  C5  UNL     1      52.812  31.951  37.947  1.00  0.00    -0.064 C 
HETATM   10  C4  UNL     1      52.152  31.749  38.969  1.00  0.00    -0.097 C 
BRANCH  10  11
HETATM   11  C2  UNL     1      51.344  31.531  40.152  1.00  0.00     0.057 C 
HETATM   12  C1  UNL     1      50.330  30.444  39.951  1.00  0.00     0.023 C 
HETATM   13  C3  UNL     1      50.655  32.820  40.606  1.00  0.00     0.023 C 
ENDBRANCH  10  11
ENDBRANCH   4   9
BRANCH   6  14
HETATM   14  C9  UNL     1      56.640  34.043  35.641  1.00  0.00     0.411 C 
BRANCH  14  15
HETATM   15  N1  UNL     1      57.131  34.202  34.270  1.00  0.00    -0.046 N 
ATOM     16  H13 UNL     1      56.506  33.774  33.587  1.00  0.00     0.277 HD
ATOM     17  H12 UNL     1      57.063  35.167  33.950  1.00  0.00     0.277 HD
ATOM     18  H11 UNL     1      58.082  33.840  34.197  1.00  0.00     0.277 HD
ENDBRANCH  14  15
BRANCH  14  19
HETATM   19  N2  UNL     1      56.393  35.344  36.246  1.00  0.00    -0.046 N 
ATOM     20  H23 UNL     1      55.715  35.892  35.717  1.00  0.00     0.277 HD
ATOM     21  H22 UNL     1      55.872  35.269  37.119  1.00  0.00     0.277 HD
ATOM     22  H21 UNL     1      57.277  35.839  36.367  1.00  0.00     0.277 HD
ENDBRANCH  14  19
ENDBRANCH   6  14
ENDBRANCH   2   3
ENDBRANCH   1   2
BRANCH   1  23
HETATM   23  C14 UNL     1      49.591  31.844  35.347  1.00  0.00     0.194 C 
BRANCH  23  24
HETATM   24  O2  UNL     1      49.302  31.666  36.764  1.00  0.00    -0.387 OA
BRANCH  24  25
HETATM   25  C15 UNL     1      48.338  30.691  36.880  1.00  0.00     0.193 C 
BRANCH  25  26
HETATM   26  C16 UNL     1      46.940  31.064  36.469  1.00  0.00     0.193 C 
BRANCH  26  27
HETATM   27  O3  UNL     1      46.350  31.904  37.361  1.00  0.00    -0.387 OA
BRANCH  27  28
HETATM   28  C17 UNL     1      45.780  33.058  36.990  1.00  0.00     0.198 C 
BRANCH  28  29
HETATM   29  C18 UNL     1      46.608  33.915  36.044  1.00  0.00     0.298 C 
BRANCH  29  30
HETATM   30  N3  UNL     1      46.712  35.270  36.512  1.00  0.00     0.093 N 
HETATM   31  C19 UNL     1      47.302  36.130  35.568  1.00  0.00     0.300 C 
HETATM   32  C20 UNL     1      48.103  35.499  34.447  1.00  0.00     0.262 C 
HETATM   33  N4  UNL     1      49.504  35.434  34.771  1.00  0.00    -0.073 N 
HETATM   34  C21 UNL     1      50.096  36.754  34.783  1.00  0.00     0.232 C 
ATOM     35  H42 UNL     1      49.665  34.942  35.650  1.00  0.00     0.277 HD
ATOM     36  H41 UNL     1      50.005  34.803  34.146  1.00  0.00     0.277 HD
HETATM   37  C22 UNL     1      50.847  37.050  36.033  1.00  0.00     0.029 C 
HETATM   38  C23 UNL     1      51.611  35.883  36.605  1.00  0.00     0.021 C 
HETATM   39  C24 UNL     1      50.770  34.875  37.320  1.00  0.00     0.113 C 
HETATM   40  N5  UNL     1      49.612  35.476  37.869  1.00  0.00    -0.419 N 
HETATM   41  C25 UNL     1      48.499  34.636  38.134  1.00  0.00     0.144 C 
ATOM     42  H5  UNL     1      49.579  36.477  38.068  1.00  0.00     0.153 HD
HETATM   43  C26 UNL     1      47.212  35.330  37.860  1.00  0.00     0.291 C 
ENDBRANCH  29  30
ENDBRANCH  28  29
ENDBRANCH  27  28
ENDBRANCH  26  27
ENDBRANCH  25  26
ENDBRANCH  24  25
ENDBRANCH  23  24
ENDBRANCH   1  23
TORSDOF 15
ENDMDL
MODEL 2
REMARK VINA RESULT: -6.107493447      1.576      2.036
REMARK  15 active torsions:
REMARK  status: ('A' for Active; 'I' for Inactive)
REMARK    1  A    between atoms: C2_2  and  C4_4 
REMARK    2  A    between atoms: C5_5  and  C6_6 
REMARK    3  A    between atoms: C8_8  and  C9_9 
REMARK    4  A    between atoms: C9_9  and  N1_10 
REMARK    5  A    between atoms: C9_9  and  N2_14 
REMARK    6  A    between atoms: C12_20  and  O1_21 
REMARK    7  A    between atoms: O1_21  and  C13_22 
REMARK    8  A    between atoms: C13_22  and  C14_23 
REMARK    9  A    between atoms: C14_23  and  O2_24 
REMARK   10  A    between atoms: O2_24  and  C15_25 
REMARK   11  A    between atoms: C15_25  and  C16_26 
REMARK   12  A    between atoms: C16_26  and  O3_27 
REMARK   13  A    between atoms: O3_27  and  C17_28 
REMARK   14  A    between atoms: C17_28  and  C18_29 
REMARK   15  A    between atoms: C18_29  and  N3_30 
ROOT
HETATM    1  C13 UNL     1      52.627  31.206  35.894  1.00  0.00     0.201 C 
ENDROOT
BRANCH   1   2
HETATM    2  O1  UNL     1      53.687  31.631  36.642  1.00  0.00    -0.348 OA
BRANCH   2   3
HETATM    3  C12 UNL     1      54.381  32.799  36.630  1.00  0.00     0.087 A 
HETATM    4  C6  UNL     1      54.095  33.711  37.652  1.00  0.00     0.051 A 
HETATM    5  C7  UNL     1      54.761  34.947  37.757  1.00  0.00     0.034 A 
HETATM    6  C8  UNL     1      55.703  35.209  36.796  1.00  0.00     0.000 A 
HETATM    7  C10 UNL     1      55.986  34.328  35.789  1.00  0.00     0.014 A 
HETATM    8  C11 UNL     1      55.338  33.117  35.683  1.00  0.00     0.039 A 
BRANCH   4   9
HETATM    9  C5  UNL     1      53.070  33.396  38.601  1.00  0.00    -0.064 C 
HETATM   10  C4  UNL     1      52.195  33.094  39.416  1.00  0.00    -0.097 C 
BRANCH  10  11
HETATM   11  C2  UNL     1      51.183  32.701  40.376  1.00  0.00     0.057 C 
HETATM   12  C1  UNL     1      50.933  31.222  40.359  1.00  0.00     0.023 C 
HETATM   13  C3  UNL     1      49.874  33.462  40.155  1.00  0.00     0.023 C 
ENDBRANCH  10  11
ENDBRANCH   4   9
BRANCH   6  14
HETATM   14  C9  UNL     1      56.478  36.505  36.849  1.00  0.00     0.411 C 
BRANCH  14  15
HETATM   15  N1  UNL     1      55.819  37.516  36.020  1.00  0.00    -0.046 N 
ATOM     16  H13 UNL     1      56.033  37.397  35.029  1.00  0.00     0.277 HD
ATOM     17  H12 UNL     1      54.811  37.373  35.972  1.00  0.00     0.277 HD
ATOM     18  H11 UNL     1      56.059  38.449  36.353  1.00  0.00     0.277 HD
ENDBRANCH  14  15
BRANCH  14  19
HETATM   19  N2  UNL     1      56.573  36.962  38.228  1.00  0.00    -0.046 N 
ATOM     20  H23 UNL     1      55.824  37.610  38.471  1.00  0.00     0.277 HD
ATOM     21  H22 UNL     1      56.349  36.222  38.894  1.00  0.00     0.277 HD
ATOM     22  H21 UNL     1      57.496  37.362  38.394  1.00  0.00     0.277 HD
ENDBRANCH  14  19
ENDBRANCH   6  14
ENDBRANCH   2   3
ENDBRANCH   1   2
BRANCH   1  23
HETATM   23  C14 UNL     1      51.663  30.209  36.118  1.00  0.00     0.194 C 
BRANCH  23  24
HETATM   24  O2  UNL     1      50.595  30.712  36.974  1.00  0.00    -0.387 OA
BRANCH  24  25
HETATM   25  C15 UNL     1      49.605  29.757  37.019  1.00  0.00     0.193 C 
BRANCH  25  26
HETATM   26  C16 UNL     1      48.345  30.047  36.251  1.00  0.00     0.193 C 
BRANCH  26  27
HETATM   27  O3  UNL     1      47.428  30.715  37.002  1.00  0.00    -0.387 OA
BRANCH  27  28
HETATM   28  C17 UNL     1      46.972  31.928  36.665  1.00  0.00     0.198 C 
BRANCH  28  29
HETATM   29  C18 UNL     1      47.975  33.062  36.813  1.00  0.00     0.298 C 
BRANCH  29  30
HETATM   30  N3  UNL     1      47.685  34.146  35.915  1.00  0.00     0.093 N 
HETATM   31  C19 UNL     1      48.392  34.057  34.703  1.00  0.00     0.300 C 
HETATM   32  C20 UNL     1      49.610  33.156  34.665  1.00  0.00     0.262 C 
HETATM   33  N4  UNL     1      50.819  33.891  34.931  1.00  0.00    -0.073 N 
HETATM   34  C21 UNL     1      51.137  34.781  33.836  1.00  0.00     0.232 C 
ATOM     35  H42 UNL     1      50.768  34.391  35.819  1.00  0.00     0.277 HD
ATOM     36  H41 UNL     1      51.597  33.269  35.148  1.00  0.00     0.277 HD
HETATM   37  C22 UNL     1      51.378  36.184  34.269  1.00  0.00     0.029 C 
HETATM   38  C23 UNL     1      52.103  36.327  35.582  1.00  0.00     0.021 C 
HETATM   39  C24 UNL     1      51.264  36.072  36.792  1.00  0.00     0.113 C 
HETATM   40  N5  UNL     1      49.904  36.378  36.541  1.00  0.00    -0.419 N 
HETATM   41  C25 UNL     1      48.929  35.755  37.362  1.00  0.00     0.144 C 
ATOM     42  H5  UNL     1      49.636  37.024  35.798  1.00  0.00     0.153 HD
HETATM   43  C26 UNL     1      47.701  35.416  36.594  1.00  0.00     0.291 C 
ENDBRANCH  29  30
ENDBRANCH  28  29
ENDBRANCH  27  28
ENDBRANCH  26  27
ENDBRANCH  25  26
ENDBRANCH  24  25
ENDBRANCH  23  24
ENDBRANCH   1  23
TORSDOF 15
ENDMDL
MODEL 3
REMARK VINA RESULT: -6.101910474      2.118      4.296
REMARK  15 active torsions:
REMARK  status: ('A' for Active; 'I' for Inactive)
REMARK    1  A    between atoms: C2_2  and  C4_4 
REMARK    2  A    between atoms: C5_5  and  C6_6 
REMARK    3  A    between atoms: C8_8  and  C9_9 
REMARK    4  A    between atoms: C9_9  and  N1_10 
REMARK    5  A    between atoms: C9_9  and  N2_14 
REMARK    6  A    between atoms: C12_20  and  O1_21 
REMARK    7  A    between atoms: O1_21  and  C13_22 
REMARK    8  A    between atoms: C13_22  and  C14_23 
REMARK    9  A    between atoms: C14_23  and  O2_24 
REMARK   10  A    between atoms: O2_24  and  C15_25 
REMARK   11  A    between atoms: C15_25  and  C16_26 
REMARK   12  A    between atoms: C16_26  and  O3_27 
REMARK   13  A    between atoms: O3_27  and  C17_28 
REMARK   14  A    between atoms: C17_28  and  C18_29 
REMARK   15  A    between atoms: C18_29  and  N3_30 
ROOT
HETATM    1  C13 UNL     1      53.156  33.648  38.981  1.00  0.00     0.201 C 
ENDROOT
BRANCH   1   2
HETATM    2  O1  UNL     1      53.781  34.610  38.240  1.00  0.00    -0.348 OA
BRANCH   2   3
HETATM    3  C12 UNL     1      54.498  34.528  37.089  1.00  0.00     0.087 A 
HETATM    4  C6  UNL     1      53.962  35.171  35.967  1.00  0.00     0.051 A 
HETATM    5  C7  UNL     1      54.621  35.173  34.723  1.00  0.00     0.034 A 
HETATM    6  C8  UNL     1      55.817  34.504  34.671  1.00  0.00     0.000 A 
HETATM    7  C10 UNL     1      56.347  33.867  35.760  1.00  0.00     0.014 A 
HETATM    8  C11 UNL     1      55.706  33.864  36.979  1.00  0.00     0.039 A 
BRANCH   4   9
HETATM    9  C5  UNL     1      52.689  35.816  36.076  1.00  0.00    -0.064 C 
HETATM   10  C4  UNL     1      51.603  36.390  36.192  1.00  0.00    -0.097 C 
BRANCH  10  11
HETATM   11  C2  UNL     1      50.347  37.094  36.351  1.00  0.00     0.057 C 
HETATM   12  C1  UNL     1      49.393  36.353  37.240  1.00  0.00     0.023 C 
HETATM   13  C3  UNL     1      49.692  37.387  35.000  1.00  0.00     0.023 C 
ENDBRANCH  10  11
ENDBRANCH   4   9
BRANCH   6  14
HETATM   14  C9  UNL     1      56.597  34.477  33.378  1.00  0.00     0.411 C 
BRANCH  14  15
HETATM   15  N1  UNL     1      56.711  35.832  32.835  1.00  0.00    -0.046 N 
ATOM     16  H13 UNL     1      57.469  35.910  32.156  1.00  0.00     0.277 HD
ATOM     17  H12 UNL     1      55.934  36.063  32.217  1.00  0.00     0.277 HD
ATOM     18  H11 UNL     1      56.809  36.505  33.595  1.00  0.00     0.277 HD
ENDBRANCH  14  15
BRANCH  14  19
HETATM   19  N2  UNL     1      57.918  33.912  33.616  1.00  0.00    -0.046 N 
ATOM     20  H23 UNL     1      58.556  34.588  34.035  1.00  0.00     0.277 HD
ATOM     21  H22 UNL     1      57.912  33.227  34.372  1.00  0.00     0.277 HD
ATOM     22  H21 UNL     1      58.285  33.523  32.748  1.00  0.00     0.277 HD
ENDBRANCH  14  19
ENDBRANCH   6  14
ENDBRANCH   2   3
ENDBRANCH   1   2
BRANCH   1  23
HETATM   23  C14 UNL     1      52.431  32.504  38.608  1.00  0.00     0.194 C 
BRANCH  23  24
HETATM   24  O2  UNL     1      52.401  31.538  39.700  1.00  0.00    -0.387 OA
BRANCH  24  25
HETATM   25  C15 UNL     1      51.171  31.631  40.312  1.00  0.00     0.193 C 
BRANCH  25  26
HETATM   26  C16 UNL     1      50.148  30.593  39.943  1.00  0.00     0.193 C 
BRANCH  26  27
HETATM   27  O3  UNL     1      49.021  31.146  39.418  1.00  0.00    -0.387 OA
BRANCH  27  28
HETATM   28  C17 UNL     1      48.799  32.467  39.428  1.00  0.00     0.198 C 
BRANCH  28  29
HETATM   29  C18 UNL     1      48.385  33.065  38.091  1.00  0.00     0.298 C 
BRANCH  29  30
HETATM   30  N3  UNL     1      47.116  32.553  37.653  1.00  0.00     0.093 N 
HETATM   31  C19 UNL     1      47.025  32.442  36.254  1.00  0.00     0.300 C 
HETATM   32  C20 UNL     1      48.017  33.229  35.421  1.00  0.00     0.262 C 
HETATM   33  N4  UNL     1      47.478  34.503  35.022  1.00  0.00    -0.073 N 
HETATM   34  C21 UNL     1      46.418  34.337  34.050  1.00  0.00     0.232 C 
ATOM     35  H42 UNL     1      47.169  35.049  35.826  1.00  0.00     0.277 HD
ATOM     36  H41 UNL     1      48.207  35.128  34.680  1.00  0.00     0.277 HD
HETATM   37  C22 UNL     1      45.166  35.051  34.419  1.00  0.00     0.029 C 
HETATM   38  C23 UNL     1      45.371  36.390  35.079  1.00  0.00     0.021 C 
HETATM   39  C24 UNL     1      45.783  36.323  36.515  1.00  0.00     0.113 C 
HETATM   40  N5  UNL     1      45.296  35.144  37.130  1.00  0.00    -0.419 N 
HETATM   41  C25 UNL     1      45.974  34.680  38.287  1.00  0.00     0.144 C 
ATOM     42  H5  UNL     1      44.488  34.647  36.755  1.00  0.00     0.153 HD
HETATM   43  C26 UNL     1      46.022  33.193  38.334  1.00  0.00     0.291 C 
ENDBRANCH  29  30
ENDBRANCH  28  29
ENDBRANCH  27  28
ENDBRANCH  26  27
ENDBRANCH  25  26
ENDBRANCH  24  25
ENDBRANCH  23  24
ENDBRANCH   1  23
TORSDOF 15
ENDMDL
MODEL 4
REMARK VINA RESULT: -6.070196395      2.139      4.054
REMARK  15 active torsions:
REMARK  status: ('A' for Active; 'I' for Inactive)
REMARK    1  A    between atoms: C2_2  and  C4_4 
REMARK    2  A    between atoms: C5_5  and  C6_6 
REMARK    3  A    between atoms: C8_8  and  C9_9 
REMARK    4  A    between atoms: C9_9  and  N1_10 
REMARK    5  A    between atoms: C9_9  and  N2_14 
REMARK    6  A    between atoms: C12_20  and  O1_21 
REMARK    7  A    between atoms: O1_21  and  C13_22 
REMARK    8  A    between atoms: C13_22  and  C14_23 
REMARK    9  A    between atoms: C14_23  and  O2_24 
REMARK   10  A    between atoms: O2_24  and  C15_25 
REMARK   11  A    between atoms: C15_25  and  C16_26 
REMARK   12  A    between atoms: C16_26  and  O3_27 
REMARK   13  A    between atoms: O3_27  and  C17_28 
REMARK   14  A    between atoms: C17_28  and  C18_29 
REMARK   15  A    between atoms: C18_29  and  N3_30 
ROOT
HETATM    1  C13 UNL     1      53.555  33.961  38.419  1.00  0.00     0.201 C 
ENDROOT
BRANCH   1   2
HETATM    2  O1  UNL     1      54.286  33.099  37.653  1.00  0.00    -0.348 OA
BRANCH   2   3
HETATM    3  C12 UNL     1      54.946  33.283  36.480  1.00  0.00     0.087 A 
HETATM    4  C6  UNL     1      54.305  32.834  35.320  1.00  0.00     0.051 A 
HETATM    5  C7  UNL     1      54.879  32.985  34.044  1.00  0.00     0.034 A 
HETATM    6  C8  UNL     1      56.108  33.593  34.002  1.00  0.00     0.000 A 
HETATM    7  C10 UNL     1      56.747  34.031  35.131  1.00  0.00     0.014 A 
HETATM    8  C11 UNL     1      56.188  33.886  36.381  1.00  0.00     0.039 A 
BRANCH   4   9
HETATM    9  C5  UNL     1      53.043  32.168  35.435  1.00  0.00    -0.064 C 
HETATM   10  C4  UNL     1      51.947  31.615  35.557  1.00  0.00    -0.097 C 
BRANCH  10  11
HETATM   11  C2  UNL     1      50.648  30.996  35.724  1.00  0.00     0.057 C 
HETATM   12  C1  UNL     1      50.728  29.717  36.503  1.00  0.00     0.023 C 
HETATM   13  C3  UNL     1      49.963  30.754  34.378  1.00  0.00     0.023 C 
ENDBRANCH  10  11
ENDBRANCH   4   9
BRANCH   6  14
HETATM   14  C9  UNL     1      56.784  33.813  32.669  1.00  0.00     0.411 C 
BRANCH  14  15
HETATM   15  N1  UNL     1      58.100  34.423  32.871  1.00  0.00    -0.046 N 
ATOM     16  H13 UNL     1      58.116  35.402  32.583  1.00  0.00     0.277 HD
ATOM     17  H12 UNL     1      58.313  34.554  33.859  1.00  0.00     0.277 HD
ATOM     18  H11 UNL     1      58.815  33.872  32.395  1.00  0.00     0.277 HD
ENDBRANCH  14  15
BRANCH  14  19
HETATM   19  N2  UNL     1      56.914  32.542  31.971  1.00  0.00    -0.046 N 
ATOM     20  H23 UNL     1      56.338  32.504  31.130  1.00  0.00     0.277 HD
ATOM     21  H22 UNL     1      57.827  32.438  31.529  1.00  0.00     0.277 HD
ATOM     22  H21 UNL     1      56.707  31.776  32.613  1.00  0.00     0.277 HD
ENDBRANCH  14  19
ENDBRANCH   6  14
ENDBRANCH   2   3
ENDBRANCH   1   2
BRANCH   1  23
HETATM   23  C14 UNL     1      52.199  33.967  38.787  1.00  0.00     0.194 C 
BRANCH  23  24
HETATM   24  O2  UNL     1      52.059  33.811  40.230  1.00  0.00    -0.387 OA
BRANCH  24  25
HETATM   25  C15 UNL     1      52.331  32.498  40.541  1.00  0.00     0.193 C 
BRANCH  25  26
HETATM   26  C16 UNL     1      51.412  31.458  39.963  1.00  0.00     0.193 C 
BRANCH  26  27
HETATM   27  O3  UNL     1      50.103  31.742  40.196  1.00  0.00    -0.387 OA
BRANCH  27  28
HETATM   28  C17 UNL     1      49.157  31.587  39.260  1.00  0.00     0.198 C 
BRANCH  28  29
HETATM   29  C18 UNL     1      48.652  32.876  38.629  1.00  0.00     0.298 C 
BRANCH  29  30
HETATM   30  N3  UNL     1      47.856  32.618  37.461  1.00  0.00     0.093 N 
HETATM   31  C19 UNL     1      48.126  33.508  36.407  1.00  0.00     0.300 C 
HETATM   32  C20 UNL     1      48.836  34.803  36.746  1.00  0.00     0.262 C 
HETATM   33  N4  UNL     1      47.901  35.875  36.968  1.00  0.00    -0.073 N 
HETATM   34  C21 UNL     1      47.254  36.264  35.734  1.00  0.00     0.232 C 
ATOM     35  H42 UNL     1      47.220  35.637  37.690  1.00  0.00     0.277 HD
ATOM     36  H41 UNL     1      48.343  36.670  37.428  1.00  0.00     0.277 HD
HETATM   37  C22 UNL     1      45.769  36.290  35.831  1.00  0.00     0.029 C 
HETATM   38  C23 UNL     1      45.229  36.787  37.146  1.00  0.00     0.021 C 
HETATM   39  C24 UNL     1      45.308  35.802  38.269  1.00  0.00     0.113 C 
HETATM   40  N5  UNL     1      45.257  34.473  37.783  1.00  0.00    -0.419 N 
HETATM   41  C25 UNL     1      45.801  33.453  38.605  1.00  0.00     0.144 C 
ATOM     42  H5  UNL     1      44.845  34.257  36.875  1.00  0.00     0.153 HD
HETATM   43  C26 UNL     1      46.474  32.399  37.799  1.00  0.00     0.291 C 
ENDBRANCH  29  30
ENDBRANCH  28  29
ENDBRANCH  27  28
ENDBRANCH  26  27
ENDBRANCH  25  26
ENDBRANCH  24  25
ENDBRANCH  23  24
ENDBRANCH   1  23
TORSDOF 15
ENDMDL
MODEL 5
REMARK VINA RESULT: -6.036715722      1.986      4.626
REMARK  15 active torsions:
REMARK  status: ('A' for Active; 'I' for Inactive)
REMARK    1  A    between atoms: C2_2  and  C4_4 
REMARK    2  A    between atoms: C5_5  and  C6_6 
REMARK    3  A    between atoms: C8_8  and  C9_9 
REMARK    4  A    between atoms: C9_9  and  N1_10 
REMARK    5  A    between atoms: C9_9  and  N2_14 
REMARK    6  A    between atoms: C12_20  and  O1_21 
REMARK    7  A    between atoms: O1_21  and  C13_22 
REMARK    8  A    between atoms: C13_22  and  C14_23 
REMARK    9  A    between atoms: C14_23  and  O2_24 
REMARK   10  A    between atoms: O2_24  and  C15_25 
REMARK   11  A    between atoms: C15_25  and  C16_26 
REMARK   12  A    between atoms: C16_26  and  O3_27 
REMARK   13  A    between atoms: O3_27  and  C17_28 
REMARK   14  A    between atoms: C17_28  and  C18_29 
REMARK   15  A    between atoms: C18_29  and  N3_30 
ROOT
HETATM    1  C13 UNL     1      52.028  33.628  39.072  1.00  0.00     0.201 C 
ENDROOT
BRANCH   1   2
HETATM    2  O1  UNL     1      52.673  34.473  38.214  1.00  0.00    -0.348 OA
BRANCH   2   3
HETATM    3  C12 UNL     1      53.589  34.232  37.240  1.00  0.00     0.087 A 
HETATM    4  C6  UNL     1      53.497  35.013  36.083  1.00  0.00     0.051 A 
HETATM    5  C7  UNL     1      54.400  34.870  35.012  1.00  0.00     0.034 A 
HETATM    6  C8  UNL     1      55.373  33.917  35.166  1.00  0.00     0.000 A 
HETATM    7  C10 UNL     1      55.469  33.143  36.291  1.00  0.00     0.014 A 
HETATM    8  C11 UNL     1      54.588  33.281  37.341  1.00  0.00     0.039 A 
BRANCH   4   9
HETATM    9  C5  UNL     1      52.431  35.962  35.966  1.00  0.00    -0.064 C 
HETATM   10  C4  UNL     1      51.533  36.800  35.851  1.00  0.00    -0.097 C 
BRANCH  10  11
HETATM   11  C2  UNL     1      50.503  37.806  35.692  1.00  0.00     0.057 C 
HETATM   12  C1  UNL     1      49.718  37.615  34.428  1.00  0.00     0.023 C 
HETATM   13  C3  UNL     1      51.086  39.220  35.744  1.00  0.00     0.023 C 
ENDBRANCH  10  11
ENDBRANCH   4   9
BRANCH   6  14
HETATM   14  C9  UNL     1      56.395  33.715  34.072  1.00  0.00     0.411 C 
BRANCH  14  15
HETATM   15  N1  UNL     1      55.777  33.039  32.929  1.00  0.00    -0.046 N 
ATOM     16  H13 UNL     1      54.948  32.508  33.200  1.00  0.00     0.277 HD
ATOM     17  H12 UNL     1      55.330  33.698  32.292  1.00  0.00     0.277 HD
ATOM     18  H11 UNL     1      56.466  32.455  32.455  1.00  0.00     0.277 HD
ENDBRANCH  14  15
BRANCH  14  19
HETATM   19  N2  UNL     1      56.939  35.003  33.667  1.00  0.00    -0.046 N 
ATOM     20  H23 UNL     1      56.268  35.760  33.792  1.00  0.00     0.277 HD
ATOM     21  H22 UNL     1      57.657  35.336  34.310  1.00  0.00     0.277 HD
ATOM     22  H21 UNL     1      57.279  34.945  32.707  1.00  0.00     0.277 HD
ENDBRANCH  14  19
ENDBRANCH   6  14
ENDBRANCH   2   3
ENDBRANCH   1   2
BRANCH   1  23
HETATM   23  C14 UNL     1      52.423  33.052  40.290  1.00  0.00     0.194 C 
BRANCH  23  24
HETATM   24  O2  UNL     1      52.331  31.599  40.223  1.00  0.00    -0.387 OA
BRANCH  24  25
HETATM   25  C15 UNL     1      51.308  31.280  39.359  1.00  0.00     0.193 C 
BRANCH  25  26
HETATM   26  C16 UNL     1      50.112  30.585  39.947  1.00  0.00     0.193 C 
BRANCH  26  27
HETATM   27  O3  UNL     1      49.031  30.635  39.122  1.00  0.00    -0.387 OA
BRANCH  27  28
HETATM   28  C17 UNL     1      49.146  30.811  37.800  1.00  0.00     0.198 C 
BRANCH  28  29
HETATM   29  C18 UNL     1      48.261  31.900  37.211  1.00  0.00     0.298 C 
BRANCH  29  30
HETATM   30  N3  UNL     1      48.736  33.212  37.555  1.00  0.00     0.093 N 
HETATM   31  C19 UNL     1      47.881  33.888  38.444  1.00  0.00     0.300 C 
HETATM   32  C20 UNL     1      46.458  33.382  38.571  1.00  0.00     0.262 C 
HETATM   33  N4  UNL     1      45.565  34.094  37.694  1.00  0.00    -0.073 N 
HETATM   34  C21 UNL     1      45.382  35.459  38.137  1.00  0.00     0.232 C 
ATOM     35  H42 UNL     1      45.877  34.052  36.724  1.00  0.00     0.277 HD
ATOM     36  H41 UNL     1      44.674  33.609  37.592  1.00  0.00     0.277 HD
HETATM   37  C22 UNL     1      45.623  36.462  37.065  1.00  0.00     0.029 C 
HETATM   38  C23 UNL     1      45.150  36.051  35.694  1.00  0.00     0.021 C 
HETATM   39  C24 UNL     1      46.029  35.062  34.999  1.00  0.00     0.113 C 
HETATM   40  N5  UNL     1      47.373  35.189  35.426  1.00  0.00    -0.419 N 
HETATM   41  C25 UNL     1      48.221  34.062  35.266  1.00  0.00     0.144 C 
ATOM     42  H5  UNL     1      47.720  36.058  35.833  1.00  0.00     0.153 HD
HETATM   43  C26 UNL     1      49.183  33.935  36.394  1.00  0.00     0.291 C 
ENDBRANCH  29  30
ENDBRANCH  28  29
ENDBRANCH  27  28
ENDBRANCH  26  27
ENDBRANCH  25  26
ENDBRANCH  24  25
ENDBRANCH  23  24
ENDBRANCH   1  23
TORSDOF 15
ENDMDL
