MODEL 1
REMARK VINA RESULT: -6.417812312      0.000      0.000
REMARK  17 active torsions:
REMARK  status: ('A' for Active; 'I' for Inactive)
REMARK    1  A    between atoms: C2_2  and  C3_3 
REMARK    2  A    between atoms: C3_3  and  C4_4 
REMARK    3  A    between atoms: C6_6  and  N1_7 
REMARK    4  A    between atoms: N1_7  and  C7_9 
REMARK    5  A    between atoms: C7_9  and  C8_10 
REMARK    6  A    between atoms: C9_11  and  C10_12 
REMARK    7  A    between atoms: C10_12  and  C13_15 
REMARK    8  A    between atoms: C13_15  and  N2_16 
REMARK    9  A    between atoms: N2_16  and  N3_18 
REMARK   10  A    between atoms: N3_18  and  N4_19 
REMARK   11  A    between atoms: N6_26  and  C15_27 
REMARK   12  A    between atoms: C15_27  and  O2_28 
REMARK   13  A    between atoms: O2_28  and  C16_29 
REMARK   14  A    between atoms: C19_32  and  C20_33 
REMARK   15  A    between atoms: C20_33  and  O3_34 
REMARK   16  A    between atoms: C21_36  and  O4_37 
REMARK   17  A    between atoms: C22_39  and  O5_40 
ROOT
HETATM    1  C4  UNL     1      51.513  34.061  38.459  1.00  0.00     0.022 A 
HETATM    2  C5  UNL     1      52.901  33.888  38.480  1.00  0.00     0.073 A 
HETATM    3  C6  UNL     1      53.768  34.645  37.726  1.00  0.00     0.106 A 
HETATM    4  N5  UNL     1      53.206  35.593  36.941  1.00  0.00    -0.294 N 
ATOM      5  H5  UNL     1      53.806  36.182  36.363  1.00  0.00     0.172 HD
HETATM    6  C14 UNL     1      51.877  35.775  36.908  1.00  0.00     0.330 A 
HETATM    7  O1  UNL     1      51.403  36.663  36.167  1.00  0.00    -0.246 OA
HETATM    8  N6  UNL     1      51.026  35.021  37.656  1.00  0.00    -0.281 N 
ENDROOT
BRANCH   3   9
HETATM    9  N1  UNL     1      55.044  34.466  37.765  1.00  0.00    -0.373 N 
ATOM     10  H1  UNL     1      55.587  35.016  38.430  1.00  0.00     0.161 HD
BRANCH   9  11
HETATM   11  C7  UNL     1      55.745  33.536  36.926  1.00  0.00     0.148 C 
BRANCH  11  12
HETATM   12  C8  UNL     1      55.031  33.262  35.651  1.00  0.00    -0.011 C 
HETATM   13  C9  UNL     1      54.090  32.349  35.521  1.00  0.00    -0.019 C 
BRANCH  13  14
HETATM   14  C10 UNL     1      53.399  32.103  34.231  1.00  0.00    -0.012 C 
HETATM   15  C11 UNL     1      54.392  31.974  33.119  1.00  0.00     0.021 C 
HETATM   16  C12 UNL     1      52.487  33.285  33.874  1.00  0.00     0.021 C 
BRANCH  14  17
HETATM   17  C13 UNL     1      52.505  30.891  34.268  1.00  0.00     0.168 C 
BRANCH  17  18
HETATM   18  N2  UNL     1      52.238  30.460  35.623  1.00  0.00    -0.252 N 
ATOM     19  H2  UNL     1      52.916  30.630  36.367  1.00  0.00     0.197 HD
BRANCH  18  20
HETATM   20  N3  UNL     1      51.183  29.888  35.858  1.00  0.00    -0.249 NA
BRANCH  20  21
HETATM   21  N4  UNL     1      50.111  29.569  36.377  1.00  0.00    -0.261 N 
ATOM     22  H42 UNL     1      50.324  29.972  37.290  1.00  0.00     0.193 HD
ATOM     23  H41 UNL     1      49.176  29.186  36.517  1.00  0.00     0.193 HD
ENDBRANCH  20  21
ENDBRANCH  18  20
ENDBRANCH  17  18
ENDBRANCH  14  17
ENDBRANCH  13  14
ENDBRANCH  11  12
ENDBRANCH   9  11
ENDBRANCH   3   9
BRANCH   1  24
HETATM   24  C3  UNL     1      50.671  33.200  39.306  1.00  0.00     0.057 C 
BRANCH  24  25
HETATM   25  C2  UNL     1      51.029  31.732  39.208  1.00  0.00     0.002 C 
HETATM   26  C1  UNL     1      50.076  30.897  40.024  1.00  0.00     0.005 C 
ENDBRANCH  24  25
ENDBRANCH   1  24
BRANCH   8  27
HETATM   27  C15 UNL     1      49.584  35.263  37.599  1.00  0.00     0.303 C 
BRANCH  27  28
HETATM   28  O2  UNL     1      49.101  34.979  36.321  1.00  0.00    -0.363 OA
BRANCH  28  29
HETATM   29  C16 UNL     1      47.967  34.211  36.334  1.00  0.00     0.159 C 
HETATM   30  C17 UNL     1      47.367  34.314  37.737  1.00  0.00     0.022 C 
HETATM   31  C18 UNL     1      46.353  35.415  37.830  1.00  0.00     0.013 C 
HETATM   32  C19 UNL     1      46.775  32.951  38.018  1.00  0.00     0.047 C 
HETATM   33  C21 UNL     1      47.768  32.030  37.382  1.00  0.00     0.156 C 
HETATM   34  C22 UNL     1      48.185  32.751  36.137  1.00  0.00     0.176 C 
BRANCH  32  35
HETATM   35  C20 UNL     1      45.388  32.816  37.430  1.00  0.00     0.172 C 
BRANCH  35  36
HETATM   36  O3  UNL     1      44.615  31.896  38.089  1.00  0.00    -0.400 OA
ATOM     37  H3  UNL     1      43.775  32.246  38.362  1.00  0.00     0.209 HD
ENDBRANCH  35  36
ENDBRANCH  32  35
BRANCH  33  38
HETATM   38  O4  UNL     1      47.287  30.754  37.156  1.00  0.00    -0.392 OA
ATOM     39  H4  UNL     1      47.602  30.107  37.776  1.00  0.00     0.210 HD
ENDBRANCH  33  38
BRANCH  34  40
HETATM   40  O5  UNL     1      49.509  32.412  35.875  1.00  0.00    -0.390 OA
ATOM     41  H5  UNL     1      49.637  31.984  35.036  1.00  0.00     0.210 HD
ENDBRANCH  34  40
ENDBRANCH  28  29
ENDBRANCH  27  28
ENDBRANCH   8  27
TORSDOF 17
ENDMDL
MODEL 2
REMARK VINA RESULT: -6.323340601      1.219      2.010
REMARK  17 active torsions:
REMARK  status: ('A' for Active; 'I' for Inactive)
REMARK    1  A    between atoms: C2_2  and  C3_3 
REMARK    2  A    between atoms: C3_3  and  C4_4 
REMARK    3  A    between atoms: C6_6  and  N1_7 
REMARK    4  A    between atoms: N1_7  and  C7_9 
REMARK    5  A    between atoms: C7_9  and  C8_10 
REMARK    6  A    between atoms: C9_11  and  C10_12 
REMARK    7  A    between atoms: C10_12  and  C13_15 
REMARK    8  A    between atoms: C13_15  and  N2_16 
REMARK    9  A    between atoms: N2_16  and  N3_18 
REMARK   10  A    between atoms: N3_18  and  N4_19 
REMARK   11  A    between atoms: N6_26  and  C15_27 
REMARK   12  A    between atoms: C15_27  and  O2_28 
REMARK   13  A    between atoms: O2_28  and  C16_29 
REMARK   14  A    between atoms: C19_32  and  C20_33 
REMARK   15  A    between atoms: C20_33  and  O3_34 
REMARK   16  A    between atoms: C21_36  and  O4_37 
REMARK   17  A    between atoms: C22_39  and  O5_40 
ROOT
HETATM    1  C4  UNL     1      51.880  33.783  39.157  1.00  0.00     0.022 A 
HETATM    2  C5  UNL     1      53.233  33.753  38.804  1.00  0.00     0.073 A 
HETATM    3  C6  UNL     1      53.766  34.517  37.792  1.00  0.00     0.106 A 
HETATM    4  N5  UNL     1      52.903  35.323  37.132  1.00  0.00    -0.294 N 
ATOM      5  H5  UNL     1      53.248  35.910  36.373  1.00  0.00     0.172 HD
HETATM    6  C14 UNL     1      51.601  35.365  37.455  1.00  0.00     0.330 A 
HETATM    7  O1  UNL     1      50.840  36.125  36.818  1.00  0.00    -0.246 OA
HETATM    8  N6  UNL     1      51.081  34.606  38.458  1.00  0.00    -0.281 N 
ENDROOT
BRANCH   3   9
HETATM    9  N1  UNL     1      55.018  34.472  37.487  1.00  0.00    -0.373 N 
ATOM     10  H1  UNL     1      55.613  35.248  37.782  1.00  0.00     0.161 HD
BRANCH   9  11
HETATM   11  C7  UNL     1      55.625  33.395  36.759  1.00  0.00     0.148 C 
BRANCH  11  12
HETATM   12  C8  UNL     1      54.808  32.957  35.596  1.00  0.00    -0.011 C 
HETATM   13  C9  UNL     1      55.126  33.209  34.342  1.00  0.00    -0.019 C 
BRANCH  13  14
HETATM   14  C10 UNL     1      54.285  32.757  33.206  1.00  0.00    -0.012 C 
HETATM   15  C11 UNL     1      55.043  31.800  32.340  1.00  0.00     0.021 C 
HETATM   16  C12 UNL     1      53.897  33.946  32.316  1.00  0.00     0.021 C 
BRANCH  14  17
HETATM   17  C13 UNL     1      52.987  32.134  33.650  1.00  0.00     0.168 C 
BRANCH  17  18
HETATM   18  N2  UNL     1      53.115  30.707  33.849  1.00  0.00    -0.252 N 
ATOM     19  H2  UNL     1      53.625  30.131  33.180  1.00  0.00     0.197 HD
BRANCH  18  20
HETATM   20  N3  UNL     1      52.598  30.206  34.838  1.00  0.00    -0.249 NA
BRANCH  20  21
HETATM   21  N4  UNL     1      52.362  29.886  36.005  1.00  0.00    -0.261 N 
ATOM     22  H42 UNL     1      52.946  30.612  36.421  1.00  0.00     0.193 HD
ATOM     23  H41 UNL     1      51.992  29.404  36.824  1.00  0.00     0.193 HD
ENDBRANCH  20  21
ENDBRANCH  18  20
ENDBRANCH  17  18
ENDBRANCH  14  17
ENDBRANCH  13  14
ENDBRANCH  11  12
ENDBRANCH   9  11
ENDBRANCH   3   9
BRANCH   1  24
HETATM   24  C3  UNL     1      51.408  32.928  40.259  1.00  0.00     0.057 C 
BRANCH  24  25
HETATM   25  C2  UNL     1      51.541  31.448  39.966  1.00  0.00     0.002 C 
HETATM   26  C1  UNL     1      50.187  30.786  39.947  1.00  0.00     0.005 C 
ENDBRANCH  24  25
ENDBRANCH   1  24
BRANCH   8  27
HETATM   27  C15 UNL     1      49.657  34.694  38.786  1.00  0.00     0.303 C 
BRANCH  27  28
HETATM   28  O2  UNL     1      48.887  34.362  37.671  1.00  0.00    -0.363 OA
BRANCH  28  29
HETATM   29  C16 UNL     1      48.433  33.070  37.698  1.00  0.00     0.159 C 
HETATM   30  C17 UNL     1      48.241  32.628  36.246  1.00  0.00     0.022 C 
HETATM   31  C18 UNL     1      49.464  31.949  35.704  1.00  0.00     0.013 C 
HETATM   32  C19 UNL     1      47.030  31.722  36.262  1.00  0.00     0.047 C 
HETATM   33  C21 UNL     1      46.143  32.386  37.267  1.00  0.00     0.156 C 
HETATM   34  C22 UNL     1      47.091  32.882  38.316  1.00  0.00     0.176 C 
BRANCH  32  35
HETATM   35  C20 UNL     1      47.400  30.308  36.649  1.00  0.00     0.172 C 
BRANCH  35  36
HETATM   36  O3  UNL     1      46.343  29.439  36.573  1.00  0.00    -0.400 OA
ATOM     37  H3  UNL     1      46.511  28.700  36.001  1.00  0.00     0.209 HD
ENDBRANCH  35  36
ENDBRANCH  32  35
BRANCH  33  38
HETATM   38  O4  UNL     1      45.140  31.571  37.757  1.00  0.00    -0.392 OA
ATOM     39  H4  UNL     1      44.596  31.180  37.084  1.00  0.00     0.210 HD
ENDBRANCH  33  38
BRANCH  34  40
HETATM   40  O5  UNL     1      46.554  34.046  38.857  1.00  0.00    -0.390 OA
ATOM     41  H5  UNL     1      46.951  34.842  38.524  1.00  0.00     0.210 HD
ENDBRANCH  34  40
ENDBRANCH  28  29
ENDBRANCH  27  28
ENDBRANCH   8  27
TORSDOF 17
ENDMDL
MODEL 3
REMARK VINA RESULT: -6.199573381      1.307      1.675
REMARK  17 active torsions:
REMARK  status: ('A' for Active; 'I' for Inactive)
REMARK    1  A    between atoms: C2_2  and  C3_3 
REMARK    2  A    between atoms: C3_3  and  C4_4 
REMARK    3  A    between atoms: C6_6  and  N1_7 
REMARK    4  A    between atoms: N1_7  and  C7_9 
REMARK    5  A    between atoms: C7_9  and  C8_10 
REMARK    6  A    between atoms: C9_11  and  C10_12 
REMARK    7  A    between atoms: C10_12  and  C13_15 
REMARK    8  A    between atoms: C13_15  and  N2_16 
REMARK    9  A    between atoms: N2_16  and  N3_18 
REMARK   10  A    between atoms: N3_18  and  N4_19 
REMARK   11  A    between atoms: N6_26  and  C15_27 
REMARK   12  A    between atoms: C15_27  and  O2_28 
REMARK   13  A    between atoms: O2_28  and  C16_29 
REMARK   14  A    between atoms: C19_32  and  C20_33 
REMARK   15  A    between atoms: C20_33  and  O3_34 
REMARK   16  A    between atoms: C21_36  and  O4_37 
REMARK   17  A    between atoms: C22_39  and  O5_40 
ROOT
HETATM    1  C4  UNL     1      51.294  34.094  38.371  1.00  0.00     0.022 A 
HETATM    2  C5  UNL     1      52.678  33.900  38.317  1.00  0.00     0.073 A 
HETATM    3  C6  UNL     1      53.520  34.676  37.555  1.00  0.00     0.106 A 
HETATM    4  N5  UNL     1      52.938  35.664  36.838  1.00  0.00    -0.294 N 
ATOM      5  H5  UNL     1      53.519  36.268  36.256  1.00  0.00     0.172 HD
HETATM    6  C14 UNL     1      51.611  35.866  36.876  1.00  0.00     0.330 A 
HETATM    7  O1  UNL     1      51.117  36.791  36.196  1.00  0.00    -0.246 OA
HETATM    8  N6  UNL     1      50.785  35.093  37.633  1.00  0.00    -0.281 N 
ENDROOT
BRANCH   3   9
HETATM    9  N1  UNL     1      54.794  34.477  37.525  1.00  0.00    -0.373 N 
ATOM     10  H1  UNL     1      55.402  35.191  37.928  1.00  0.00     0.161 HD
BRANCH   9  11
HETATM   11  C7  UNL     1      55.407  33.310  36.956  1.00  0.00     0.148 C 
BRANCH  11  12
HETATM   12  C8  UNL     1      55.121  33.161  35.505  1.00  0.00    -0.011 C 
HETATM   13  C9  UNL     1      54.173  32.385  35.021  1.00  0.00    -0.019 C 
BRANCH  13  14
HETATM   14  C10 UNL     1      53.917  32.261  33.565  1.00  0.00    -0.012 C 
HETATM   15  C11 UNL     1      53.513  30.862  33.220  1.00  0.00     0.021 C 
HETATM   16  C12 UNL     1      55.193  32.563  32.767  1.00  0.00     0.021 C 
BRANCH  14  17
HETATM   17  C13 UNL     1      52.881  33.235  33.067  1.00  0.00     0.168 C 
BRANCH  17  18
HETATM   18  N2  UNL     1      51.775  33.363  33.991  1.00  0.00    -0.252 N 
ATOM     19  H2  UNL     1      51.626  32.669  34.724  1.00  0.00     0.197 HD
BRANCH  18  20
HETATM   20  N3  UNL     1      51.023  34.320  33.875  1.00  0.00    -0.249 NA
BRANCH  20  21
HETATM   21  N4  UNL     1      50.009  35.004  33.718  1.00  0.00    -0.261 N 
ATOM     22  H42 UNL     1      50.348  35.800  34.259  1.00  0.00     0.193 HD
ATOM     23  H41 UNL     1      49.083  35.315  33.424  1.00  0.00     0.193 HD
ENDBRANCH  20  21
ENDBRANCH  18  20
ENDBRANCH  17  18
ENDBRANCH  14  17
ENDBRANCH  13  14
ENDBRANCH  11  12
ENDBRANCH   9  11
ENDBRANCH   3   9
BRANCH   1  24
HETATM   24  C3  UNL     1      50.479  33.210  39.222  1.00  0.00     0.057 C 
BRANCH  24  25
HETATM   25  C2  UNL     1      50.864  31.750  39.107  1.00  0.00     0.002 C 
HETATM   26  C1  UNL     1      49.960  30.894  39.956  1.00  0.00     0.005 C 
ENDBRANCH  24  25
ENDBRANCH   1  24
BRANCH   8  27
HETATM   27  C15 UNL     1      49.346  35.358  37.655  1.00  0.00     0.303 C 
BRANCH  27  28
HETATM   28  O2  UNL     1      48.804  35.169  36.383  1.00  0.00    -0.363 OA
BRANCH  28  29
HETATM   29  C16 UNL     1      47.694  34.366  36.385  1.00  0.00     0.159 C 
HETATM   30  C17 UNL     1      47.156  34.344  37.817  1.00  0.00     0.022 C 
HETATM   31  C18 UNL     1      46.115  35.402  38.036  1.00  0.00     0.013 C 
HETATM   32  C19 UNL     1      46.616  32.946  38.018  1.00  0.00     0.047 C 
HETATM   33  C21 UNL     1      47.606  32.108  37.272  1.00  0.00     0.156 C 
HETATM   34  C22 UNL     1      47.946  32.933  36.069  1.00  0.00     0.176 C 
BRANCH  32  35
HETATM   35  C20 UNL     1      45.209  32.810  37.481  1.00  0.00     0.172 C 
BRANCH  35  36
HETATM   36  O3  UNL     1      44.497  31.810  38.091  1.00  0.00    -0.400 OA
ATOM     37  H3  UNL     1      43.851  32.137  38.704  1.00  0.00     0.209 HD
ENDBRANCH  35  36
ENDBRANCH  32  35
BRANCH  33  38
HETATM   38  O4  UNL     1      47.153  30.837  36.970  1.00  0.00    -0.392 OA
ATOM     39  H4  UNL     1      47.697  30.140  37.316  1.00  0.00     0.210 HD
ENDBRANCH  33  38
BRANCH  34  40
HETATM   40  O5  UNL     1      49.266  32.657  35.726  1.00  0.00    -0.390 OA
ATOM     41  H5  UNL     1      49.904  33.162  36.217  1.00  0.00     0.210 HD
ENDBRANCH  34  40
ENDBRANCH  28  29
ENDBRANCH  27  28
ENDBRANCH   8  27
TORSDOF 17
ENDMDL
MODEL 4
REMARK VINA RESULT: -6.146461875      1.793      2.619
REMARK  17 active torsions:
REMARK  status: ('A' for Active; 'I' for Inactive)
REMARK    1  A    between atoms: C2_2  and  C3_3 
REMARK    2  A    between atoms: C3_3  and  C4_4 
REMARK    3  A    between atoms: C6_6  and  N1_7 
REMARK    4  A    between atoms: N1_7  and  C7_9 
REMARK    5  A    between atoms: C7_9  and  C8_10 
REMARK    6  A    between atoms: C9_11  and  C10_12 
REMARK    7  A    between atoms: C10_12  and  C13_15 
REMARK    8  A    between atoms: C13_15  and  N2_16 
REMARK    9  A    between atoms: N2_16  and  N3_18 
REMARK   10  A    between atoms: N3_18  and  N4_19 
REMARK   11  A    between atoms: N6_26  and  C15_27 
REMARK   12  A    between atoms: C15_27  and  O2_28 
REMARK   13  A    between atoms: O2_28  and  C16_29 
REMARK   14  A    between atoms: C19_32  and  C20_33 
REMARK   15  A    between atoms: C20_33  and  O3_34 
REMARK   16  A    between atoms: C21_36  and  O4_37 
REMARK   17  A    between atoms: C22_39  and  O5_40 
ROOT
HETATM    1  C4  UNL     1      51.856  33.777  39.159  1.00  0.00     0.022 A 
HETATM    2  C5  UNL     1      53.182  33.748  38.715  1.00  0.00     0.073 A 
HETATM    3  C6  UNL     1      53.646  34.513  37.671  1.00  0.00     0.106 A 
HETATM    4  N5  UNL     1      52.740  35.320  37.072  1.00  0.00    -0.294 N 
ATOM      5  H5  UNL     1      53.034  35.909  36.292  1.00  0.00     0.172 HD
HETATM    6  C14 UNL     1      51.463  35.363  37.482  1.00  0.00     0.330 A 
HETATM    7  O1  UNL     1      50.661  36.123  36.899  1.00  0.00    -0.246 OA
HETATM    8  N6  UNL     1      51.012  34.602  38.517  1.00  0.00    -0.281 N 
ENDROOT
BRANCH   3   9
HETATM    9  N1  UNL     1      54.875  34.468  37.282  1.00  0.00    -0.373 N 
ATOM     10  H1  UNL     1      55.436  35.316  37.365  1.00  0.00     0.161 HD
BRANCH   9  11
HETATM   11  C7  UNL     1      55.498  33.295  36.740  1.00  0.00     0.148 C 
BRANCH  11  12
HETATM   12  C8  UNL     1      55.202  33.103  35.296  1.00  0.00    -0.011 C 
HETATM   13  C9  UNL     1      54.171  32.418  34.845  1.00  0.00    -0.019 C 
BRANCH  13  14
HETATM   14  C10 UNL     1      53.908  32.247  33.395  1.00  0.00    -0.012 C 
HETATM   15  C11 UNL     1      53.401  30.868  33.112  1.00  0.00     0.021 C 
HETATM   16  C12 UNL     1      55.204  32.415  32.589  1.00  0.00     0.021 C 
BRANCH  14  17
HETATM   17  C13 UNL     1      52.948  33.272  32.849  1.00  0.00     0.168 C 
BRANCH  17  18
HETATM   18  N2  UNL     1      52.063  33.779  33.874  1.00  0.00    -0.252 N 
ATOM     19  H2  UNL     1      51.649  33.151  34.563  1.00  0.00     0.197 HD
BRANCH  18  20
HETATM   20  N3  UNL     1      51.822  34.978  33.898  1.00  0.00    -0.249 NA
BRANCH  20  21
HETATM   21  N4  UNL     1      51.222  36.056  33.883  1.00  0.00    -0.261 N 
ATOM     22  H42 UNL     1      50.309  35.652  33.671  1.00  0.00     0.193 HD
ATOM     23  H41 UNL     1      51.016  37.053  33.936  1.00  0.00     0.193 HD
ENDBRANCH  20  21
ENDBRANCH  18  20
ENDBRANCH  17  18
ENDBRANCH  14  17
ENDBRANCH  13  14
ENDBRANCH  11  12
ENDBRANCH   9  11
ENDBRANCH   3   9
BRANCH   1  24
HETATM   24  C3  UNL     1      51.458  32.921  40.289  1.00  0.00     0.057 C 
BRANCH  24  25
HETATM   25  C2  UNL     1      51.587  31.442  39.991  1.00  0.00     0.002 C 
HETATM   26  C1  UNL     1      50.229  30.790  39.944  1.00  0.00     0.005 C 
ENDBRANCH  24  25
ENDBRANCH   1  24
BRANCH   8  27
HETATM   27  C15 UNL     1      49.613  34.690  38.941  1.00  0.00     0.303 C 
BRANCH  27  28
HETATM   28  O2  UNL     1      48.769  34.395  37.869  1.00  0.00    -0.363 OA
BRANCH  28  29
HETATM   29  C16 UNL     1      48.340  33.094  37.865  1.00  0.00     0.159 C 
HETATM   30  C17 UNL     1      48.257  32.651  36.404  1.00  0.00     0.022 C 
HETATM   31  C18 UNL     1      49.527  31.997  35.947  1.00  0.00     0.013 C 
HETATM   32  C19 UNL     1      47.067  31.720  36.337  1.00  0.00     0.047 C 
HETATM   33  C21 UNL     1      46.100  32.364  37.279  1.00  0.00     0.156 C 
HETATM   34  C22 UNL     1      46.964  32.878  38.390  1.00  0.00     0.176 C 
BRANCH  32  35
HETATM   35  C20 UNL     1      47.439  30.313  36.749  1.00  0.00     0.172 C 
BRANCH  35  36
HETATM   36  O3  UNL     1      46.454  29.399  36.478  1.00  0.00    -0.400 OA
ATOM     37  H3  UNL     1      46.398  28.711  37.130  1.00  0.00     0.209 HD
ENDBRANCH  35  36
ENDBRANCH  32  35
BRANCH  33  38
HETATM   38  O4  UNL     1      45.083  31.528  37.701  1.00  0.00    -0.392 OA
ATOM     39  H4  UNL     1      45.279  31.053  38.500  1.00  0.00     0.210 HD
ENDBRANCH  33  38
BRANCH  34  40
HETATM   40  O5  UNL     1      46.367  34.030  38.894  1.00  0.00    -0.390 OA
ATOM     41  H5  UNL     1      45.658  34.361  38.356  1.00  0.00     0.210 HD
ENDBRANCH  34  40
ENDBRANCH  28  29
ENDBRANCH  27  28
ENDBRANCH   8  27
TORSDOF 17
ENDMDL
MODEL 5
REMARK VINA RESULT: -6.119593302      2.588      4.446
REMARK  17 active torsions:
REMARK  status: ('A' for Active; 'I' for Inactive)
REMARK    1  A    between atoms: C2_2  and  C3_3 
REMARK    2  A    between atoms: C3_3  and  C4_4 
REMARK    3  A    between atoms: C6_6  and  N1_7 
REMARK    4  A    between atoms: N1_7  and  C7_9 
REMARK    5  A    between atoms: C7_9  and  C8_10 
REMARK    6  A    between atoms: C9_11  and  C10_12 
REMARK    7  A    between atoms: C10_12  and  C13_15 
REMARK    8  A    between atoms: C13_15  and  N2_16 
REMARK    9  A    between atoms: N2_16  and  N3_18 
REMARK   10  A    between atoms: N3_18  and  N4_19 
REMARK   11  A    between atoms: N6_26  and  C15_27 
REMARK   12  A    between atoms: C15_27  and  O2_28 
REMARK   13  A    between atoms: O2_28  and  C16_29 
REMARK   14  A    between atoms: C19_32  and  C20_33 
REMARK   15  A    between atoms: C20_33  and  O3_34 
REMARK   16  A    between atoms: C21_36  and  O4_37 
REMARK   17  A    between atoms: C22_39  and  O5_40 
ROOT
HETATM    1  C4  UNL     1      49.205  31.930  37.725  1.00  0.00     0.022 A 
HETATM    2  C5  UNL     1      50.564  31.595  37.728  1.00  0.00     0.073 A 
HETATM    3  C6  UNL     1      51.427  31.951  38.737  1.00  0.00     0.106 A 
HETATM    4  N5  UNL     1      50.894  32.661  39.758  1.00  0.00    -0.294 N 
ATOM      5  H5  UNL     1      51.493  32.950  40.532  1.00  0.00     0.172 HD
HETATM    6  C14 UNL     1      49.593  32.993  39.774  1.00  0.00     0.330 A 
HETATM    7  O1  UNL     1      49.145  33.649  40.738  1.00  0.00    -0.246 OA
HETATM    8  N6  UNL     1      48.745  32.636  38.771  1.00  0.00    -0.281 N 
ENDROOT
BRANCH   3   9
HETATM    9  N1  UNL     1      52.675  31.628  38.716  1.00  0.00    -0.373 N 
ATOM     10  H1  UNL     1      53.198  31.671  39.592  1.00  0.00     0.161 HD
BRANCH   9  11
HETATM   11  C7  UNL     1      53.373  31.213  37.533  1.00  0.00     0.148 C 
BRANCH  11  12
HETATM   12  C8  UNL     1      53.909  32.358  36.751  1.00  0.00    -0.011 C 
HETATM   13  C9  UNL     1      54.728  33.263  37.246  1.00  0.00    -0.019 C 
BRANCH  13  14
HETATM   14  C10 UNL     1      55.243  34.394  36.434  1.00  0.00    -0.012 C 
HETATM   15  C11 UNL     1      56.398  33.952  35.591  1.00  0.00     0.021 C 
HETATM   16  C12 UNL     1      55.762  35.517  37.343  1.00  0.00     0.021 C 
BRANCH  14  17
HETATM   17  C13 UNL     1      54.183  35.023  35.568  1.00  0.00     0.168 C 
BRANCH  17  18
HETATM   18  N2  UNL     1      53.378  35.971  36.307  1.00  0.00    -0.252 N 
ATOM     19  H2  UNL     1      53.754  36.883  36.567  1.00  0.00     0.197 HD
BRANCH  18  20
HETATM   20  N3  UNL     1      52.237  35.656  36.614  1.00  0.00    -0.249 NA
BRANCH  20  21
HETATM   21  N4  UNL     1      51.268  35.211  37.234  1.00  0.00    -0.261 N 
ATOM     22  H42 UNL     1      50.960  34.585  36.489  1.00  0.00     0.193 HD
ATOM     23  H41 UNL     1      50.578  35.042  37.965  1.00  0.00     0.193 HD
ENDBRANCH  20  21
ENDBRANCH  18  20
ENDBRANCH  17  18
ENDBRANCH  14  17
ENDBRANCH  13  14
ENDBRANCH  11  12
ENDBRANCH   9  11
ENDBRANCH   3   9
BRANCH   1  24
HETATM   24  C3  UNL     1      48.362  31.497  36.598  1.00  0.00     0.057 C 
BRANCH  24  25
HETATM   25  C2  UNL     1      48.027  30.021  36.636  1.00  0.00     0.002 C 
HETATM   26  C1  UNL     1      48.732  29.287  35.525  1.00  0.00     0.005 C 
ENDBRANCH  24  25
ENDBRANCH   1  24
BRANCH   8  27
HETATM   27  C15 UNL     1      47.331  33.007  38.836  1.00  0.00     0.303 C 
BRANCH  27  28
HETATM   28  O2  UNL     1      47.186  34.380  38.632  1.00  0.00    -0.363 OA
BRANCH  28  29
HETATM   29  C16 UNL     1      46.420  34.682  37.538  1.00  0.00     0.159 C 
HETATM   30  C17 UNL     1      47.273  35.554  36.615  1.00  0.00     0.022 C 
HETATM   31  C18 UNL     1      48.006  34.733  35.595  1.00  0.00     0.013 C 
HETATM   32  C19 UNL     1      46.308  36.536  35.989  1.00  0.00     0.047 C 
HETATM   33  C21 UNL     1      45.373  36.832  37.117  1.00  0.00     0.156 C 
HETATM   34  C22 UNL     1      45.218  35.515  37.815  1.00  0.00     0.176 C 
BRANCH  32  35
HETATM   35  C20 UNL     1      45.610  35.939  34.788  1.00  0.00     0.172 C 
BRANCH  35  36
HETATM   36  O3  UNL     1      45.033  36.884  33.980  1.00  0.00    -0.400 OA
ATOM     37  H3  UNL     1      45.477  36.979  33.146  1.00  0.00     0.209 HD
ENDBRANCH  35  36
ENDBRANCH  32  35
BRANCH  33  38
HETATM   38  O4  UNL     1      44.176  37.401  36.722  1.00  0.00    -0.392 OA
ATOM     39  H4  UNL     1      43.447  36.793  36.701  1.00  0.00     0.210 HD
ENDBRANCH  33  38
BRANCH  34  40
HETATM   40  O5  UNL     1      45.013  35.774  39.167  1.00  0.00    -0.390 OA
ATOM     41  H5  UNL     1      45.040  34.997  39.715  1.00  0.00     0.210 HD
ENDBRANCH  34  40
ENDBRANCH  28  29
ENDBRANCH  27  28
ENDBRANCH   8  27
TORSDOF 17
ENDMDL
