MODEL 1
REMARK VINA RESULT: -8.002019143      0.000      0.000
REMARK  14 active torsions:
REMARK  status: ('A' for Active; 'I' for Inactive)
REMARK    1  A    between atoms: C2_2  and  N6_27 
REMARK    2  A    between atoms: N1_3  and  C3_5 
REMARK    3  A    between atoms: C3_5  and  C4_6 
REMARK    4  A    between atoms: C4_6  and  N2_7 
REMARK    5  A    between atoms: N2_7  and  C5_8 
REMARK    6  A    between atoms: C6_11  and  C7_12 
REMARK    7  A    between atoms: C10_15  and  O1_16 
REMARK    8  A    between atoms: O1_16  and  C11_17 
REMARK    9  A    between atoms: N6_27  and  C18_29 
REMARK   10  A    between atoms: C20_33  and  N8_34 
REMARK   11  A    between atoms: N8_34  and  C21_36 
REMARK   12  A    between atoms: C21_36  and  C22_37 
REMARK   13  A    between atoms: C22_37  and  C23_38 
REMARK   14  A    between atoms: C23_38  and  N9_39 
ROOT
HETATM    1  C11 UNL     1      10.959  22.904  24.320  1.00  0.00     0.299 C 
HETATM    2  C12 UNL     1      11.552  24.151  24.725  1.00  0.00     0.085 C 
HETATM    3  N4  UNL     1      12.012  25.164  25.041  1.00  0.00    -0.195 NA
ENDROOT
BRANCH   1   4
HETATM    4  O1  UNL     1      11.260  22.517  23.025  1.00  0.00    -0.338 OA
BRANCH   4   5
HETATM    5  C10 UNL     1      12.495  22.381  22.435  1.00  0.00     0.070 A 
HETATM    6  C9  UNL     1      13.061  21.111  22.419  1.00  0.00     0.038 A 
HETATM    7  C8  UNL     1      14.295  20.888  21.848  1.00  0.00     0.018 A 
HETATM    8  C7  UNL     1      15.020  21.913  21.268  1.00  0.00     0.008 A 
HETATM    9  C14 UNL     1      14.464  23.161  21.283  1.00  0.00     0.018 A 
HETATM   10  C13 UNL     1      13.208  23.398  21.864  1.00  0.00     0.038 A 
BRANCH   8  11
HETATM   11  C6  UNL     1      16.333  21.659  20.657  1.00  0.00     0.117 A 
HETATM   12  N3  UNL     1      17.299  21.097  21.388  1.00  0.00    -0.316 N 
HETATM   13  C5  UNL     1      18.559  20.813  20.916  1.00  0.00     0.186 A 
ATOM     14  H3  UNL     1      17.089  20.864  22.359  1.00  0.00     0.170 HD
HETATM   15  C16 UNL     1      18.842  21.136  19.577  1.00  0.00     0.012 A 
HETATM   16  C15 UNL     1      17.840  21.710  18.846  1.00  0.00     0.101 A 
HETATM   17  C17 UNL     1      20.175  20.863  18.976  1.00  0.00     0.055 C 
HETATM   18  N5  UNL     1      16.633  21.956  19.387  1.00  0.00    -0.351 N 
ATOM     19  H5  UNL     1      15.915  22.387  18.805  1.00  0.00     0.166 HD
BRANCH  13  20
HETATM   20  N2  UNL     1      19.428  20.300  21.578  1.00  0.00    -0.402 NA
BRANCH  20  21
HETATM   21  C4  UNL     1      20.314  19.532  22.212  1.00  0.00     0.177 C 
BRANCH  21  22
HETATM   22  C3  UNL     1      20.768  19.985  23.599  1.00  0.00     0.180 C 
BRANCH  22  23
HETATM   23  N1  UNL     1      20.111  19.248  24.652  1.00  0.00    -0.374 N 
HETATM   24  C2  UNL     1      20.213  19.592  25.891  1.00  0.00     0.074 C 
HETATM   25  C1  UNL     1      21.013  20.771  26.311  1.00  0.00     0.089 C 
ATOM     26  H1  UNL     1      19.549  18.431  24.410  1.00  0.00     0.161 HD
BRANCH  24  27
HETATM   27  N6  UNL     1      19.558  18.841  26.918  1.00  0.00    -0.331 N 
ATOM     28  H6  UNL     1      19.606  19.143  27.891  1.00  0.00     0.168 HD
BRANCH  27  29
HETATM   29  C18 UNL     1      18.843  17.671  26.562  1.00  0.00     0.138 A 
HETATM   30  C19 UNL     1      19.241  16.386  26.840  1.00  0.00     0.155 A 
HETATM   31  N7  UNL     1      18.317  15.542  26.353  1.00  0.00    -0.198 N 
HETATM   32  C20 UNL     1      17.340  16.283  25.774  1.00  0.00     0.679 A 
ATOM     33  H7  UNL     1      18.345  14.524  26.409  1.00  0.00     0.183 HD
HETATM   34  N10 UNL     1      17.671  17.579  25.906  1.00  0.00    -0.175 N 
ATOM     35  H10 UNL     1      17.122  18.367  25.564  1.00  0.00     0.186 HD
BRANCH  32  36
HETATM   36  N8  UNL     1      16.293  15.779  25.204  1.00  0.00    -0.226 N 
ATOM     37  H8  UNL     1      15.583  15.324  25.778  1.00  0.00     0.177 HD
BRANCH  36  38
HETATM   38  C21 UNL     1      16.108  15.848  23.779  1.00  0.00     0.139 C 
BRANCH  38  39
HETATM   39  C22 UNL     1      14.808  15.153  23.420  1.00  0.00     0.047 C 
BRANCH  39  40
HETATM   40  C23 UNL     1      13.998  15.959  22.454  1.00  0.00     0.231 C 
BRANCH  40  41
HETATM   41  N9  UNL     1      14.048  17.357  22.837  1.00  0.00    -0.079 N 
ATOM     42  H93 UNL     1      13.465  17.558  23.649  1.00  0.00     0.274 HD
ATOM     43  H92 UNL     1      14.949  17.616  23.239  1.00  0.00     0.274 HD
ATOM     44  H91 UNL     1      13.803  17.935  22.033  1.00  0.00     0.274 HD
ENDBRANCH  40  41
ENDBRANCH  39  40
ENDBRANCH  38  39
ENDBRANCH  36  38
ENDBRANCH  32  36
ENDBRANCH  27  29
ENDBRANCH  24  27
ENDBRANCH  22  23
ENDBRANCH  21  22
ENDBRANCH  20  21
ENDBRANCH  13  20
ENDBRANCH   8  11
ENDBRANCH   4   5
ENDBRANCH   1   4
TORSDOF 14
ENDMDL
MODEL 2
REMARK VINA RESULT: -7.852315159      3.174      4.845
REMARK  14 active torsions:
REMARK  status: ('A' for Active; 'I' for Inactive)
REMARK    1  A    between atoms: C2_2  and  N6_27 
REMARK    2  A    between atoms: N1_3  and  C3_5 
REMARK    3  A    between atoms: C3_5  and  C4_6 
REMARK    4  A    between atoms: C4_6  and  N2_7 
REMARK    5  A    between atoms: N2_7  and  C5_8 
REMARK    6  A    between atoms: C6_11  and  C7_12 
REMARK    7  A    between atoms: C10_15  and  O1_16 
REMARK    8  A    between atoms: O1_16  and  C11_17 
REMARK    9  A    between atoms: N6_27  and  C18_29 
REMARK   10  A    between atoms: C20_33  and  N8_34 
REMARK   11  A    between atoms: N8_34  and  C21_36 
REMARK   12  A    between atoms: C21_36  and  C22_37 
REMARK   13  A    between atoms: C22_37  and  C23_38 
REMARK   14  A    between atoms: C23_38  and  N9_39 
ROOT
HETATM    1  C11 UNL     1      11.072  22.932  24.411  1.00  0.00     0.299 C 
HETATM    2  C12 UNL     1      11.474  24.274  24.737  1.00  0.00     0.085 C 
HETATM    3  N4  UNL     1      11.778  25.360  24.991  1.00  0.00    -0.195 NA
ENDROOT
BRANCH   1   4
HETATM    4  O1  UNL     1      11.309  22.562  23.097  1.00  0.00    -0.338 OA
BRANCH   4   5
HETATM    5  C10 UNL     1      12.508  22.270  22.491  1.00  0.00     0.070 A 
HETATM    6  C9  UNL     1      13.195  23.319  21.891  1.00  0.00     0.038 A 
HETATM    7  C8  UNL     1      14.404  23.113  21.261  1.00  0.00     0.018 A 
HETATM    8  C7  UNL     1      14.983  21.859  21.201  1.00  0.00     0.008 A 
HETATM    9  C14 UNL     1      14.309  20.827  21.791  1.00  0.00     0.018 A 
HETATM   10  C13 UNL     1      13.076  21.027  22.433  1.00  0.00     0.038 A 
BRANCH   8  11
HETATM   11  C6  UNL     1      16.276  21.654  20.531  1.00  0.00     0.117 A 
HETATM   12  N3  UNL     1      17.304  21.161  21.226  1.00  0.00    -0.316 N 
HETATM   13  C5  UNL     1      18.552  20.926  20.698  1.00  0.00     0.186 A 
ATOM     14  H3  UNL     1      17.155  20.945  22.212  1.00  0.00     0.170 HD
HETATM   15  C16 UNL     1      18.751  21.226  19.338  1.00  0.00     0.012 A 
HETATM   16  C15 UNL     1      17.686  21.729  18.645  1.00  0.00     0.101 A 
HETATM   17  C17 UNL     1      20.065  21.002  18.677  1.00  0.00     0.055 C 
HETATM   18  N5  UNL     1      16.497  21.930  19.240  1.00  0.00    -0.351 N 
ATOM     19  H5  UNL     1      15.730  22.309  18.685  1.00  0.00     0.166 HD
BRANCH  13  20
HETATM   20  N2  UNL     1      19.478  20.476  21.327  1.00  0.00    -0.402 NA
BRANCH  20  21
HETATM   21  C4  UNL     1      20.356  19.997  22.208  1.00  0.00     0.177 C 
BRANCH  21  22
HETATM   22  C3  UNL     1      19.812  19.543  23.562  1.00  0.00     0.180 C 
BRANCH  22  23
HETATM   23  N1  UNL     1      20.805  18.831  24.333  1.00  0.00    -0.374 N 
HETATM   24  C2  UNL     1      21.319  19.328  25.407  1.00  0.00     0.074 C 
HETATM   25  C1  UNL     1      20.920  20.665  25.918  1.00  0.00     0.089 C 
ATOM     26  H1  UNL     1      21.108  17.909  24.020  1.00  0.00     0.161 HD
BRANCH  24  27
HETATM   27  N6  UNL     1      22.306  18.607  26.150  1.00  0.00    -0.331 N 
ATOM     28  H6  UNL     1      22.159  18.394  27.136  1.00  0.00     0.168 HD
BRANCH  27  29
HETATM   29  C18 UNL     1      23.493  18.196  25.494  1.00  0.00     0.138 A 
HETATM   30  C19 UNL     1      24.139  18.904  24.511  1.00  0.00     0.155 A 
HETATM   31  N7  UNL     1      25.221  18.206  24.129  1.00  0.00    -0.198 N 
HETATM   32  C20 UNL     1      25.264  17.067  24.864  1.00  0.00     0.679 A 
ATOM     33  H7  UNL     1      25.892  18.484  23.413  1.00  0.00     0.183 HD
HETATM   34  N10 UNL     1      24.205  17.071  25.692  1.00  0.00    -0.175 N 
ATOM     35  H10 UNL     1      23.978  16.338  26.363  1.00  0.00     0.186 HD
BRANCH  32  36
HETATM   36  N8  UNL     1      26.185  16.166  24.746  1.00  0.00    -0.226 N 
ATOM     37  H8  UNL     1      26.648  15.813  25.584  1.00  0.00     0.177 HD
BRANCH  36  38
HETATM   38  C21 UNL     1      26.570  15.650  23.460  1.00  0.00     0.139 C 
BRANCH  38  39
HETATM   39  C22 UNL     1      25.509  14.672  22.989  1.00  0.00     0.047 C 
BRANCH  39  40
HETATM   40  C23 UNL     1      24.908  15.093  21.685  1.00  0.00     0.231 C 
BRANCH  40  41
HETATM   41  N9  UNL     1      23.566  15.592  21.916  1.00  0.00    -0.079 N 
ATOM     42  H93 UNL     1      23.077  15.806  21.047  1.00  0.00     0.274 HD
ATOM     43  H92 UNL     1      22.937  14.867  22.260  1.00  0.00     0.274 HD
ATOM     44  H91 UNL     1      23.609  16.396  22.542  1.00  0.00     0.274 HD
ENDBRANCH  40  41
ENDBRANCH  39  40
ENDBRANCH  38  39
ENDBRANCH  36  38
ENDBRANCH  32  36
ENDBRANCH  27  29
ENDBRANCH  24  27
ENDBRANCH  22  23
ENDBRANCH  21  22
ENDBRANCH  20  21
ENDBRANCH  13  20
ENDBRANCH   8  11
ENDBRANCH   4   5
ENDBRANCH   1   4
TORSDOF 14
ENDMDL
MODEL 3
REMARK VINA RESULT: -7.848321470      1.413      2.271
REMARK  14 active torsions:
REMARK  status: ('A' for Active; 'I' for Inactive)
REMARK    1  A    between atoms: C2_2  and  N6_27 
REMARK    2  A    between atoms: N1_3  and  C3_5 
REMARK    3  A    between atoms: C3_5  and  C4_6 
REMARK    4  A    between atoms: C4_6  and  N2_7 
REMARK    5  A    between atoms: N2_7  and  C5_8 
REMARK    6  A    between atoms: C6_11  and  C7_12 
REMARK    7  A    between atoms: C10_15  and  O1_16 
REMARK    8  A    between atoms: O1_16  and  C11_17 
REMARK    9  A    between atoms: N6_27  and  C18_29 
REMARK   10  A    between atoms: C20_33  and  N8_34 
REMARK   11  A    between atoms: N8_34  and  C21_36 
REMARK   12  A    between atoms: C21_36  and  C22_37 
REMARK   13  A    between atoms: C22_37  and  C23_38 
REMARK   14  A    between atoms: C23_38  and  N9_39 
ROOT
HETATM    1  C11 UNL     1      10.910  22.949  24.216  1.00  0.00     0.299 C 
HETATM    2  C12 UNL     1      11.508  24.182  24.656  1.00  0.00     0.085 C 
HETATM    3  N4  UNL     1      11.972  25.183  24.999  1.00  0.00    -0.195 NA
ENDROOT
BRANCH   1   4
HETATM    4  O1  UNL     1      11.229  22.584  22.919  1.00  0.00    -0.338 OA
BRANCH   4   5
HETATM    5  C10 UNL     1      12.473  22.435  22.351  1.00  0.00     0.070 A 
HETATM    6  C9  UNL     1      13.032  21.163  22.356  1.00  0.00     0.038 A 
HETATM    7  C8  UNL     1      14.274  20.927  21.808  1.00  0.00     0.018 A 
HETATM    8  C7  UNL     1      15.014  21.942  21.230  1.00  0.00     0.008 A 
HETATM    9  C14 UNL     1      14.465  23.193  21.224  1.00  0.00     0.018 A 
HETATM   10  C13 UNL     1      13.201  23.443  21.781  1.00  0.00     0.038 A 
BRANCH   8  11
HETATM   11  C6  UNL     1      16.336  21.675  20.644  1.00  0.00     0.117 A 
HETATM   12  N3  UNL     1      17.297  21.146  21.406  1.00  0.00    -0.316 N 
HETATM   13  C5  UNL     1      18.564  20.853  20.959  1.00  0.00     0.186 A 
ATOM     14  H3  UNL     1      17.077  20.947  22.382  1.00  0.00     0.170 HD
HETATM   15  C16 UNL     1      18.860  21.130  19.612  1.00  0.00     0.012 A 
HETATM   16  C15 UNL     1      17.863  21.671  18.849  1.00  0.00     0.101 A 
HETATM   17  C17 UNL     1      20.202  20.844  19.036  1.00  0.00     0.055 C 
HETATM   18  N5  UNL     1      16.649  21.928  19.368  1.00  0.00    -0.351 N 
ATOM     19  H5  UNL     1      15.935  22.333  18.762  1.00  0.00     0.166 HD
BRANCH  13  20
HETATM   20  N2  UNL     1      19.429  20.371  21.648  1.00  0.00    -0.402 NA
BRANCH  20  21
HETATM   21  C4  UNL     1      20.212  19.809  22.569  1.00  0.00     0.177 C 
BRANCH  21  22
HETATM   22  C3  UNL     1      19.648  19.681  23.984  1.00  0.00     0.180 C 
BRANCH  22  23
HETATM   23  N1  UNL     1      18.628  18.661  24.070  1.00  0.00    -0.374 N 
HETATM   24  C2  UNL     1      18.429  17.986  25.150  1.00  0.00     0.074 C 
HETATM   25  C1  UNL     1      19.237  18.216  26.376  1.00  0.00     0.089 C 
ATOM     26  H1  UNL     1      18.049  18.469  23.252  1.00  0.00     0.161 HD
BRANCH  24  27
HETATM   27  N6  UNL     1      17.419  16.975  25.209  1.00  0.00    -0.331 N 
ATOM     28  H6  UNL     1      17.070  16.643  26.108  1.00  0.00     0.168 HD
BRANCH  27  29
HETATM   29  C18 UNL     1      16.911  16.441  23.999  1.00  0.00     0.138 A 
HETATM   30  C19 UNL     1      17.575  15.557  23.184  1.00  0.00     0.155 A 
HETATM   31  N7  UNL     1      16.787  15.276  22.134  1.00  0.00    -0.198 N 
HETATM   32  C20 UNL     1      15.632  15.971  22.281  1.00  0.00     0.679 A 
ATOM     33  H7  UNL     1      17.016  14.649  21.363  1.00  0.00     0.183 HD
HETATM   34  N10 UNL     1      15.719  16.679  23.420  1.00  0.00    -0.175 N 
ATOM     35  H10 UNL     1      14.996  17.298  23.788  1.00  0.00     0.186 HD
BRANCH  32  36
HETATM   36  N8  UNL     1      14.650  15.927  21.439  1.00  0.00    -0.226 N 
ATOM     37  H8  UNL     1      14.712  16.461  20.572  1.00  0.00     0.177 HD
BRANCH  36  38
HETATM   38  C21 UNL     1      13.474  15.142  21.700  1.00  0.00     0.139 C 
BRANCH  38  39
HETATM   39  C22 UNL     1      12.849  14.744  20.376  1.00  0.00     0.047 C 
BRANCH  39  40
HETATM   40  C23 UNL     1      11.354  14.762  20.442  1.00  0.00     0.231 C 
BRANCH  40  41
HETATM   41  N9  UNL     1      10.924  15.897  21.236  1.00  0.00    -0.079 N 
ATOM     42  H93 UNL     1      11.050  15.740  22.236  1.00  0.00     0.274 HD
ATOM     43  H92 UNL     1      11.548  16.698  21.137  1.00  0.00     0.274 HD
ATOM     44  H91 UNL     1       9.959  16.127  21.000  1.00  0.00     0.274 HD
ENDBRANCH  40  41
ENDBRANCH  39  40
ENDBRANCH  38  39
ENDBRANCH  36  38
ENDBRANCH  32  36
ENDBRANCH  27  29
ENDBRANCH  24  27
ENDBRANCH  22  23
ENDBRANCH  21  22
ENDBRANCH  20  21
ENDBRANCH  13  20
ENDBRANCH   8  11
ENDBRANCH   4   5
ENDBRANCH   1   4
TORSDOF 14
ENDMDL
MODEL 4
REMARK VINA RESULT: -7.826499923      2.336      6.143
REMARK  14 active torsions:
REMARK  status: ('A' for Active; 'I' for Inactive)
REMARK    1  A    between atoms: C2_2  and  N6_27 
REMARK    2  A    between atoms: N1_3  and  C3_5 
REMARK    3  A    between atoms: C3_5  and  C4_6 
REMARK    4  A    between atoms: C4_6  and  N2_7 
REMARK    5  A    between atoms: N2_7  and  C5_8 
REMARK    6  A    between atoms: C6_11  and  C7_12 
REMARK    7  A    between atoms: C10_15  and  O1_16 
REMARK    8  A    between atoms: O1_16  and  C11_17 
REMARK    9  A    between atoms: N6_27  and  C18_29 
REMARK   10  A    between atoms: C20_33  and  N8_34 
REMARK   11  A    between atoms: N8_34  and  C21_36 
REMARK   12  A    between atoms: C21_36  and  C22_37 
REMARK   13  A    between atoms: C22_37  and  C23_38 
REMARK   14  A    between atoms: C23_38  and  N9_39 
ROOT
HETATM    1  C11 UNL     1      16.135  20.877  17.469  1.00  0.00     0.299 C 
HETATM    2  C12 UNL     1      15.307  21.738  16.666  1.00  0.00     0.085 C 
HETATM    3  N4  UNL     1      14.655  22.426  16.005  1.00  0.00    -0.195 NA
ENDROOT
BRANCH   1   4
HETATM    4  O1  UNL     1      17.268  21.484  17.985  1.00  0.00    -0.338 OA
BRANCH   4   5
HETATM    5  C10 UNL     1      18.023  21.110  19.071  1.00  0.00     0.070 A 
HETATM    6  C9  UNL     1      17.344  20.710  20.217  1.00  0.00     0.038 A 
HETATM    7  C8  UNL     1      18.024  20.319  21.350  1.00  0.00     0.018 A 
HETATM    8  C7  UNL     1      19.405  20.308  21.396  1.00  0.00     0.008 A 
HETATM    9  C14 UNL     1      20.074  20.701  20.271  1.00  0.00     0.018 A 
HETATM   10  C13 UNL     1      19.390  21.102  19.112  1.00  0.00     0.038 A 
BRANCH   8  11
HETATM   11  C6  UNL     1      20.119  19.884  22.610  1.00  0.00     0.117 A 
HETATM   12  N3  UNL     1      19.429  19.357  23.625  1.00  0.00    -0.316 N 
HETATM   13  C5  UNL     1      19.995  18.925  24.802  1.00  0.00     0.186 A 
ATOM     14  H3  UNL     1      18.418  19.270  23.522  1.00  0.00     0.170 HD
HETATM   15  C16 UNL     1      21.390  19.047  24.938  1.00  0.00     0.012 A 
HETATM   16  C15 UNL     1      22.076  19.588  23.887  1.00  0.00     0.101 A 
HETATM   17  C17 UNL     1      22.093  18.603  26.171  1.00  0.00     0.055 C 
HETATM   18  N5  UNL     1      21.443  19.988  22.770  1.00  0.00    -0.351 N 
ATOM     19  H5  UNL     1      21.995  20.388  22.012  1.00  0.00     0.166 HD
BRANCH  13  20
HETATM   20  N2  UNL     1      19.370  18.444  25.715  1.00  0.00    -0.402 NA
BRANCH  20  21
HETATM   21  C4  UNL     1      18.586  17.773  26.559  1.00  0.00     0.177 C 
BRANCH  21  22
HETATM   22  C3  UNL     1      17.989  16.457  26.063  1.00  0.00     0.180 C 
BRANCH  22  23
HETATM   23  N1  UNL     1      17.253  16.626  24.831  1.00  0.00    -0.374 N 
HETATM   24  C2  UNL     1      17.598  16.027  23.743  1.00  0.00     0.074 C 
HETATM   25  C1  UNL     1      18.776  15.123  23.689  1.00  0.00     0.089 C 
ATOM     26  H1  UNL     1      16.436  17.238  24.822  1.00  0.00     0.161 HD
BRANCH  24  27
HETATM   27  N6  UNL     1      16.858  16.216  22.533  1.00  0.00    -0.331 N 
ATOM     28  H6  UNL     1      17.177  15.797  21.660  1.00  0.00     0.168 HD
BRANCH  27  29
HETATM   29  C18 UNL     1      15.675  16.996  22.568  1.00  0.00     0.138 A 
HETATM   30  C19 UNL     1      14.414  16.509  22.811  1.00  0.00     0.155 A 
HETATM   31  N7  UNL     1      13.548  17.534  22.765  1.00  0.00    -0.198 N 
HETATM   32  C20 UNL     1      14.252  18.662  22.498  1.00  0.00     0.679 A 
ATOM     33  H7  UNL     1      12.540  17.474  22.906  1.00  0.00     0.183 HD
HETATM   34  N10 UNL     1      15.547  18.322  22.379  1.00  0.00    -0.175 N 
ATOM     35  H10 UNL     1      16.311  18.967  22.178  1.00  0.00     0.186 HD
BRANCH  32  36
HETATM   36  N8  UNL     1      13.719  19.836  22.386  1.00  0.00    -0.226 N 
ATOM     37  H8  UNL     1      14.280  20.606  22.020  1.00  0.00     0.177 HD
BRANCH  36  38
HETATM   38  C21 UNL     1      12.353  20.078  22.765  1.00  0.00     0.139 C 
BRANCH  38  39
HETATM   39  C22 UNL     1      12.050  21.554  22.583  1.00  0.00     0.047 C 
BRANCH  39  40
HETATM   40  C23 UNL     1      11.240  22.097  23.719  1.00  0.00     0.231 C 
BRANCH  40  41
HETATM   41  N9  UNL     1      10.218  21.133  24.081  1.00  0.00    -0.079 N 
ATOM     42  H93 UNL     1       9.877  20.609  23.276  1.00  0.00     0.274 HD
ATOM     43  H92 UNL     1      10.597  20.350  24.613  1.00  0.00     0.274 HD
ATOM     44  H91 UNL     1       9.466  21.611  24.578  1.00  0.00     0.274 HD
ENDBRANCH  40  41
ENDBRANCH  39  40
ENDBRANCH  38  39
ENDBRANCH  36  38
ENDBRANCH  32  36
ENDBRANCH  27  29
ENDBRANCH  24  27
ENDBRANCH  22  23
ENDBRANCH  21  22
ENDBRANCH  20  21
ENDBRANCH  13  20
ENDBRANCH   8  11
ENDBRANCH   4   5
ENDBRANCH   1   4
TORSDOF 14
ENDMDL
MODEL 5
REMARK VINA RESULT: -7.807341146      4.221      5.943
REMARK  14 active torsions:
REMARK  status: ('A' for Active; 'I' for Inactive)
REMARK    1  A    between atoms: C2_2  and  N6_27 
REMARK    2  A    between atoms: N1_3  and  C3_5 
REMARK    3  A    between atoms: C3_5  and  C4_6 
REMARK    4  A    between atoms: C4_6  and  N2_7 
REMARK    5  A    between atoms: N2_7  and  C5_8 
REMARK    6  A    between atoms: C6_11  and  C7_12 
REMARK    7  A    between atoms: C10_15  and  O1_16 
REMARK    8  A    between atoms: O1_16  and  C11_17 
REMARK    9  A    between atoms: N6_27  and  C18_29 
REMARK   10  A    between atoms: C20_33  and  N8_34 
REMARK   11  A    between atoms: N8_34  and  C21_36 
REMARK   12  A    between atoms: C21_36  and  C22_37 
REMARK   13  A    between atoms: C22_37  and  C23_38 
REMARK   14  A    between atoms: C23_38  and  N9_39 
ROOT
HETATM    1  C11 UNL     1      10.908  22.950  24.298  1.00  0.00     0.299 C 
HETATM    2  C12 UNL     1      11.492  24.191  24.732  1.00  0.00     0.085 C 
HETATM    3  N4  UNL     1      11.945  25.199  25.071  1.00  0.00    -0.195 NA
ENDROOT
BRANCH   1   4
HETATM    4  O1  UNL     1      11.230  22.584  23.002  1.00  0.00    -0.338 OA
BRANCH   4   5
HETATM    5  C10 UNL     1      12.459  22.250  22.484  1.00  0.00     0.070 A 
HETATM    6  C9  UNL     1      13.224  23.274  21.937  1.00  0.00     0.038 A 
HETATM    7  C8  UNL     1      14.467  23.026  21.398  1.00  0.00     0.018 A 
HETATM    8  C7  UNL     1      15.006  21.752  21.377  1.00  0.00     0.008 A 
HETATM    9  C14 UNL     1      14.255  20.745  21.914  1.00  0.00     0.018 A 
HETATM   10  C13 UNL     1      12.986  20.988  22.466  1.00  0.00     0.038 A 
BRANCH   8  11
HETATM   11  C6  UNL     1      16.336  21.502  20.803  1.00  0.00     0.117 A 
HETATM   12  N3  UNL     1      17.193  20.710  21.453  1.00  0.00    -0.316 N 
HETATM   13  C5  UNL     1      18.457  20.407  21.004  1.00  0.00     0.186 A 
ATOM     14  H3  UNL     1      16.890  20.304  22.338  1.00  0.00     0.170 HD
HETATM   15  C16 UNL     1      18.867  20.969  19.782  1.00  0.00     0.012 A 
HETATM   16  C15 UNL     1      17.975  21.777  19.133  1.00  0.00     0.101 A 
HETATM   17  C17 UNL     1      20.215  20.696  19.214  1.00  0.00     0.055 C 
HETATM   18  N5  UNL     1      16.756  22.023  19.644  1.00  0.00    -0.351 N 
ATOM     19  H5  UNL     1      16.124  22.633  19.126  1.00  0.00     0.166 HD
BRANCH  13  20
HETATM   20  N2  UNL     1      19.227  19.686  21.590  1.00  0.00    -0.402 NA
BRANCH  20  21
HETATM   21  C4  UNL     1      19.965  18.964  22.433  1.00  0.00     0.177 C 
BRANCH  21  22
HETATM   22  C3  UNL     1      20.633  19.706  23.590  1.00  0.00     0.180 C 
BRANCH  22  23
HETATM   23  N1  UNL     1      22.072  19.594  23.547  1.00  0.00    -0.374 N 
HETATM   24  C2  UNL     1      22.799  19.731  24.603  1.00  0.00     0.074 C 
HETATM   25  C1  UNL     1      22.199  20.010  25.933  1.00  0.00     0.089 C 
ATOM     26  H1  UNL     1      22.527  19.402  22.654  1.00  0.00     0.161 HD
BRANCH  24  27
HETATM   27  N6  UNL     1      24.224  19.624  24.534  1.00  0.00    -0.331 N 
ATOM     28  H6  UNL     1      24.814  20.434  24.721  1.00  0.00     0.168 HD
BRANCH  27  29
HETATM   29  C18 UNL     1      24.802  18.374  24.200  1.00  0.00     0.138 A 
HETATM   30  C19 UNL     1      24.688  17.225  24.945  1.00  0.00     0.155 A 
HETATM   31  N7  UNL     1      25.363  16.247  24.321  1.00  0.00    -0.198 N 
HETATM   32  C20 UNL     1      25.900  16.767  23.189  1.00  0.00     0.679 A 
ATOM     33  H7  UNL     1      25.456  15.284  24.641  1.00  0.00     0.183 HD
HETATM   34  N10 UNL     1      25.552  18.064  23.126  1.00  0.00    -0.175 N 
ATOM     35  H10 UNL     1      25.815  18.711  22.382  1.00  0.00     0.186 HD
BRANCH  32  36
HETATM   36  N8  UNL     1      26.616  16.089  22.351  1.00  0.00    -0.226 N 
ATOM     37  H8  UNL     1      26.293  15.984  21.389  1.00  0.00     0.177 HD
BRANCH  36  38
HETATM   38  C21 UNL     1      27.858  15.481  22.747  1.00  0.00     0.139 C 
BRANCH  38  39
HETATM   39  C22 UNL     1      28.033  14.184  21.980  1.00  0.00     0.047 C 
BRANCH  39  40
HETATM   40  C23 UNL     1      28.434  14.431  20.559  1.00  0.00     0.231 C 
BRANCH  40  41
HETATM   41  N9  UNL     1      27.571  13.668  19.678  1.00  0.00    -0.079 N 
ATOM     42  H93 UNL     1      26.587  13.751  19.933  1.00  0.00     0.274 HD
ATOM     43  H92 UNL     1      27.512  14.076  18.745  1.00  0.00     0.274 HD
ATOM     44  H91 UNL     1      27.884  12.698  19.657  1.00  0.00     0.274 HD
ENDBRANCH  40  41
ENDBRANCH  39  40
ENDBRANCH  38  39
ENDBRANCH  36  38
ENDBRANCH  32  36
ENDBRANCH  27  29
ENDBRANCH  24  27
ENDBRANCH  22  23
ENDBRANCH  21  22
ENDBRANCH  20  21
ENDBRANCH  13  20
ENDBRANCH   8  11
ENDBRANCH   4   5
ENDBRANCH   1   4
TORSDOF 14
ENDMDL
