MODEL 1
REMARK VINA RESULT: -7.157658934      0.000      0.000
REMARK  10 active torsions:
REMARK  status: ('A' for Active; 'I' for Inactive)
REMARK    1  A    between atoms: C2_2  and  O2_4 
REMARK    2  A    between atoms: O2_4  and  C3_5 
REMARK    3  A    between atoms: C3_5  and  C4_6 
REMARK    4  A    between atoms: C4_6  and  O3_7 
REMARK    5  A    between atoms: O3_7  and  C5_8 
REMARK    6  A    between atoms: C5_8  and  N1_9 
REMARK    7  A    between atoms: N2_12  and  N3_13 
REMARK    8  A    between atoms: C8_14  and  O4_15 
REMARK    9  A    between atoms: C9_17  and  O5_18 
REMARK   10  A    between atoms: N4_22  and  N5_24 
ROOT
HETATM    1  N3  UNL     1      37.156   6.355  18.727  1.00  0.00    -0.199 N 
HETATM    2  C8  UNL     1      36.269   6.834  19.608  1.00  0.00     0.199 A 
HETATM    3  C9  UNL     1      36.001   5.880  20.588  1.00  0.00     0.136 A 
HETATM    4  C10 UNL     1      36.752   4.781  20.295  1.00  0.00     0.093 A 
HETATM    5  C11 UNL     1      36.917   3.546  20.884  1.00  0.00     0.138 A 
HETATM    6  N4  UNL     1      36.340   3.137  21.906  1.00  0.00    -0.291 N 
ATOM      7  H4  UNL     1      36.662   2.190  22.107  1.00  0.00     0.188 HD
HETATM    8  N6  UNL     1      37.803   2.695  20.256  1.00  0.00    -0.318 N 
ATOM      9  H6  UNL     1      37.949   1.773  20.667  1.00  0.00     0.169 HD
HETATM   10  C12 UNL     1      38.479   2.995  19.156  1.00  0.00     0.191 A 
HETATM   11  C13 UNL     1      39.405   2.038  18.552  1.00  0.00     0.137 C 
HETATM   12  N7  UNL     1      40.149   1.294  18.084  1.00  0.00    -0.188 NA
HETATM   13  N8  UNL     1      38.303   4.202  18.599  1.00  0.00    -0.317 N 
ATOM     14  H8  UNL     1      38.817   4.449  17.752  1.00  0.00     0.169 HD
HETATM   15  C14 UNL     1      37.452   5.093  19.151  1.00  0.00     0.150 A 
ENDROOT
BRANCH   6  16
HETATM   16  N5  UNL     1      35.457   3.491  22.831  1.00  0.00    -0.344 N 
ATOM     17  H52 UNL     1      35.985   3.829  23.636  1.00  0.00     0.176 HD
ATOM     18  H51 UNL     1      34.455   3.543  23.016  1.00  0.00     0.176 HD
ENDBRANCH   6  16
BRANCH   1  19
HETATM   19  N2  UNL     1      37.683   7.003  17.613  1.00  0.00    -0.208 N 
HETATM   20  C7  UNL     1      39.066   7.410  17.702  1.00  0.00     0.183 C 
HETATM   21  C6  UNL     1      39.580   8.010  16.411  1.00  0.00     0.136 C 
HETATM   22  N1  UNL     1      38.670   7.627  15.374  1.00  0.00    -0.192 NA
HETATM   23  N11 UNL     1      37.709   8.609  15.103  1.00  0.00    -0.034 NA
HETATM   24  N10 UNL     1      36.739   8.496  16.106  1.00  0.00     0.002 NA
HETATM   25  N9  UNL     1      36.783   7.167  16.568  1.00  0.00     0.007 NA
BRANCH  22  26
HETATM   26  C5  UNL     1      39.296   7.113  14.173  1.00  0.00     0.279 C 
BRANCH  26  27
HETATM   27  O3  UNL     1      38.425   6.543  13.306  1.00  0.00    -0.374 OA
BRANCH  27  28
HETATM   28  C4  UNL     1      37.959   5.298  13.531  1.00  0.00     0.196 C 
BRANCH  28  29
HETATM   29  C3  UNL     1      38.129   4.263  12.481  1.00  0.00     0.205 C 
BRANCH  29  30
HETATM   30  O2  UNL     1      36.950   3.538  12.215  1.00  0.00    -0.320 OA
BRANCH  30  31
HETATM   31  C2  UNL     1      36.443   2.516  12.961  1.00  0.00     0.254 C 
HETATM   32  C1  UNL     1      37.130   1.193  13.080  1.00  0.00     0.126 C 
HETATM   33  O1  UNL     1      35.339   2.702  13.578  1.00  0.00    -0.266 OA
ENDBRANCH  30  31
ENDBRANCH  29  30
ENDBRANCH  28  29
ENDBRANCH  27  28
ENDBRANCH  26  27
ENDBRANCH  22  26
ENDBRANCH   1  19
BRANCH   3  34
HETATM   34  O5  UNL     1      35.143   6.010  21.658  1.00  0.00    -0.356 OA
ATOM     35  H5  UNL     1      35.102   6.734  22.272  1.00  0.00     0.218 HD
ENDBRANCH   3  34
BRANCH   2  36
HETATM   36  O4  UNL     1      35.684   8.102  19.567  1.00  0.00    -0.343 OA
ATOM     37  H4  UNL     1      34.967   8.364  19.001  1.00  0.00     0.219 HD
ENDBRANCH   2  36
TORSDOF 10
ENDMDL
MODEL 2
REMARK VINA RESULT: -7.053763094      3.105      4.684
REMARK  10 active torsions:
REMARK  status: ('A' for Active; 'I' for Inactive)
REMARK    1  A    between atoms: C2_2  and  O2_4 
REMARK    2  A    between atoms: O2_4  and  C3_5 
REMARK    3  A    between atoms: C3_5  and  C4_6 
REMARK    4  A    between atoms: C4_6  and  O3_7 
REMARK    5  A    between atoms: O3_7  and  C5_8 
REMARK    6  A    between atoms: C5_8  and  N1_9 
REMARK    7  A    between atoms: N2_12  and  N3_13 
REMARK    8  A    between atoms: C8_14  and  O4_15 
REMARK    9  A    between atoms: C9_17  and  O5_18 
REMARK   10  A    between atoms: N4_22  and  N5_24 
ROOT
HETATM    1  N3  UNL     1      37.051   6.366  15.494  1.00  0.00    -0.199 N 
HETATM    2  C8  UNL     1      36.748   7.667  15.411  1.00  0.00     0.199 A 
HETATM    3  C9  UNL     1      36.731   8.238  16.682  1.00  0.00     0.136 A 
HETATM    4  C10 UNL     1      37.035   7.251  17.571  1.00  0.00     0.093 A 
HETATM    5  C11 UNL     1      37.172   7.202  18.941  1.00  0.00     0.138 A 
HETATM    6  N4  UNL     1      37.016   8.151  19.730  1.00  0.00    -0.291 N 
ATOM      7  H4  UNL     1      37.185   7.819  20.679  1.00  0.00     0.188 HD
HETATM    8  N6  UNL     1      37.504   5.971  19.467  1.00  0.00    -0.318 N 
ATOM      9  H6  UNL     1      37.614   5.900  20.480  1.00  0.00     0.169 HD
HETATM   10  C12 UNL     1      37.691   4.873  18.748  1.00  0.00     0.191 A 
HETATM   11  C13 UNL     1      38.046   3.604  19.382  1.00  0.00     0.137 C 
HETATM   12  N7  UNL     1      38.343   2.607  19.874  1.00  0.00    -0.188 NA
HETATM   13  N8  UNL     1      37.552   4.943  17.416  1.00  0.00    -0.317 N 
ATOM     14  H8  UNL     1      37.693   4.108  16.848  1.00  0.00     0.169 HD
HETATM   15  C14 UNL     1      37.227   6.112  16.822  1.00  0.00     0.150 A 
ENDROOT
BRANCH   6  16
HETATM   16  N5  UNL     1      36.709   9.441  19.779  1.00  0.00    -0.344 N 
ATOM     17  H52 UNL     1      37.481   9.915  20.248  1.00  0.00     0.176 HD
ATOM     18  H51 UNL     1      35.987  10.112  19.517  1.00  0.00     0.176 HD
ENDBRANCH   6  16
BRANCH   1  19
HETATM   19  N2  UNL     1      37.174   5.453  14.450  1.00  0.00    -0.208 N 
HETATM   20  C7  UNL     1      38.365   5.562  13.639  1.00  0.00     0.183 C 
HETATM   21  C6  UNL     1      38.462   4.468  12.598  1.00  0.00     0.136 C 
HETATM   22  N1  UNL     1      37.559   3.429  12.991  1.00  0.00    -0.192 NA
HETATM   23  N11 UNL     1      36.316   3.518  12.352  1.00  0.00    -0.034 NA
HETATM   24  N10 UNL     1      35.597   4.508  13.031  1.00  0.00     0.002 NA
HETATM   25  N9  UNL     1      36.113   4.563  14.339  1.00  0.00     0.007 NA
BRANCH  22  26
HETATM   26  C5  UNL     1      38.113   2.091  12.946  1.00  0.00     0.279 C 
BRANCH  26  27
HETATM   27  O3  UNL     1      37.284   1.141  13.442  1.00  0.00    -0.374 OA
BRANCH  27  28
HETATM   28  C4  UNL     1      37.318  -0.115  12.953  1.00  0.00     0.196 C 
BRANCH  28  29
HETATM   29  C3  UNL     1      36.629  -0.410  11.672  1.00  0.00     0.205 C 
BRANCH  29  30
HETATM   30  O2  UNL     1      36.648  -1.777  11.330  1.00  0.00    -0.320 OA
BRANCH  30  31
HETATM   31  C2  UNL     1      35.566  -2.553  11.038  1.00  0.00     0.254 C 
HETATM   32  C1  UNL     1      35.654  -4.042  10.929  1.00  0.00     0.126 C 
HETATM   33  O1  UNL     1      34.438  -1.981  10.852  1.00  0.00    -0.266 OA
ENDBRANCH  30  31
ENDBRANCH  29  30
ENDBRANCH  28  29
ENDBRANCH  27  28
ENDBRANCH  26  27
ENDBRANCH  22  26
ENDBRANCH   1  19
BRANCH   3  34
HETATM   34  O5  UNL     1      36.461   9.553  16.995  1.00  0.00    -0.356 OA
ATOM     35  H5  UNL     1      36.213   9.898  17.845  1.00  0.00     0.218 HD
ENDBRANCH   3  34
BRANCH   2  36
HETATM   36  O4  UNL     1      36.483   8.368  14.232  1.00  0.00    -0.343 OA
ATOM     37  H4  UNL     1      36.827   9.225  14.007  1.00  0.00     0.219 HD
ENDBRANCH   2  36
TORSDOF 10
ENDMDL
MODEL 3
REMARK VINA RESULT: -6.940455982      5.116      7.326
REMARK  10 active torsions:
REMARK  status: ('A' for Active; 'I' for Inactive)
REMARK    1  A    between atoms: C2_2  and  O2_4 
REMARK    2  A    between atoms: O2_4  and  C3_5 
REMARK    3  A    between atoms: C3_5  and  C4_6 
REMARK    4  A    between atoms: C4_6  and  O3_7 
REMARK    5  A    between atoms: O3_7  and  C5_8 
REMARK    6  A    between atoms: C5_8  and  N1_9 
REMARK    7  A    between atoms: N2_12  and  N3_13 
REMARK    8  A    between atoms: C8_14  and  O4_15 
REMARK    9  A    between atoms: C9_17  and  O5_18 
REMARK   10  A    between atoms: N4_22  and  N5_24 
ROOT
HETATM    1  N3  UNL     1      37.827   2.719  13.039  1.00  0.00    -0.199 N 
HETATM    2  C8  UNL     1      36.575   2.254  13.118  1.00  0.00     0.199 A 
HETATM    3  C9  UNL     1      36.531   0.921  12.711  1.00  0.00     0.136 A 
HETATM    4  C10 UNL     1      37.801   0.562  12.374  1.00  0.00     0.093 A 
HETATM    5  C11 UNL     1      38.380  -0.602  11.915  1.00  0.00     0.138 A 
HETATM    6  N4  UNL     1      37.791  -1.671  11.677  1.00  0.00    -0.291 N 
ATOM      7  H4  UNL     1      38.474  -2.355  11.353  1.00  0.00     0.188 HD
HETATM    8  N6  UNL     1      39.741  -0.549  11.695  1.00  0.00    -0.318 N 
ATOM      9  H6  UNL     1      40.201  -1.394  11.355  1.00  0.00     0.169 HD
HETATM   10  C12 UNL     1      40.492   0.524  11.897  1.00  0.00     0.191 A 
HETATM   11  C13 UNL     1      41.932   0.498  11.643  1.00  0.00     0.137 C 
HETATM   12  N7  UNL     1      43.069   0.478  11.462  1.00  0.00    -0.188 NA
HETATM   13  N8  UNL     1      39.909   1.646  12.343  1.00  0.00    -0.317 N 
ATOM     14  H8  UNL     1      40.473   2.481  12.504  1.00  0.00     0.169 HD
HETATM   15  C14 UNL     1      38.580   1.678  12.582  1.00  0.00     0.150 A 
ENDROOT
BRANCH   6  16
HETATM   16  N5  UNL     1      36.593  -2.241  11.694  1.00  0.00    -0.344 N 
ATOM     17  H52 UNL     1      35.932  -1.558  11.324  1.00  0.00     0.176 HD
ATOM     18  H51 UNL     1      36.110  -3.104  11.941  1.00  0.00     0.176 HD
ENDBRANCH   6  16
BRANCH   1  19
HETATM   19  N2  UNL     1      38.282   3.994  13.363  1.00  0.00    -0.208 N 
HETATM   20  C7  UNL     1      39.053   4.111  14.579  1.00  0.00     0.183 C 
HETATM   21  C6  UNL     1      39.592   5.509  14.795  1.00  0.00     0.136 C 
HETATM   22  N1  UNL     1      39.517   6.190  13.538  1.00  0.00    -0.192 NA
HETATM   23  N11 UNL     1      38.363   6.973  13.411  1.00  0.00    -0.034 NA
HETATM   24  N10 UNL     1      37.325   6.092  13.085  1.00  0.00     0.002 NA
HETATM   25  N9  UNL     1      37.916   4.980  12.456  1.00  0.00     0.007 NA
BRANCH  22  26
HETATM   26  C5  UNL     1      40.719   6.905  13.159  1.00  0.00     0.279 C 
BRANCH  26  27
HETATM   27  O3  UNL     1      40.930   6.945  11.822  1.00  0.00    -0.374 OA
BRANCH  27  28
HETATM   28  C4  UNL     1      41.179   5.809  11.139  1.00  0.00     0.196 C 
BRANCH  28  29
HETATM   29  C3  UNL     1      40.567   5.624   9.799  1.00  0.00     0.205 C 
BRANCH  29  30
HETATM   30  O2  UNL     1      41.097   4.528   9.090  1.00  0.00    -0.320 OA
BRANCH  30  31
HETATM   31  C2  UNL     1      41.739   4.575   7.889  1.00  0.00     0.254 C 
HETATM   32  C1  UNL     1      41.102   5.146   6.662  1.00  0.00     0.126 C 
HETATM   33  O1  UNL     1      42.928   4.113   7.815  1.00  0.00    -0.266 OA
ENDBRANCH  30  31
ENDBRANCH  29  30
ENDBRANCH  28  29
ENDBRANCH  27  28
ENDBRANCH  26  27
ENDBRANCH  22  26
ENDBRANCH   1  19
BRANCH   3  34
HETATM   34  O5  UNL     1      35.419   0.108  12.658  1.00  0.00    -0.356 OA
ATOM     35  H5  UNL     1      34.692   0.175  12.050  1.00  0.00     0.218 HD
ENDBRANCH   3  34
BRANCH   2  36
HETATM   36  O4  UNL     1      35.460   2.982  13.541  1.00  0.00    -0.343 OA
ATOM     37  H4  UNL     1      35.278   3.247  14.435  1.00  0.00     0.219 HD
ENDBRANCH   2  36
TORSDOF 10
ENDMDL
MODEL 4
REMARK VINA RESULT: -6.909559311      2.400      3.090
REMARK  10 active torsions:
REMARK  status: ('A' for Active; 'I' for Inactive)
REMARK    1  A    between atoms: C2_2  and  O2_4 
REMARK    2  A    between atoms: O2_4  and  C3_5 
REMARK    3  A    between atoms: C3_5  and  C4_6 
REMARK    4  A    between atoms: C4_6  and  O3_7 
REMARK    5  A    between atoms: O3_7  and  C5_8 
REMARK    6  A    between atoms: C5_8  and  N1_9 
REMARK    7  A    between atoms: N2_12  and  N3_13 
REMARK    8  A    between atoms: C8_14  and  O4_15 
REMARK    9  A    between atoms: C9_17  and  O5_18 
REMARK   10  A    between atoms: N4_22  and  N5_24 
ROOT
HETATM    1  N3  UNL     1      37.393   5.682  17.153  1.00  0.00    -0.199 N 
HETATM    2  C8  UNL     1      36.758   6.768  17.608  1.00  0.00     0.199 A 
HETATM    3  C9  UNL     1      36.639   6.709  18.996  1.00  0.00     0.136 A 
HETATM    4  C10 UNL     1      37.222   5.546  19.400  1.00  0.00     0.093 A 
HETATM    5  C11 UNL     1      37.418   4.946  20.625  1.00  0.00     0.138 A 
HETATM    6  N4  UNL     1      37.049   5.387  21.727  1.00  0.00    -0.291 N 
ATOM      7  H4  UNL     1      37.334   4.732  22.454  1.00  0.00     0.188 HD
HETATM    8  N6  UNL     1      38.080   3.736  20.601  1.00  0.00    -0.318 N 
ATOM      9  H6  UNL     1      38.241   3.264  21.491  1.00  0.00     0.169 HD
HETATM   10  C12 UNL     1      38.520   3.144  19.499  1.00  0.00     0.191 A 
HETATM   11  C13 UNL     1      39.217   1.859  19.558  1.00  0.00     0.137 C 
HETATM   12  N7  UNL     1      39.783   0.858  19.601  1.00  0.00    -0.188 NA
HETATM   13  N8  UNL     1      38.319   3.745  18.318  1.00  0.00    -0.317 N 
ATOM     14  H8  UNL     1      38.653   3.303  17.461  1.00  0.00     0.169 HD
HETATM   15  C14 UNL     1      37.678   4.932  18.255  1.00  0.00     0.150 A 
ENDROOT
BRANCH   6  16
HETATM   16  N5  UNL     1      36.417   6.406  22.296  1.00  0.00    -0.344 N 
ATOM     17  H52 UNL     1      37.091   6.876  22.900  1.00  0.00     0.176 HD
ATOM     18  H51 UNL     1      35.513   6.875  22.341  1.00  0.00     0.176 HD
ENDBRANCH   6  16
BRANCH   1  19
HETATM   19  N2  UNL     1      37.712   5.375  15.833  1.00  0.00    -0.208 N 
HETATM   20  C7  UNL     1      39.116   5.381  15.493  1.00  0.00     0.183 C 
HETATM   21  C6  UNL     1      39.373   4.935  14.070  1.00  0.00     0.136 C 
HETATM   22  N1  UNL     1      38.194   4.259  13.619  1.00  0.00    -0.192 NA
HETATM   23  N11 UNL     1      37.335   5.091  12.890  1.00  0.00    -0.034 NA
HETATM   24  N10 UNL     1      36.634   5.853  13.832  1.00  0.00     0.002 NA
HETATM   25  N9  UNL     1      36.613   5.107  15.026  1.00  0.00     0.007 NA
BRANCH  22  26
HETATM   26  C5  UNL     1      38.432   2.991  12.960  1.00  0.00     0.279 C 
BRANCH  26  27
HETATM   27  O3  UNL     1      37.331   2.469  12.370  1.00  0.00    -0.374 OA
BRANCH  27  28
HETATM   28  C4  UNL     1      36.851   1.271  12.765  1.00  0.00     0.196 C 
BRANCH  28  29
HETATM   29  C3  UNL     1      37.316   0.044  12.072  1.00  0.00     0.205 C 
BRANCH  29  30
HETATM   30  O2  UNL     1      36.354  -0.504  11.200  1.00  0.00    -0.320 OA
BRANCH  30  31
HETATM   31  C2  UNL     1      35.484  -1.513  11.485  1.00  0.00     0.254 C 
HETATM   32  C1  UNL     1      35.742  -2.510  12.570  1.00  0.00     0.126 C 
HETATM   33  O1  UNL     1      34.411  -1.605  10.797  1.00  0.00    -0.266 OA
ENDBRANCH  30  31
ENDBRANCH  29  30
ENDBRANCH  28  29
ENDBRANCH  27  28
ENDBRANCH  26  27
ENDBRANCH  22  26
ENDBRANCH   1  19
BRANCH   3  34
HETATM   34  O5  UNL     1      36.046   7.645  19.817  1.00  0.00    -0.356 OA
ATOM     35  H5  UNL     1      35.589   7.480  20.633  1.00  0.00     0.218 HD
ENDBRANCH   3  34
BRANCH   2  36
HETATM   36  O4  UNL     1      36.275   7.819  16.823  1.00  0.00    -0.343 OA
ATOM     37  H4  UNL     1      36.276   8.738  17.066  1.00  0.00     0.219 HD
ENDBRANCH   2  36
TORSDOF 10
ENDMDL
MODEL 5
REMARK VINA RESULT: -6.878287026      1.805      2.129
REMARK  10 active torsions:
REMARK  status: ('A' for Active; 'I' for Inactive)
REMARK    1  A    between atoms: C2_2  and  O2_4 
REMARK    2  A    between atoms: O2_4  and  C3_5 
REMARK    3  A    between atoms: C3_5  and  C4_6 
REMARK    4  A    between atoms: C4_6  and  O3_7 
REMARK    5  A    between atoms: O3_7  and  C5_8 
REMARK    6  A    between atoms: C5_8  and  N1_9 
REMARK    7  A    between atoms: N2_12  and  N3_13 
REMARK    8  A    between atoms: C8_14  and  O4_15 
REMARK    9  A    between atoms: C9_17  and  O5_18 
REMARK   10  A    between atoms: N4_22  and  N5_24 
ROOT
HETATM    1  N3  UNL     1      37.283   5.993  17.306  1.00  0.00    -0.199 N 
HETATM    2  C8  UNL     1      36.531   6.936  17.886  1.00  0.00     0.199 A 
HETATM    3  C9  UNL     1      36.339   6.638  19.234  1.00  0.00     0.136 A 
HETATM    4  C10 UNL     1      36.998   5.472  19.485  1.00  0.00     0.093 A 
HETATM    5  C11 UNL     1      37.176   4.692  20.607  1.00  0.00     0.138 A 
HETATM    6  N4  UNL     1      36.709   4.915  21.737  1.00  0.00    -0.291 N 
ATOM      7  H4  UNL     1      37.008   4.171  22.368  1.00  0.00     0.188 HD
HETATM    8  N6  UNL     1      37.941   3.557  20.435  1.00  0.00    -0.318 N 
ATOM      9  H6  UNL     1      38.092   2.958  21.246  1.00  0.00     0.169 HD
HETATM   10  C12 UNL     1      38.492   3.192  19.286  1.00  0.00     0.191 A 
HETATM   11  C13 UNL     1      39.294   1.974  19.185  1.00  0.00     0.137 C 
HETATM   12  N7  UNL     1      39.942   1.025  19.105  1.00  0.00    -0.188 NA
HETATM   13  N8  UNL     1      38.307   3.965  18.206  1.00  0.00    -0.317 N 
ATOM     14  H8  UNL     1      38.725   3.699  17.314  1.00  0.00     0.169 HD
HETATM   15  C14 UNL     1      37.569   5.094  18.291  1.00  0.00     0.150 A 
ENDROOT
BRANCH   6  16
HETATM   16  N5  UNL     1      35.959   5.773  22.418  1.00  0.00    -0.344 N 
ATOM     17  H52 UNL     1      36.143   6.700  22.035  1.00  0.00     0.176 HD
ATOM     18  H51 UNL     1      35.278   5.830  23.175  1.00  0.00     0.176 HD
ENDBRANCH   6  16
BRANCH   1  19
HETATM   19  N2  UNL     1      37.701   5.935  15.980  1.00  0.00    -0.208 N 
HETATM   20  C7  UNL     1      38.736   6.865  15.591  1.00  0.00     0.183 C 
HETATM   21  C6  UNL     1      39.198   6.659  14.165  1.00  0.00     0.136 C 
HETATM   22  N1  UNL     1      38.764   5.356  13.763  1.00  0.00    -0.192 NA
HETATM   23  N11 UNL     1      37.555   5.379  13.055  1.00  0.00    -0.034 NA
HETATM   24  N10 UNL     1      36.543   5.509  14.013  1.00  0.00     0.002 NA
HETATM   25  N9  UNL     1      37.046   4.977  15.215  1.00  0.00     0.007 NA
BRANCH  22  26
HETATM   26  C5  UNL     1      39.775   4.550  13.111  1.00  0.00     0.279 C 
BRANCH  26  27
HETATM   27  O3  UNL     1      40.181   3.487  13.845  1.00  0.00    -0.374 OA
BRANCH  27  28
HETATM   28  C4  UNL     1      39.359   2.434  14.030  1.00  0.00     0.196 C 
BRANCH  28  29
HETATM   29  C3  UNL     1      38.845   1.702  12.846  1.00  0.00     0.205 C 
BRANCH  29  30
HETATM   30  O2  UNL     1      37.545   2.093  12.468  1.00  0.00    -0.320 OA
BRANCH  30  31
HETATM   31  C2  UNL     1      36.385   1.445  12.771  1.00  0.00     0.254 C 
HETATM   32  C1  UNL     1      36.121   0.035  12.350  1.00  0.00     0.126 C 
HETATM   33  O1  UNL     1      35.494   2.073  13.439  1.00  0.00    -0.266 OA
ENDBRANCH  30  31
ENDBRANCH  29  30
ENDBRANCH  28  29
ENDBRANCH  27  28
ENDBRANCH  26  27
ENDBRANCH  22  26
ENDBRANCH   1  19
BRANCH   3  34
HETATM   34  O5  UNL     1      35.623   7.376  20.151  1.00  0.00    -0.356 OA
ATOM     35  H5  UNL     1      35.963   7.814  20.923  1.00  0.00     0.218 HD
ENDBRANCH   3  34
BRANCH   2  36
HETATM   36  O4  UNL     1      36.004   8.063  17.249  1.00  0.00    -0.343 OA
ATOM     37  H4  UNL     1      35.394   8.053  16.520  1.00  0.00     0.219 HD
ENDBRANCH   2  36
TORSDOF 10
ENDMDL
