MODEL 1
REMARK VINA RESULT: -6.224612343      0.000      0.000
REMARK  12 active torsions:
REMARK  status: ('A' for Active; 'I' for Inactive)
REMARK    1  A    between atoms: C2_2  and  O1_3 
REMARK    2  A    between atoms: O1_3  and  C3_4 
REMARK    3  A    between atoms: C6_9  and  N2_10 
REMARK    4  A    between atoms: C9_16  and  O3_17 
REMARK    5  A    between atoms: N4_19  and  C10_20 
REMARK    6  A    between atoms: C10_20  and  O4_21 
REMARK    7  A    between atoms: C10_20  and  C11_23 
REMARK    8  A    between atoms: C11_23  and  C12_25 
REMARK    9  A    between atoms: C12_25  and  N5_26 
REMARK   10  A    between atoms: C12_25  and  O6_30 
REMARK   11  A    between atoms: C14_35  and  O8_36 
REMARK   12  A    between atoms: C15_38  and  O9_39 
ROOT
HETATM    1  N2  UNL     1      37.029   4.269  13.820  1.00  0.00    -0.173 N 
HETATM    2  C7  UNL     1      36.071   4.966  13.184  1.00  0.00     0.349 A 
HETATM    3  O2  UNL     1      35.510   4.703  12.087  1.00  0.00    -0.244 OA
HETATM    4  N3  UNL     1      35.754   6.064  13.913  1.00  0.00    -0.288 N 
ATOM      5  H3  UNL     1      35.063   6.778  13.685  1.00  0.00     0.172 HD
HETATM    6  C8  UNL     1      36.544   6.013  15.006  1.00  0.00     0.188 A 
HETATM    7  C9  UNL     1      36.904   6.639  16.205  1.00  0.00     0.196 A 
HETATM    8  N4  UNL     1      37.849   5.937  16.816  1.00  0.00    -0.240 N 
HETATM    9  C13 UNL     1      38.105   4.872  16.034  1.00  0.00     0.354 A 
HETATM   10  O7  UNL     1      38.936   3.960  16.252  1.00  0.00    -0.244 OA
HETATM   11  N6  UNL     1      37.321   4.920  14.948  1.00  0.00    -0.171 N 
ENDROOT
BRANCH   1  12
HETATM   12  C6  UNL     1      37.613   3.056  13.353  1.00  0.00     0.169 A 
HETATM   13  N1  UNL     1      38.923   2.967  13.067  1.00  0.00    -0.340 N 
HETATM   14  C4  UNL     1      39.511   1.845  12.626  1.00  0.00     0.043 A 
ATOM     15  H1  UNL     1      39.501   3.797  13.191  1.00  0.00     0.167 HD
HETATM   16  C3  UNL     1      38.702   0.722  12.463  1.00  0.00     0.127 A 
HETATM   17  C5  UNL     1      40.981   1.783  12.318  1.00  0.00     0.071 C 
HETATM   18  C15 UNL     1      37.358   0.747  12.737  1.00  0.00     0.138 A 
HETATM   19  C14 UNL     1      36.811   1.946  13.192  1.00  0.00     0.148 A 
BRANCH  16  20
HETATM   20  O1  UNL     1      39.313  -0.414  12.015  1.00  0.00    -0.347 OA
BRANCH  20  21
HETATM   21  C2  UNL     1      39.675  -1.474  12.851  1.00  0.00     0.171 C 
HETATM   22  C1  UNL     1      41.085  -1.961  12.628  1.00  0.00     0.034 C 
ENDBRANCH  20  21
ENDBRANCH  16  20
BRANCH  18  23
HETATM   23  O9  UNL     1      36.528  -0.348  12.588  1.00  0.00    -0.356 OA
ATOM     24  H9  UNL     1      35.683  -0.426  13.013  1.00  0.00     0.218 HD
ENDBRANCH  18  23
BRANCH  19  25
HETATM   25  O8  UNL     1      35.452   2.000  13.477  1.00  0.00    -0.355 OA
ATOM     26  H8  UNL     1      34.942   1.205  13.574  1.00  0.00     0.218 HD
ENDBRANCH  19  25
ENDBRANCH   1  12
BRANCH   7  27
HETATM   27  O3  UNL     1      36.341   7.809  16.656  1.00  0.00    -0.343 OA
ATOM     28  H3  UNL     1      36.783   8.420  17.235  1.00  0.00     0.219 HD
ENDBRANCH   7  27
BRANCH   8  29
HETATM   29  C10 UNL     1      38.521   6.201  18.078  1.00  0.00     0.306 C 
BRANCH  29  30
HETATM   30  O4  UNL     1      39.835   5.814  18.073  1.00  0.00    -0.369 OA
ATOM     31  H4  UNL     1      40.329   6.175  18.800  1.00  0.00     0.212 HD
ENDBRANCH  29  30
BRANCH  29  32
HETATM   32  C11 UNL     1      37.805   5.589  19.221  1.00  0.00     0.231 C 
HETATM   33  O5  UNL     1      36.684   5.910  19.572  1.00  0.00    -0.288 OA
BRANCH  32  34
HETATM   34  C12 UNL     1      38.483   4.518  19.996  1.00  0.00     0.391 C 
BRANCH  34  35
HETATM   35  N5  UNL     1      38.444   3.236  19.324  1.00  0.00    -0.046 N 
ATOM     36  H53 UNL     1      37.486   2.969  19.100  1.00  0.00     0.277 HD
ATOM     37  H52 UNL     1      38.821   3.305  18.379  1.00  0.00     0.277 HD
ATOM     38  H51 UNL     1      38.914   2.501  19.853  1.00  0.00     0.277 HD
ENDBRANCH  34  35
BRANCH  34  39
HETATM   39  O6  UNL     1      37.932   4.356  21.257  1.00  0.00    -0.364 OA
ATOM     40  H6  UNL     1      38.491   4.704  21.941  1.00  0.00     0.212 HD
ENDBRANCH  34  39
ENDBRANCH  32  34
ENDBRANCH  29  32
ENDBRANCH   8  29
TORSDOF 12
ENDMDL
MODEL 2
REMARK VINA RESULT: -6.128811130      2.091      3.062
REMARK  12 active torsions:
REMARK  status: ('A' for Active; 'I' for Inactive)
REMARK    1  A    between atoms: C2_2  and  O1_3 
REMARK    2  A    between atoms: O1_3  and  C3_4 
REMARK    3  A    between atoms: C6_9  and  N2_10 
REMARK    4  A    between atoms: C9_16  and  O3_17 
REMARK    5  A    between atoms: N4_19  and  C10_20 
REMARK    6  A    between atoms: C10_20  and  O4_21 
REMARK    7  A    between atoms: C10_20  and  C11_23 
REMARK    8  A    between atoms: C11_23  and  C12_25 
REMARK    9  A    between atoms: C12_25  and  N5_26 
REMARK   10  A    between atoms: C12_25  and  O6_30 
REMARK   11  A    between atoms: C14_35  and  O8_36 
REMARK   12  A    between atoms: C15_38  and  O9_39 
ROOT
HETATM    1  N2  UNL     1      37.485   5.857  15.972  1.00  0.00    -0.173 N 
HETATM    2  C7  UNL     1      36.729   6.939  15.716  1.00  0.00     0.349 A 
HETATM    3  O2  UNL     1      36.460   7.460  14.602  1.00  0.00    -0.244 OA
HETATM    4  N3  UNL     1      36.255   7.441  16.883  1.00  0.00    -0.288 N 
ATOM      5  H3  UNL     1      35.655   8.257  17.005  1.00  0.00     0.172 HD
HETATM    6  C8  UNL     1      36.742   6.636  17.849  1.00  0.00     0.188 A 
HETATM    7  C9  UNL     1      36.797   6.378  19.224  1.00  0.00     0.196 A 
HETATM    8  N4  UNL     1      37.546   5.308  19.454  1.00  0.00    -0.240 N 
HETATM    9  C13 UNL     1      37.975   4.872  18.255  1.00  0.00     0.354 A 
HETATM   10  O7  UNL     1      38.710   3.883  18.033  1.00  0.00    -0.244 OA
HETATM   11  N6  UNL     1      37.492   5.671  17.293  1.00  0.00    -0.171 N 
ENDROOT
BRANCH   1  12
HETATM   12  C6  UNL     1      38.149   5.065  14.990  1.00  0.00     0.169 A 
HETATM   13  N1  UNL     1      39.490   4.991  14.933  1.00  0.00    -0.340 N 
HETATM   14  C4  UNL     1      40.153   4.258  14.027  1.00  0.00     0.043 A 
ATOM     15  H1  UNL     1      40.032   5.520  15.615  1.00  0.00     0.167 HD
HETATM   16  C3  UNL     1      39.393   3.543  13.103  1.00  0.00     0.127 A 
HETATM   17  C5  UNL     1      41.654   4.198  13.993  1.00  0.00     0.071 C 
HETATM   18  C15 UNL     1      38.021   3.577  13.108  1.00  0.00     0.138 A 
HETATM   19  C14 UNL     1      37.395   4.359  14.078  1.00  0.00     0.148 A 
BRANCH  16  20
HETATM   20  O1  UNL     1      40.080   2.801  12.186  1.00  0.00    -0.347 OA
BRANCH  20  21
HETATM   21  C2  UNL     1      40.256   1.418  12.292  1.00  0.00     0.171 C 
HETATM   22  C1  UNL     1      41.360   0.884  11.413  1.00  0.00     0.034 C 
ENDBRANCH  20  21
ENDBRANCH  16  20
BRANCH  18  23
HETATM   23  O9  UNL     1      37.237   2.880  12.209  1.00  0.00    -0.356 OA
ATOM     24  H9  UNL     1      36.354   2.589  12.399  1.00  0.00     0.218 HD
ENDBRANCH  18  23
BRANCH  19  25
HETATM   25  O8  UNL     1      36.007   4.412  14.106  1.00  0.00    -0.355 OA
ATOM     26  H8  UNL     1      35.551   4.908  14.776  1.00  0.00     0.218 HD
ENDBRANCH  19  25
ENDBRANCH   1  12
BRANCH   7  27
HETATM   27  O3  UNL     1      36.156   7.141  20.171  1.00  0.00    -0.343 OA
ATOM     28  H3  UNL     1      35.844   6.801  21.002  1.00  0.00     0.219 HD
ENDBRANCH   7  27
BRANCH   8  29
HETATM   29  C10 UNL     1      37.881   4.674  20.719  1.00  0.00     0.306 C 
BRANCH  29  30
HETATM   30  O4  UNL     1      39.212   4.366  20.825  1.00  0.00    -0.369 OA
ATOM     31  H4  UNL     1      39.385   3.438  20.718  1.00  0.00     0.212 HD
ENDBRANCH  29  30
BRANCH  29  32
HETATM   32  C11 UNL     1      37.050   3.474  20.970  1.00  0.00     0.231 C 
HETATM   33  O5  UNL     1      37.266   2.382  20.476  1.00  0.00    -0.288 OA
BRANCH  32  34
HETATM   34  C12 UNL     1      35.880   3.594  21.878  1.00  0.00     0.391 C 
BRANCH  34  35
HETATM   35  N5  UNL     1      35.627   4.962  22.282  1.00  0.00    -0.046 N 
ATOM     36  H53 UNL     1      35.350   5.008  23.263  1.00  0.00     0.277 HD
ATOM     37  H52 UNL     1      36.494   5.496  22.330  1.00  0.00     0.277 HD
ATOM     38  H51 UNL     1      34.943   5.427  21.686  1.00  0.00     0.277 HD
ENDBRANCH  34  35
BRANCH  34  39
HETATM   39  O6  UNL     1      36.027   2.830  23.025  1.00  0.00    -0.364 OA
ATOM     40  H6  UNL     1      36.904   2.889  23.384  1.00  0.00     0.212 HD
ENDBRANCH  34  39
ENDBRANCH  32  34
ENDBRANCH  29  32
ENDBRANCH   8  29
TORSDOF 12
ENDMDL
MODEL 3
REMARK VINA RESULT: -6.117523974      2.356      7.729
REMARK  12 active torsions:
REMARK  status: ('A' for Active; 'I' for Inactive)
REMARK    1  A    between atoms: C2_2  and  O1_3 
REMARK    2  A    between atoms: O1_3  and  C3_4 
REMARK    3  A    between atoms: C6_9  and  N2_10 
REMARK    4  A    between atoms: C9_16  and  O3_17 
REMARK    5  A    between atoms: N4_19  and  C10_20 
REMARK    6  A    between atoms: C10_20  and  O4_21 
REMARK    7  A    between atoms: C10_20  and  C11_23 
REMARK    8  A    between atoms: C11_23  and  C12_25 
REMARK    9  A    between atoms: C12_25  and  N5_26 
REMARK   10  A    between atoms: C12_25  and  O6_30 
REMARK   11  A    between atoms: C14_35  and  O8_36 
REMARK   12  A    between atoms: C15_38  and  O9_39 
ROOT
HETATM    1  N2  UNL     1      39.061   3.213  13.373  1.00  0.00    -0.173 N 
HETATM    2  C7  UNL     1      40.366   3.248  13.055  1.00  0.00     0.349 A 
HETATM    3  O2  UNL     1      41.212   4.144  13.317  1.00  0.00    -0.244 OA
HETATM    4  N3  UNL     1      40.692   2.125  12.368  1.00  0.00    -0.288 N 
ATOM      5  H3  UNL     1      41.608   1.873  11.997  1.00  0.00     0.172 HD
HETATM    6  C8  UNL     1      39.551   1.410  12.281  1.00  0.00     0.188 A 
HETATM    7  C9  UNL     1      38.953   0.237  11.806  1.00  0.00     0.196 A 
HETATM    8  N4  UNL     1      37.667   0.222  12.131  1.00  0.00    -0.240 N 
HETATM    9  C13 UNL     1      37.426   1.362  12.805  1.00  0.00     0.354 A 
HETATM   10  O7  UNL     1      36.331   1.735  13.286  1.00  0.00    -0.244 OA
HETATM   11  N6  UNL     1      38.558   2.074  12.893  1.00  0.00    -0.171 N 
ENDROOT
BRANCH   1  12
HETATM   12  C6  UNL     1      38.361   4.223  14.095  1.00  0.00     0.169 A 
HETATM   13  N1  UNL     1      38.633   4.485  15.385  1.00  0.00    -0.340 N 
HETATM   14  C4  UNL     1      38.000   5.426  16.100  1.00  0.00     0.043 A 
ATOM     15  H1  UNL     1      39.360   3.938  15.846  1.00  0.00     0.167 HD
HETATM   16  C3  UNL     1      37.009   6.162  15.452  1.00  0.00     0.127 A 
HETATM   17  C5  UNL     1      38.332   5.692  17.542  1.00  0.00     0.071 C 
HETATM   18  C15 UNL     1      36.684   5.944  14.137  1.00  0.00     0.138 A 
HETATM   19  C14 UNL     1      37.382   4.949  13.452  1.00  0.00     0.148 A 
BRANCH  16  20
HETATM   20  O1  UNL     1      36.373   7.118  16.190  1.00  0.00    -0.347 OA
BRANCH  20  21
HETATM   21  C2  UNL     1      36.759   8.461  16.207  1.00  0.00     0.171 C 
HETATM   22  C1  UNL     1      35.875   9.329  17.067  1.00  0.00     0.034 C 
ENDBRANCH  20  21
ENDBRANCH  16  20
BRANCH  18  23
HETATM   23  O9  UNL     1      35.710   6.655  13.463  1.00  0.00    -0.356 OA
ATOM     24  H9  UNL     1      35.511   6.531  12.543  1.00  0.00     0.218 HD
ENDBRANCH  18  23
BRANCH  19  25
HETATM   25  O8  UNL     1      37.073   4.707  12.119  1.00  0.00    -0.355 OA
ATOM     26  H8  UNL     1      37.232   3.855  11.729  1.00  0.00     0.218 HD
ENDBRANCH  19  25
ENDBRANCH   1  12
BRANCH   7  27
HETATM   27  O3  UNL     1      39.627  -0.738  11.110  1.00  0.00    -0.343 OA
ATOM     28  H3  UNL     1      39.603  -1.661  11.334  1.00  0.00     0.219 HD
ENDBRANCH   7  27
BRANCH   8  29
HETATM   29  C10 UNL     1      36.659  -0.788  11.851  1.00  0.00     0.306 C 
BRANCH  29  30
HETATM   30  O4  UNL     1      35.387  -0.361  12.127  1.00  0.00    -0.369 OA
ATOM     31  H4  UNL     1      35.287  -0.055  13.021  1.00  0.00     0.212 HD
ENDBRANCH  29  30
BRANCH  29  32
HETATM   32  C11 UNL     1      36.944  -2.059  12.555  1.00  0.00     0.231 C 
HETATM   33  O5  UNL     1      37.987  -2.295  13.139  1.00  0.00    -0.288 OA
BRANCH  32  34
HETATM   34  C12 UNL     1      35.904  -3.121  12.559  1.00  0.00     0.391 C 
BRANCH  34  35
HETATM   35  N5  UNL     1      35.107  -3.123  11.350  1.00  0.00    -0.046 N 
ATOM     36  H53 UNL     1      35.595  -2.653  10.588  1.00  0.00     0.277 HD
ATOM     37  H52 UNL     1      35.045  -4.060  10.953  1.00  0.00     0.277 HD
ATOM     38  H51 UNL     1      34.179  -2.723  11.491  1.00  0.00     0.277 HD
ENDBRANCH  34  35
BRANCH  34  39
HETATM   39  O6  UNL     1      35.042  -3.004  13.638  1.00  0.00    -0.364 OA
ATOM     40  H6  UNL     1      35.219  -3.652  14.310  1.00  0.00     0.212 HD
ENDBRANCH  34  39
ENDBRANCH  32  34
ENDBRANCH  29  32
ENDBRANCH   8  29
TORSDOF 12
ENDMDL
MODEL 4
REMARK VINA RESULT: -6.086784968      2.214      3.720
REMARK  12 active torsions:
REMARK  status: ('A' for Active; 'I' for Inactive)
REMARK    1  A    between atoms: C2_2  and  O1_3 
REMARK    2  A    between atoms: O1_3  and  C3_4 
REMARK    3  A    between atoms: C6_9  and  N2_10 
REMARK    4  A    between atoms: C9_16  and  O3_17 
REMARK    5  A    between atoms: N4_19  and  C10_20 
REMARK    6  A    between atoms: C10_20  and  O4_21 
REMARK    7  A    between atoms: C10_20  and  C11_23 
REMARK    8  A    between atoms: C11_23  and  C12_25 
REMARK    9  A    between atoms: C12_25  and  N5_26 
REMARK   10  A    between atoms: C12_25  and  O6_30 
REMARK   11  A    between atoms: C14_35  and  O8_36 
REMARK   12  A    between atoms: C15_38  and  O9_39 
ROOT
HETATM    1  N2  UNL     1      37.862   6.749  16.438  1.00  0.00    -0.173 N 
HETATM    2  C7  UNL     1      37.961   8.059  16.155  1.00  0.00     0.349 A 
HETATM    3  O2  UNL     1      38.105   8.608  15.030  1.00  0.00    -0.244 OA
HETATM    4  N3  UNL     1      37.882   8.774  17.304  1.00  0.00    -0.288 N 
ATOM      5  H3  UNL     1      37.927   9.788  17.404  1.00  0.00     0.172 HD
HETATM    6  C8  UNL     1      37.732   7.864  18.288  1.00  0.00     0.188 A 
HETATM    7  C9  UNL     1      37.581   7.660  19.665  1.00  0.00     0.196 A 
HETATM    8  N4  UNL     1      37.485   6.363  19.922  1.00  0.00    -0.240 N 
HETATM    9  C13 UNL     1      37.572   5.727  18.739  1.00  0.00     0.354 A 
HETATM   10  O7  UNL     1      37.526   4.490  18.544  1.00  0.00    -0.244 OA
HETATM   11  N6  UNL     1      37.721   6.630  17.759  1.00  0.00    -0.171 N 
ENDROOT
BRANCH   1  12
HETATM   12  C6  UNL     1      37.902   5.694  15.481  1.00  0.00     0.169 A 
HETATM   13  N1  UNL     1      38.838   4.731  15.530  1.00  0.00    -0.340 N 
HETATM   14  C4  UNL     1      38.912   3.721  14.651  1.00  0.00     0.043 A 
ATOM     15  H1  UNL     1      39.531   4.770  16.278  1.00  0.00     0.167 HD
HETATM   16  C3  UNL     1      37.955   3.687  13.637  1.00  0.00     0.127 A 
HETATM   17  C5  UNL     1      39.973   2.661  14.739  1.00  0.00     0.071 C 
HETATM   18  C15 UNL     1      36.974   4.640  13.530  1.00  0.00     0.138 A 
HETATM   19  C14 UNL     1      36.956   5.662  14.479  1.00  0.00     0.148 A 
BRANCH  16  20
HETATM   20  O1  UNL     1      38.040   2.654  12.748  1.00  0.00    -0.347 OA
BRANCH  20  21
HETATM   21  C2  UNL     1      37.216   1.526  12.799  1.00  0.00     0.171 C 
HETATM   22  C1  UNL     1      37.836   0.301  12.174  1.00  0.00     0.034 C 
ENDBRANCH  20  21
ENDBRANCH  16  20
BRANCH  18  23
HETATM   23  O9  UNL     1      36.010   4.635  12.540  1.00  0.00    -0.356 OA
ATOM     24  H9  UNL     1      35.608   5.424  12.197  1.00  0.00     0.218 HD
ENDBRANCH  18  23
BRANCH  19  25
HETATM   25  O8  UNL     1      35.973   6.641  14.395  1.00  0.00    -0.355 OA
ATOM     26  H8  UNL     1      35.995   7.297  13.708  1.00  0.00     0.218 HD
ENDBRANCH  19  25
ENDBRANCH   1  12
BRANCH   7  27
HETATM   27  O3  UNL     1      37.542   8.677  20.588  1.00  0.00    -0.343 OA
ATOM     28  H3  UNL     1      36.860   8.771  21.244  1.00  0.00     0.219 HD
ENDBRANCH   7  27
BRANCH   8  29
HETATM   29  C10 UNL     1      37.318   5.688  21.199  1.00  0.00     0.306 C 
BRANCH  29  30
HETATM   30  O4  UNL     1      38.268   4.726  21.422  1.00  0.00    -0.369 OA
ATOM     31  H4  UNL     1      38.046   3.890  21.028  1.00  0.00     0.212 HD
ENDBRANCH  29  30
BRANCH  29  32
HETATM   32  C11 UNL     1      35.959   5.118  21.347  1.00  0.00     0.231 C 
HETATM   33  O5  UNL     1      34.939   5.783  21.352  1.00  0.00    -0.288 OA
BRANCH  32  34
HETATM   34  C12 UNL     1      35.816   3.647  21.499  1.00  0.00     0.391 C 
BRANCH  34  35
HETATM   35  N5  UNL     1      35.979   3.210  22.870  1.00  0.00    -0.046 N 
ATOM     36  H53 UNL     1      36.964   3.188  23.133  1.00  0.00     0.277 HD
ATOM     37  H52 UNL     1      35.650   3.922  23.523  1.00  0.00     0.277 HD
ATOM     38  H51 UNL     1      35.531   2.312  23.052  1.00  0.00     0.277 HD
ENDBRANCH  34  35
BRANCH  34  39
HETATM   39  O6  UNL     1      36.725   2.950  20.719  1.00  0.00    -0.364 OA
ATOM     40  H6  UNL     1      36.632   2.009  20.814  1.00  0.00     0.212 HD
ENDBRANCH  34  39
ENDBRANCH  32  34
ENDBRANCH  29  32
ENDBRANCH   8  29
TORSDOF 12
ENDMDL
MODEL 5
REMARK VINA RESULT: -6.059629470      4.192      6.311
REMARK  12 active torsions:
REMARK  status: ('A' for Active; 'I' for Inactive)
REMARK    1  A    between atoms: C2_2  and  O1_3 
REMARK    2  A    between atoms: O1_3  and  C3_4 
REMARK    3  A    between atoms: C6_9  and  N2_10 
REMARK    4  A    between atoms: C9_16  and  O3_17 
REMARK    5  A    between atoms: N4_19  and  C10_20 
REMARK    6  A    between atoms: C10_20  and  O4_21 
REMARK    7  A    between atoms: C10_20  and  C11_23 
REMARK    8  A    between atoms: C11_23  and  C12_25 
REMARK    9  A    between atoms: C12_25  and  N5_26 
REMARK   10  A    between atoms: C12_25  and  O6_30 
REMARK   11  A    between atoms: C14_35  and  O8_36 
REMARK   12  A    between atoms: C15_38  and  O9_39 
ROOT
HETATM    1  N2  UNL     1      37.499   1.795  12.806  1.00  0.00    -0.173 N 
HETATM    2  C7  UNL     1      36.526   2.686  13.060  1.00  0.00     0.349 A 
HETATM    3  O2  UNL     1      35.328   2.467  13.381  1.00  0.00    -0.244 OA
HETATM    4  N3  UNL     1      37.020   3.942  12.922  1.00  0.00    -0.288 N 
ATOM      5  H3  UNL     1      36.517   4.820  13.051  1.00  0.00     0.172 HD
HETATM    6  C8  UNL     1      38.315   3.786  12.579  1.00  0.00     0.188 A 
HETATM    7  C9  UNL     1      39.513   4.433  12.256  1.00  0.00     0.196 A 
HETATM    8  N4  UNL     1      40.459   3.536  12.009  1.00  0.00    -0.240 N 
HETATM    9  C13 UNL     1      39.893   2.325  12.167  1.00  0.00     0.354 A 
HETATM   10  O7  UNL     1      40.448   1.211  12.024  1.00  0.00    -0.244 OA
HETATM   11  N6  UNL     1      38.606   2.477  12.508  1.00  0.00    -0.171 N 
ENDROOT
BRANCH   1  12
HETATM   12  C6  UNL     1      37.351   0.378  12.853  1.00  0.00     0.169 A 
HETATM   13  N1  UNL     1      37.658  -0.328  13.955  1.00  0.00    -0.340 N 
HETATM   14  C4  UNL     1      37.533  -1.660  14.041  1.00  0.00     0.043 A 
ATOM     15  H1  UNL     1      38.006   0.177  14.769  1.00  0.00     0.167 HD
HETATM   16  C3  UNL     1      37.055  -2.331  12.916  1.00  0.00     0.127 A 
HETATM   17  C5  UNL     1      37.886  -2.416  15.291  1.00  0.00     0.071 C 
HETATM   18  C15 UNL     1      36.724  -1.669  11.761  1.00  0.00     0.138 A 
HETATM   19  C14 UNL     1      36.879  -0.283  11.740  1.00  0.00     0.148 A 
BRANCH  16  20
HETATM   20  O1  UNL     1      36.931  -3.686  13.016  1.00  0.00    -0.347 OA
BRANCH  20  21
HETATM   21  C2  UNL     1      36.014  -4.433  12.271  1.00  0.00     0.171 C 
HETATM   22  C1  UNL     1      34.652  -4.525  12.913  1.00  0.00     0.034 C 
ENDBRANCH  20  21
ENDBRANCH  16  20
BRANCH  18  23
HETATM   23  O9  UNL     1      36.247  -2.301  10.629  1.00  0.00    -0.356 OA
ATOM     24  H9  UNL     1      36.495  -2.055   9.746  1.00  0.00     0.218 HD
ENDBRANCH  18  23
BRANCH  19  25
HETATM   25  O8  UNL     1      36.551   0.413  10.582  1.00  0.00    -0.355 OA
ATOM     26  H8  UNL     1      35.654   0.445  10.270  1.00  0.00     0.218 HD
ENDBRANCH  19  25
ENDBRANCH   1  12
BRANCH   7  27
HETATM   27  O3  UNL     1      39.657   5.799  12.210  1.00  0.00    -0.343 OA
ATOM     28  H3  UNL     1      39.629   6.308  11.408  1.00  0.00     0.219 HD
ENDBRANCH   7  27
BRANCH   8  29
HETATM   29  C10 UNL     1      41.850   3.744  11.638  1.00  0.00     0.306 C 
BRANCH  29  30
HETATM   30  O4  UNL     1      42.324   4.971  12.020  1.00  0.00    -0.369 OA
ATOM     31  H4  UNL     1      42.717   4.962  12.884  1.00  0.00     0.212 HD
ENDBRANCH  29  30
BRANCH  29  32
HETATM   32  C11 UNL     1      42.071   3.530  10.190  1.00  0.00     0.231 C 
HETATM   33  O5  UNL     1      42.334   2.449   9.693  1.00  0.00    -0.288 OA
BRANCH  32  34
HETATM   34  C12 UNL     1      41.970   4.695   9.273  1.00  0.00     0.391 C 
BRANCH  34  35
HETATM   35  N5  UNL     1      40.635   5.256   9.232  1.00  0.00    -0.046 N 
ATOM     36  H53 UNL     1      40.287   5.444  10.172  1.00  0.00     0.277 HD
ATOM     37  H52 UNL     1      40.648   6.208   8.867  1.00  0.00     0.277 HD
ATOM     38  H51 UNL     1      39.981   4.673   8.709  1.00  0.00     0.277 HD
ENDBRANCH  34  35
BRANCH  34  39
HETATM   39  O6  UNL     1      42.338   4.375   7.977  1.00  0.00    -0.364 OA
ATOM     40  H6  UNL     1      42.485   5.147   7.444  1.00  0.00     0.212 HD
ENDBRANCH  34  39
ENDBRANCH  32  34
ENDBRANCH  29  32
ENDBRANCH   8  29
TORSDOF 12
ENDMDL
