MODEL 1
REMARK VINA RESULT: -6.972353392      0.000      0.000
REMARK  10 active torsions:
REMARK  status: ('A' for Active; 'I' for Inactive)
REMARK    1  A    between atoms: C3_5  and  N2_6 
REMARK       I    between atoms: N2_6  and  C4_8 
REMARK       I    between atoms: C4_8  and  N3_9 
REMARK       I    between atoms: C4_8  and  N4_13 
REMARK    2  A    between atoms: C5_17  and  O1_19 
REMARK    3  A    between atoms: C8_24  and  C9_25 
REMARK       I    between atoms: C9_25  and  N6_27 
REMARK    4  A    between atoms: N6_27  and  C10_29 
REMARK    5  A    between atoms: C10_29  and  C11_30 
REMARK    6  A    between atoms: C11_30  and  N7_31 
REMARK    7  A    between atoms: C11_30  and  N8_35 
REMARK    8  A    between atoms: N7_31  and  O3_33 
REMARK    9  A    between atoms: N8_35  and  N9_37 
REMARK   10  A    between atoms: C12_38  and  O4_39 
ROOT
HETATM    1  C1  UNL     1      36.103   3.786  13.492  1.00  0.00     0.057 C 
HETATM    2  C2  UNL     1      36.680   5.150  13.100  1.00  0.00     0.204 C 
HETATM    3  N1  UNL     1      37.817   4.905  12.273  1.00  0.00    -0.354 N 
ATOM      4  H1  UNL     1      37.737   4.157  11.584  1.00  0.00     0.163 HD
HETATM    5  C3  UNL     1      38.926   5.539  12.318  1.00  0.00     0.120 C 
HETATM    6  C5  UNL     1      39.104   6.623  13.285  1.00  0.00     0.171 C 
HETATM    7  C6  UNL     1      40.507   6.496  13.866  1.00  0.00     0.063 C 
HETATM    8  C7  UNL     1      38.093   6.641  14.355  1.00  0.00     0.144 A 
HETATM    9  N5  UNL     1      38.091   7.287  15.526  1.00  0.00    -0.322 N 
ATOM     10  H5  UNL     1      38.832   7.898  15.871  1.00  0.00     0.169 HD
HETATM   11  C8  UNL     1      36.945   6.996  16.172  1.00  0.00     0.191 A 
HETATM   12  N11 UNL     1      36.278   6.166  15.352  1.00  0.00    -0.275 N 
ATOM     13  H11 UNL     1      35.364   5.761  15.553  1.00  0.00     0.189 HD
HETATM   14  N12 UNL     1      36.968   5.949  14.252  1.00  0.00    -0.252 N 
ENDROOT
BRANCH  11  15
HETATM   15  C9  UNL     1      36.549   7.495  17.484  1.00  0.00     0.287 C 
HETATM   16  O2  UNL     1      35.831   8.528  17.515  1.00  0.00    -0.264 OA
HETATM   17  N6  UNL     1      36.939   6.869  18.689  1.00  0.00    -0.351 N 
ATOM     18  H6  UNL     1      37.520   6.032  18.661  1.00  0.00     0.162 HD
BRANCH  17  19
HETATM   19  C10 UNL     1      36.513   7.413  19.969  1.00  0.00     0.172 C 
BRANCH  19  20
HETATM   20  C11 UNL     1      36.423   6.306  20.973  1.00  0.00     0.237 C 
BRANCH  20  21
HETATM   21  N7  UNL     1      36.474   6.795  22.318  1.00  0.00    -0.279 N 
ATOM     22  H7  UNL     1      37.310   7.280  22.643  1.00  0.00     0.190 HD
BRANCH  21  23
HETATM   23  O3  UNL     1      35.554   6.643  23.065  1.00  0.00    -0.292 OA
ATOM     24  H3  UNL     1      35.232   5.774  23.275  1.00  0.00     0.244 HD
ENDBRANCH  21  23
ENDBRANCH  20  21
BRANCH  20  25
HETATM   25  N8  UNL     1      37.383   5.252  20.798  1.00  0.00    -0.297 N 
ATOM     26  H8  UNL     1      38.332   5.520  20.536  1.00  0.00     0.183 HD
BRANCH  25  27
HETATM   27  N9  UNL     1      37.122   3.888  20.957  1.00  0.00    -0.184 N 
HETATM   28  C12 UNL     1      36.249   3.258  21.749  1.00  0.00     0.181 A 
HETATM   29  C13 UNL     1      36.373   1.896  21.504  1.00  0.00     0.150 A 
HETATM   30  N10 UNL     1      37.315   1.719  20.571  1.00  0.00    -0.313 N 
HETATM   31  C14 UNL     1      37.775   2.929  20.235  1.00  0.00     0.347 A 
ATOM     32  H10 UNL     1      37.626   0.827  20.187  1.00  0.00     0.170 HD
HETATM   33  O5  UNL     1      38.676   3.098  19.374  1.00  0.00    -0.245 OA
BRANCH  28  34
HETATM   34  O4  UNL     1      35.379   3.849  22.652  1.00  0.00    -0.344 OA
ATOM     35  H4  UNL     1      34.497   4.152  22.471  1.00  0.00     0.219 HD
ENDBRANCH  28  34
ENDBRANCH  25  27
ENDBRANCH  20  25
ENDBRANCH  19  20
ENDBRANCH  17  19
ENDBRANCH  11  15
BRANCH   6  36
HETATM   36  O1  UNL     1      39.077   7.843  12.575  1.00  0.00    -0.374 OA
ATOM     37  H1  UNL     1      39.930   8.250  12.666  1.00  0.00     0.211 HD
ENDBRANCH   6  36
BRANCH   5  38
HETATM   38  N2  UNL     1      39.975   5.192  11.436  1.00  0.00    -0.328 N 
HETATM   39  C4  UNL     1      39.844   5.427  10.040  1.00  0.00     0.481 C 
HETATM   40  N3  UNL     1      39.644   6.834   9.734  1.00  0.00    -0.033 N 
HETATM   41  N4  UNL     1      40.986   4.976   9.271  1.00  0.00    -0.033 N 
ATOM     42  H33 UNL     1      38.848   7.213  10.248  1.00  0.00     0.278 HD
ATOM     43  H32 UNL     1      40.385   7.408  10.137  1.00  0.00     0.278 HD
ATOM     44  H31 UNL     1      39.550   7.003   8.733  1.00  0.00     0.278 HD
ATOM     45  H43 UNL     1      41.848   5.388   9.628  1.00  0.00     0.278 HD
ATOM     46  H42 UNL     1      41.179   3.991   9.455  1.00  0.00     0.278 HD
ATOM     47  H41 UNL     1      40.892   5.144   8.269  1.00  0.00     0.278 HD
ATOM     48  H2  UNL     1      40.829   4.771  11.803  1.00  0.00     0.164 HD
ENDBRANCH   5  38
TORSDOF 10
ENDMDL
MODEL 2
REMARK VINA RESULT: -6.940458424      3.677      8.472
REMARK  10 active torsions:
REMARK  status: ('A' for Active; 'I' for Inactive)
REMARK    1  A    between atoms: C3_5  and  N2_6 
REMARK       I    between atoms: N2_6  and  C4_8 
REMARK       I    between atoms: C4_8  and  N3_9 
REMARK       I    between atoms: C4_8  and  N4_13 
REMARK    2  A    between atoms: C5_17  and  O1_19 
REMARK    3  A    between atoms: C8_24  and  C9_25 
REMARK       I    between atoms: C9_25  and  N6_27 
REMARK    4  A    between atoms: N6_27  and  C10_29 
REMARK    5  A    between atoms: C10_29  and  C11_30 
REMARK    6  A    between atoms: C11_30  and  N7_31 
REMARK    7  A    between atoms: C11_30  and  N8_35 
REMARK    8  A    between atoms: N7_31  and  O3_33 
REMARK    9  A    between atoms: N8_35  and  N9_37 
REMARK   10  A    between atoms: C12_38  and  O4_39 
ROOT
HETATM    1  C1  UNL     1      36.094   9.814  17.387  1.00  0.00     0.057 C 
HETATM    2  C2  UNL     1      35.967   8.425  18.020  1.00  0.00     0.204 C 
HETATM    3  N1  UNL     1      36.586   8.489  19.304  1.00  0.00    -0.354 N 
ATOM      4  H1  UNL     1      36.420   9.330  19.858  1.00  0.00     0.163 HD
HETATM    5  C3  UNL     1      37.329   7.588  19.823  1.00  0.00     0.120 C 
HETATM    6  C5  UNL     1      37.606   6.357  19.079  1.00  0.00     0.171 C 
HETATM    7  C6  UNL     1      39.079   6.021  19.279  1.00  0.00     0.063 C 
HETATM    8  C7  UNL     1      37.276   6.439  17.647  1.00  0.00     0.144 A 
HETATM    9  N5  UNL     1      37.635   5.643  16.634  1.00  0.00    -0.322 N 
ATOM     10  H5  UNL     1      38.224   4.813  16.709  1.00  0.00     0.169 HD
HETATM   11  C8  UNL     1      37.086   6.120  15.500  1.00  0.00     0.191 A 
HETATM   12  N11 UNL     1      36.399   7.212  15.873  1.00  0.00    -0.275 N 
ATOM     13  H11 UNL     1      35.864   7.807  15.240  1.00  0.00     0.189 HD
HETATM   14  N12 UNL     1      36.510   7.409  17.170  1.00  0.00    -0.252 N 
ENDROOT
BRANCH  11  15
HETATM   15  C9  UNL     1      37.231   5.544  14.168  1.00  0.00     0.287 C 
HETATM   16  O2  UNL     1      36.947   6.279  13.187  1.00  0.00    -0.264 OA
HETATM   17  N6  UNL     1      37.670   4.218  13.953  1.00  0.00    -0.351 N 
ATOM     18  H6  UNL     1      37.900   3.624  14.750  1.00  0.00     0.162 HD
BRANCH  17  19
HETATM   19  C10 UNL     1      37.796   3.697  12.602  1.00  0.00     0.172 C 
BRANCH  19  20
HETATM   20  C11 UNL     1      37.049   2.404  12.497  1.00  0.00     0.237 C 
BRANCH  20  21
HETATM   21  N7  UNL     1      35.984   2.320  13.451  1.00  0.00    -0.279 N 
ATOM     22  H7  UNL     1      35.991   1.574  14.146  1.00  0.00     0.190 HD
BRANCH  21  23
HETATM   23  O3  UNL     1      35.087   3.111  13.445  1.00  0.00    -0.292 OA
ATOM     24  H3  UNL     1      35.130   3.904  13.966  1.00  0.00     0.244 HD
ENDBRANCH  21  23
ENDBRANCH  20  21
BRANCH  20  25
HETATM   25  N8  UNL     1      37.867   1.225  12.572  1.00  0.00    -0.297 N 
ATOM     26  H8  UNL     1      38.857   1.354  12.782  1.00  0.00     0.183 HD
BRANCH  25  27
HETATM   27  N9  UNL     1      37.415  -0.083  12.379  1.00  0.00    -0.184 N 
HETATM   28  C12 UNL     1      36.743  -0.629  11.361  1.00  0.00     0.181 A 
HETATM   29  C13 UNL     1      36.562  -1.974  11.655  1.00  0.00     0.150 A 
HETATM   30  N10 UNL     1      37.125  -2.226  12.842  1.00  0.00    -0.313 N 
HETATM   31  C14 UNL     1      37.646  -1.078  13.287  1.00  0.00     0.347 A 
ATOM     32  H10 UNL     1      37.153  -3.127  13.320  1.00  0.00     0.170 HD
HETATM   33  O5  UNL     1      38.248  -0.986  14.388  1.00  0.00    -0.245 OA
BRANCH  28  34
HETATM   34  O4  UNL     1      36.301   0.024  10.220  1.00  0.00    -0.344 OA
ATOM     35  H4  UNL     1      36.016  -0.384   9.411  1.00  0.00     0.219 HD
ENDBRANCH  28  34
ENDBRANCH  25  27
ENDBRANCH  20  25
ENDBRANCH  19  20
ENDBRANCH  17  19
ENDBRANCH  11  15
BRANCH   6  36
HETATM   36  O1  UNL     1      36.874   5.314  19.684  1.00  0.00    -0.374 OA
ATOM     37  H1  UNL     1      37.123   4.501  19.259  1.00  0.00     0.211 HD
ENDBRANCH   6  36
BRANCH   5  38
HETATM   38  N2  UNL     1      37.881   7.780  21.110  1.00  0.00    -0.328 N 
HETATM   39  C4  UNL     1      37.043   7.752  22.260  1.00  0.00     0.481 C 
HETATM   40  N3  UNL     1      36.358   6.479  22.411  1.00  0.00    -0.033 N 
HETATM   41  N4  UNL     1      37.753   8.010  23.495  1.00  0.00    -0.033 N 
ATOM     42  H33 UNL     1      35.835   6.239  21.568  1.00  0.00     0.278 HD
ATOM     43  H32 UNL     1      37.019   5.702  22.417  1.00  0.00     0.278 HD
ATOM     44  H31 UNL     1      35.757   6.458  23.235  1.00  0.00     0.278 HD
ATOM     45  H43 UNL     1      38.538   7.366  23.603  1.00  0.00     0.278 HD
ATOM     46  H42 UNL     1      38.264   8.891  23.442  1.00  0.00     0.278 HD
ATOM     47  H41 UNL     1      37.153   7.990  24.320  1.00  0.00     0.278 HD
ATOM     48  H2  UNL     1      38.883   7.940  21.216  1.00  0.00     0.164 HD
ENDBRANCH   5  38
TORSDOF 10
ENDMDL
MODEL 3
REMARK VINA RESULT: -6.867630300      3.663      8.253
REMARK  10 active torsions:
REMARK  status: ('A' for Active; 'I' for Inactive)
REMARK    1  A    between atoms: C3_5  and  N2_6 
REMARK       I    between atoms: N2_6  and  C4_8 
REMARK       I    between atoms: C4_8  and  N3_9 
REMARK       I    between atoms: C4_8  and  N4_13 
REMARK    2  A    between atoms: C5_17  and  O1_19 
REMARK    3  A    between atoms: C8_24  and  C9_25 
REMARK       I    between atoms: C9_25  and  N6_27 
REMARK    4  A    between atoms: N6_27  and  C10_29 
REMARK    5  A    between atoms: C10_29  and  C11_30 
REMARK    6  A    between atoms: C11_30  and  N7_31 
REMARK    7  A    between atoms: C11_30  and  N8_35 
REMARK    8  A    between atoms: N7_31  and  O3_33 
REMARK    9  A    between atoms: N8_35  and  N9_37 
REMARK   10  A    between atoms: C12_38  and  O4_39 
ROOT
HETATM    1  C1  UNL     1      36.270   9.881  17.474  1.00  0.00     0.057 C 
HETATM    2  C2  UNL     1      36.067   8.503  18.111  1.00  0.00     0.204 C 
HETATM    3  N1  UNL     1      36.723   8.523  19.378  1.00  0.00    -0.354 N 
ATOM      4  H1  UNL     1      36.631   9.373  19.935  1.00  0.00     0.163 HD
HETATM    5  C3  UNL     1      37.418   7.573  19.877  1.00  0.00     0.120 C 
HETATM    6  C5  UNL     1      37.591   6.328  19.126  1.00  0.00     0.171 C 
HETATM    7  C6  UNL     1      39.042   5.892  19.286  1.00  0.00     0.063 C 
HETATM    8  C7  UNL     1      37.227   6.433  17.704  1.00  0.00     0.144 A 
HETATM    9  N5  UNL     1      37.503   5.615  16.682  1.00  0.00    -0.322 N 
ATOM     10  H5  UNL     1      38.037   4.747  16.741  1.00  0.00     0.169 HD
HETATM   11  C8  UNL     1      36.957   6.130  15.563  1.00  0.00     0.191 A 
HETATM   12  N11 UNL     1      36.356   7.266  15.954  1.00  0.00    -0.275 N 
ATOM     13  H11 UNL     1      35.846   7.896  15.335  1.00  0.00     0.189 HD
HETATM   14  N12 UNL     1      36.516   7.454  17.248  1.00  0.00    -0.252 N 
ENDROOT
BRANCH  11  15
HETATM   15  C9  UNL     1      37.026   5.547  14.229  1.00  0.00     0.287 C 
HETATM   16  O2  UNL     1      36.721   6.288  13.258  1.00  0.00    -0.264 OA
HETATM   17  N6  UNL     1      37.416   4.207  13.999  1.00  0.00    -0.351 N 
ATOM     18  H6  UNL     1      37.662   3.609  14.787  1.00  0.00     0.162 HD
BRANCH  17  19
HETATM   19  C10 UNL     1      37.466   3.680  12.646  1.00  0.00     0.172 C 
BRANCH  19  20
HETATM   20  C11 UNL     1      37.426   2.184  12.695  1.00  0.00     0.237 C 
BRANCH  20  21
HETATM   21  N7  UNL     1      36.137   1.693  13.082  1.00  0.00    -0.279 N 
ATOM     22  H7  UNL     1      35.930   0.699  12.987  1.00  0.00     0.190 HD
BRANCH  21  23
HETATM   23  O3  UNL     1      35.302   2.430  13.514  1.00  0.00    -0.292 OA
ATOM     24  H3  UNL     1      34.973   2.332  14.400  1.00  0.00     0.244 HD
ENDBRANCH  21  23
ENDBRANCH  20  21
BRANCH  20  25
HETATM   25  N8  UNL     1      38.445   1.578  13.506  1.00  0.00    -0.297 N 
ATOM     26  H8  UNL     1      38.852   2.146  14.249  1.00  0.00     0.183 HD
BRANCH  25  27
HETATM   27  N9  UNL     1      38.924   0.273  13.360  1.00  0.00    -0.184 N 
HETATM   28  C12 UNL     1      38.382  -0.895  13.714  1.00  0.00     0.181 A 
HETATM   29  C13 UNL     1      39.257  -1.898  13.318  1.00  0.00     0.150 A 
HETATM   30  N10 UNL     1      40.315  -1.326  12.731  1.00  0.00    -0.313 N 
HETATM   31  C14 UNL     1      40.117  -0.005  12.754  1.00  0.00     0.347 A 
ATOM     32  H10 UNL     1      41.122  -1.809  12.338  1.00  0.00     0.170 HD
HETATM   33  O5  UNL     1      40.941   0.815  12.273  1.00  0.00    -0.245 OA
BRANCH  28  34
HETATM   34  O4  UNL     1      37.169  -1.079  14.362  1.00  0.00    -0.344 OA
ATOM     35  H4  UNL     1      37.027  -1.091  15.302  1.00  0.00     0.219 HD
ENDBRANCH  28  34
ENDBRANCH  25  27
ENDBRANCH  20  25
ENDBRANCH  19  20
ENDBRANCH  17  19
ENDBRANCH  11  15
BRANCH   6  36
HETATM   36  O1  UNL     1      36.806   5.336  19.752  1.00  0.00    -0.374 OA
ATOM     37  H1  UNL     1      37.196   4.492  19.556  1.00  0.00     0.211 HD
ENDBRANCH   6  36
BRANCH   5  38
HETATM   38  N2  UNL     1      38.017   7.727  21.148  1.00  0.00    -0.328 N 
HETATM   39  C4  UNL     1      37.207   7.828  22.314  1.00  0.00     0.481 C 
HETATM   40  N3  UNL     1      36.374   6.653  22.510  1.00  0.00    -0.033 N 
HETATM   41  N4  UNL     1      37.969   8.026  23.529  1.00  0.00    -0.033 N 
ATOM     42  H33 UNL     1      35.807   6.460  21.683  1.00  0.00     0.278 HD
ATOM     43  H32 UNL     1      36.935   5.801  22.524  1.00  0.00     0.278 HD
ATOM     44  H31 UNL     1      35.793   6.726  23.345  1.00  0.00     0.278 HD
ATOM     45  H43 UNL     1      38.671   7.293  23.639  1.00  0.00     0.278 HD
ATOM     46  H42 UNL     1      38.583   8.836  23.443  1.00  0.00     0.278 HD
ATOM     47  H41 UNL     1      37.389   8.099  24.364  1.00  0.00     0.278 HD
ATOM     48  H2  UNL     1      39.033   7.764  21.231  1.00  0.00     0.164 HD
ENDBRANCH   5  38
TORSDOF 10
ENDMDL
MODEL 4
REMARK VINA RESULT: -6.761583386      6.410     10.342
REMARK  10 active torsions:
REMARK  status: ('A' for Active; 'I' for Inactive)
REMARK    1  A    between atoms: C3_5  and  N2_6 
REMARK       I    between atoms: N2_6  and  C4_8 
REMARK       I    between atoms: C4_8  and  N3_9 
REMARK       I    between atoms: C4_8  and  N4_13 
REMARK    2  A    between atoms: C5_17  and  O1_19 
REMARK    3  A    between atoms: C8_24  and  C9_25 
REMARK       I    between atoms: C9_25  and  N6_27 
REMARK    4  A    between atoms: N6_27  and  C10_29 
REMARK    5  A    between atoms: C10_29  and  C11_30 
REMARK    6  A    between atoms: C11_30  and  N7_31 
REMARK    7  A    between atoms: C11_30  and  N8_35 
REMARK    8  A    between atoms: N7_31  and  O3_33 
REMARK    9  A    between atoms: N8_35  and  N9_37 
REMARK   10  A    between atoms: C12_38  and  O4_39 
ROOT
HETATM    1  C1  UNL     1      41.153  -0.499  10.834  1.00  0.00     0.057 C 
HETATM    2  C2  UNL     1      40.285  -0.315  12.083  1.00  0.00     0.204 C 
HETATM    3  N1  UNL     1      39.222  -1.263  12.000  1.00  0.00    -0.354 N 
ATOM      4  H1  UNL     1      39.458  -2.197  11.665  1.00  0.00     0.163 HD
HETATM    5  C3  UNL     1      38.000  -1.048  12.309  1.00  0.00     0.120 C 
HETATM    6  C5  UNL     1      37.596   0.272  12.796  1.00  0.00     0.171 C 
HETATM    7  C6  UNL     1      36.262   0.615  12.144  1.00  0.00     0.063 C 
HETATM    8  C7  UNL     1      38.589   1.330  12.548  1.00  0.00     0.144 A 
HETATM    9  N5  UNL     1      38.461   2.660  12.599  1.00  0.00    -0.322 N 
ATOM     10  H5  UNL     1      37.607   3.168  12.830  1.00  0.00     0.169 HD
HETATM   11  C8  UNL     1      39.650   3.216  12.293  1.00  0.00     0.191 A 
HETATM   12  N11 UNL     1      40.475   2.181  12.064  1.00  0.00    -0.275 N 
ATOM     13  H11 UNL     1      41.458   2.268  11.807  1.00  0.00     0.189 HD
HETATM   14  N12 UNL     1      39.839   1.038  12.217  1.00  0.00    -0.252 N 
ENDROOT
BRANCH  11  15
HETATM   15  C9  UNL     1      39.939   4.644  12.235  1.00  0.00     0.287 C 
HETATM   16  O2  UNL     1      39.491   5.362  13.166  1.00  0.00    -0.264 OA
HETATM   17  N6  UNL     1      40.688   5.230  11.190  1.00  0.00    -0.351 N 
ATOM     18  H6  UNL     1      41.050   4.646  10.436  1.00  0.00     0.162 HD
BRANCH  17  19
HETATM   19  C10 UNL     1      40.945   6.661  11.184  1.00  0.00     0.172 C 
BRANCH  19  20
HETATM   20  C11 UNL     1      40.162   7.301  10.080  1.00  0.00     0.237 C 
BRANCH  20  21
HETATM   21  N7  UNL     1      39.019   8.009  10.573  1.00  0.00    -0.279 N 
ATOM     22  H7  UNL     1      38.847   8.965  10.260  1.00  0.00     0.190 HD
BRANCH  21  23
HETATM   23  O3  UNL     1      38.263   7.498  11.346  1.00  0.00    -0.292 OA
ATOM     24  H3  UNL     1      37.818   6.687  11.132  1.00  0.00     0.244 HD
ENDBRANCH  21  23
ENDBRANCH  20  21
BRANCH  20  25
HETATM   25  N8  UNL     1      39.768   6.411   9.024  1.00  0.00    -0.297 N 
ATOM     26  H8  UNL     1      38.850   5.973   9.096  1.00  0.00     0.183 HD
BRANCH  25  27
HETATM   27  N9  UNL     1      40.543   6.096   7.904  1.00  0.00    -0.184 N 
HETATM   28  C12 UNL     1      41.463   5.144   7.724  1.00  0.00     0.181 A 
HETATM   29  C13 UNL     1      41.917   5.245   6.416  1.00  0.00     0.150 A 
HETATM   30  N10 UNL     1      41.269   6.253   5.821  1.00  0.00    -0.313 N 
HETATM   31  C14 UNL     1      40.432   6.774   6.723  1.00  0.00     0.347 A 
ATOM     32  H10 UNL     1      41.391   6.566   4.858  1.00  0.00     0.170 HD
HETATM   33  O5  UNL     1      39.675   7.746   6.466  1.00  0.00    -0.245 OA
BRANCH  28  34
HETATM   34  O4  UNL     1      41.892   4.223   8.669  1.00  0.00    -0.344 OA
ATOM     35  H4  UNL     1      42.215   4.418   9.541  1.00  0.00     0.219 HD
ENDBRANCH  28  34
ENDBRANCH  25  27
ENDBRANCH  20  25
ENDBRANCH  19  20
ENDBRANCH  17  19
ENDBRANCH  11  15
BRANCH   6  36
HETATM   36  O1  UNL     1      37.345   0.162  14.181  1.00  0.00    -0.374 OA
ATOM     37  H1  UNL     1      36.403   0.134  14.303  1.00  0.00     0.211 HD
ENDBRANCH   6  36
BRANCH   5  38
HETATM   38  N2  UNL     1      37.045  -2.082  12.179  1.00  0.00    -0.328 N 
HETATM   39  C4  UNL     1      36.977  -3.120  13.148  1.00  0.00     0.481 C 
HETATM   40  N3  UNL     1      36.695  -2.612  14.481  1.00  0.00    -0.033 N 
HETATM   41  N4  UNL     1      35.977  -4.124  12.848  1.00  0.00    -0.033 N 
ATOM     42  H33 UNL     1      37.371  -1.898  14.753  1.00  0.00     0.278 HD
ATOM     43  H32 UNL     1      35.847  -2.046  14.488  1.00  0.00     0.278 HD
ATOM     44  H31 UNL     1      36.647  -3.358  15.176  1.00  0.00     0.278 HD
ATOM     45  H43 UNL     1      35.061  -3.693  12.714  1.00  0.00     0.278 HD
ATOM     46  H42 UNL     1      36.121  -4.509  11.914  1.00  0.00     0.278 HD
ATOM     47  H41 UNL     1      35.929  -4.869  13.543  1.00  0.00     0.278 HD
ATOM     48  H2  UNL     1      36.401  -2.083  11.387  1.00  0.00     0.164 HD
ENDBRANCH   5  38
TORSDOF 10
ENDMDL
MODEL 5
REMARK VINA RESULT: -6.640083863      6.016      7.763
REMARK  10 active torsions:
REMARK  status: ('A' for Active; 'I' for Inactive)
REMARK    1  A    between atoms: C3_5  and  N2_6 
REMARK       I    between atoms: N2_6  and  C4_8 
REMARK       I    between atoms: C4_8  and  N3_9 
REMARK       I    between atoms: C4_8  and  N4_13 
REMARK    2  A    between atoms: C5_17  and  O1_19 
REMARK    3  A    between atoms: C8_24  and  C9_25 
REMARK       I    between atoms: C9_25  and  N6_27 
REMARK    4  A    between atoms: N6_27  and  C10_29 
REMARK    5  A    between atoms: C10_29  and  C11_30 
REMARK    6  A    between atoms: C11_30  and  N7_31 
REMARK    7  A    between atoms: C11_30  and  N8_35 
REMARK    8  A    between atoms: N7_31  and  O3_33 
REMARK    9  A    between atoms: N8_35  and  N9_37 
REMARK   10  A    between atoms: C12_38  and  O4_39 
ROOT
HETATM    1  C1  UNL     1      43.313   5.419   9.763  1.00  0.00     0.057 C 
HETATM    2  C2  UNL     1      42.090   6.047   9.085  1.00  0.00     0.204 C 
HETATM    3  N1  UNL     1      42.431   7.396   8.769  1.00  0.00    -0.354 N 
ATOM      4  H1  UNL     1      43.370   7.566   8.408  1.00  0.00     0.163 HD
HETATM    5  C3  UNL     1      41.665   8.412   8.898  1.00  0.00     0.120 C 
HETATM    6  C5  UNL     1      40.305   8.236   9.411  1.00  0.00     0.171 C 
HETATM    7  C6  UNL     1      40.025   9.382  10.375  1.00  0.00     0.063 C 
HETATM    8  C7  UNL     1      40.077   6.935  10.060  1.00  0.00     0.144 A 
HETATM    9  N5  UNL     1      39.083   6.536  10.862  1.00  0.00    -0.322 N 
ATOM     10  H5  UNL     1      38.291   7.107  11.159  1.00  0.00     0.169 HD
HETATM   11  C8  UNL     1      39.304   5.253  11.211  1.00  0.00     0.191 A 
HETATM   12  N11 UNL     1      40.448   4.912  10.594  1.00  0.00    -0.275 N 
ATOM     13  H11 UNL     1      40.890   3.995  10.657  1.00  0.00     0.189 HD
HETATM   14  N12 UNL     1      40.919   5.925   9.897  1.00  0.00    -0.252 N 
ENDROOT
BRANCH  11  15
HETATM   15  C9  UNL     1      38.456   4.442  12.076  1.00  0.00     0.287 C 
HETATM   16  O2  UNL     1      37.229   4.716  12.103  1.00  0.00    -0.264 OA
HETATM   17  N6  UNL     1      38.961   3.384  12.866  1.00  0.00    -0.351 N 
ATOM     18  H6  UNL     1      39.957   3.164  12.842  1.00  0.00     0.162 HD
BRANCH  17  19
HETATM   19  C10 UNL     1      38.068   2.608  13.711  1.00  0.00     0.172 C 
BRANCH  19  20
HETATM   20  C11 UNL     1      37.317   1.625  12.867  1.00  0.00     0.237 C 
BRANCH  20  21
HETATM   21  N7  UNL     1      35.899   1.801  12.969  1.00  0.00    -0.279 N 
ATOM     22  H7  UNL     1      35.278   1.185  12.446  1.00  0.00     0.190 HD
BRANCH  21  23
HETATM   23  O3  UNL     1      35.433   2.660  13.657  1.00  0.00    -0.292 OA
ATOM     24  H3  UNL     1      34.880   3.338  13.288  1.00  0.00     0.244 HD
ENDBRANCH  21  23
ENDBRANCH  20  21
BRANCH  20  25
HETATM   25  N8  UNL     1      37.657   0.248  13.097  1.00  0.00    -0.297 N 
ATOM     26  H8  UNL     1      38.415   0.055  13.751  1.00  0.00     0.183 HD
BRANCH  25  27
HETATM   27  N9  UNL     1      37.032  -0.849  12.496  1.00  0.00    -0.184 N 
HETATM   28  C12 UNL     1      36.478  -0.977  11.287  1.00  0.00     0.181 A 
HETATM   29  C13 UNL     1      36.018  -2.283  11.176  1.00  0.00     0.150 A 
HETATM   30  N10 UNL     1      36.299  -2.926  12.315  1.00  0.00    -0.313 N 
HETATM   31  C14 UNL     1      36.915  -2.058  13.122  1.00  0.00     0.347 A 
ATOM     32  H10 UNL     1      36.082  -3.900  12.528  1.00  0.00     0.170 HD
HETATM   33  O5  UNL     1      37.309  -2.364  14.277  1.00  0.00    -0.245 OA
BRANCH  28  34
HETATM   34  O4  UNL     1      36.375   0.010  10.318  1.00  0.00    -0.344 OA
ATOM     35  H4  UNL     1      35.881  -0.043   9.508  1.00  0.00     0.219 HD
ENDBRANCH  28  34
ENDBRANCH  25  27
ENDBRANCH  20  25
ENDBRANCH  19  20
ENDBRANCH  17  19
ENDBRANCH  11  15
BRANCH   6  36
HETATM   36  O1  UNL     1      39.412   8.398   8.330  1.00  0.00    -0.374 OA
ATOM     37  H1  UNL     1      39.926   8.424   7.531  1.00  0.00     0.211 HD
ENDBRANCH   6  36
BRANCH   5  38
HETATM   38  N2  UNL     1      42.132   9.699   8.545  1.00  0.00    -0.328 N 
HETATM   39  C4  UNL     1      42.405  10.014   7.185  1.00  0.00     0.481 C 
HETATM   40  N3  UNL     1      41.230   9.875   6.340  1.00  0.00    -0.033 N 
HETATM   41  N4  UNL     1      42.917  11.356   6.997  1.00  0.00    -0.033 N 
ATOM     42  H33 UNL     1      40.821   8.944   6.428  1.00  0.00     0.278 HD
ATOM     43  H32 UNL     1      40.452  10.429   6.697  1.00  0.00     0.278 HD
ATOM     44  H31 UNL     1      41.427  10.101   5.365  1.00  0.00     0.278 HD
ATOM     45  H43 UNL     1      42.286  12.045   7.408  1.00  0.00     0.278 HD
ATOM     46  H42 UNL     1      43.740  11.513   7.578  1.00  0.00     0.278 HD
ATOM     47  H41 UNL     1      43.114  11.582   6.022  1.00  0.00     0.278 HD
ATOM     48  H2  UNL     1      42.272  10.405   9.269  1.00  0.00     0.164 HD
ENDBRANCH   5  38
TORSDOF 10
ENDMDL
