MODEL 1
REMARK VINA RESULT: -6.988839855      0.000      0.000
REMARK  5 active torsions:
REMARK  status: ('A' for Active; 'I' for Inactive)
REMARK    1  A    between atoms: C1_2  and  C2_3 
REMARK       I    between atoms: C1_2  and  N2_12 
REMARK    2  A    between atoms: C2_3  and  N1_4 
REMARK    3  A    between atoms: N1_4  and  C3_6 
REMARK    4  A    between atoms: C3_6  and  C4_7 
REMARK    5  A    between atoms: C16_26  and  C17_27 
ROOT
HETATM    1  O1  UNL     1      42.371  -0.147  31.962  1.00  0.00    -0.271 OA
HETATM    2  C1  UNL     1      42.867  -1.105  32.609  1.00  0.00     0.240 C 
HETATM    3  N2  UNL     1      42.900  -0.994  34.027  1.00  0.00    -0.313 N 
ATOM      4  H2  UNL     1      42.367  -1.661  34.585  1.00  0.00     0.170 HD
HETATM    5  C9  UNL     1      43.589  -0.068  34.640  1.00  0.00     0.123 C 
HETATM    6  N3  UNL     1      43.697   0.146  36.035  1.00  0.00    -0.345 N 
ATOM      7  H3  UNL     1      43.624  -0.563  36.765  1.00  0.00     0.163 HD
HETATM    8  C10 UNL     1      43.934   1.583  36.232  1.00  0.00     0.200 C 
HETATM    9  C11 UNL     1      42.596   2.173  36.659  1.00  0.00     0.061 C 
HETATM   10  C12 UNL     1      42.480   2.080  38.166  1.00  0.00     0.004 C 
HETATM   11  C13 UNL     1      43.551   2.826  38.907  1.00  0.00     0.000 C 
HETATM   12  C14 UNL     1      44.646   3.180  37.917  1.00  0.00     0.004 C 
HETATM   13  C15 UNL     1      44.995   1.839  37.243  1.00  0.00     0.061 C 
HETATM   14  N4  UNL     1      44.299   2.097  34.953  1.00  0.00    -0.028 N 
ATOM     15  H41 UNL     1      45.139   2.675  34.987  1.00  0.00     0.281 HD
ATOM     16  H42 UNL     1      43.653   2.812  34.619  1.00  0.00     0.281 HD
HETATM   17  C16 UNL     1      44.423   0.988  34.034  1.00  0.00     0.355 C 
ENDROOT
BRANCH  17  18
HETATM   18  C17 UNL     1      45.819   0.507  33.930  1.00  0.00     0.212 C 
HETATM   19  O2  UNL     1      46.413   0.616  32.800  1.00  0.00    -0.646 OA
HETATM   20  O3  UNL     1      46.562  -0.051  34.942  1.00  0.00    -0.646 OA
ENDBRANCH  17  18
BRANCH   2  21
HETATM   21  C2  UNL     1      43.392  -2.298  31.868  1.00  0.00     0.221 C 
BRANCH  21  22
HETATM   22  N1  UNL     1      43.758  -1.980  30.535  1.00  0.00    -0.393 N 
ATOM     23  H1  UNL     1      44.197  -1.083  30.325  1.00  0.00     0.159 HD
BRANCH  22  24
HETATM   24  C3  UNL     1      43.512  -2.907  29.504  1.00  0.00     0.060 C 
BRANCH  24  25
HETATM   25  C4  UNL     1      44.104  -2.797  28.184  1.00  0.00     0.024 C 
HETATM   26  C5  UNL     1      44.014  -1.522  27.397  1.00  0.00     0.010 C 
HETATM   27  C6  UNL     1      44.848  -2.023  26.169  1.00  0.00     0.001 C 
HETATM   28  C7  UNL     1      44.089  -3.277  25.814  1.00  0.00     0.001 C 
HETATM   29  C8  UNL     1      43.671  -3.848  27.157  1.00  0.00     0.010 C 
ENDBRANCH  24  25
ENDBRANCH  22  24
ENDBRANCH  21  22
ENDBRANCH   2  21
TORSDOF 5
ENDMDL
MODEL 2
REMARK VINA RESULT: -6.889022493      1.954      3.030
REMARK  5 active torsions:
REMARK  status: ('A' for Active; 'I' for Inactive)
REMARK    1  A    between atoms: C1_2  and  C2_3 
REMARK       I    between atoms: C1_2  and  N2_12 
REMARK    2  A    between atoms: C2_3  and  N1_4 
REMARK    3  A    between atoms: N1_4  and  C3_6 
REMARK    4  A    between atoms: C3_6  and  C4_7 
REMARK    5  A    between atoms: C16_26  and  C17_27 
ROOT
HETATM    1  O1  UNL     1      43.393  -3.091  31.787  1.00  0.00    -0.271 OA
HETATM    2  C1  UNL     1      43.284  -1.980  31.209  1.00  0.00     0.240 C 
HETATM    3  N2  UNL     1      43.878  -0.850  31.838  1.00  0.00    -0.313 N 
ATOM      4  H2  UNL     1      44.635  -0.363  31.360  1.00  0.00     0.170 HD
HETATM    5  C9  UNL     1      43.487  -0.414  33.007  1.00  0.00     0.123 C 
HETATM    6  N3  UNL     1      43.999   0.688  33.731  1.00  0.00    -0.345 N 
ATOM      7  H3  UNL     1      44.424   1.529  33.338  1.00  0.00     0.163 HD
HETATM    8  C10 UNL     1      43.804   0.393  35.158  1.00  0.00     0.200 C 
HETATM    9  C11 UNL     1      45.161  -0.058  35.682  1.00  0.00     0.061 C 
HETATM   10  C12 UNL     1      45.938   1.160  36.136  1.00  0.00     0.004 C 
HETATM   11  C13 UNL     1      45.272   1.933  37.237  1.00  0.00     0.000 C 
HETATM   12  C14 UNL     1      43.835   1.454  37.342  1.00  0.00     0.004 C 
HETATM   13  C15 UNL     1      43.290   1.573  35.906  1.00  0.00     0.061 C 
HETATM   14  N4  UNL     1      42.884  -0.696  35.208  1.00  0.00    -0.028 N 
ATOM     15  H41 UNL     1      42.118  -0.533  35.863  1.00  0.00     0.281 HD
ATOM     16  H42 UNL     1      43.278  -1.522  35.658  1.00  0.00     0.281 HD
HETATM   17  C16 UNL     1      42.420  -0.962  33.865  1.00  0.00     0.355 C 
ENDROOT
BRANCH  17  18
HETATM   18  C17 UNL     1      41.149  -0.266  33.568  1.00  0.00     0.212 C 
HETATM   19  O2  UNL     1      40.786  -0.164  32.344  1.00  0.00    -0.646 OA
HETATM   20  O3  UNL     1      40.294   0.291  34.490  1.00  0.00    -0.646 OA
ENDBRANCH  17  18
BRANCH   2  21
HETATM   21  C2  UNL     1      42.544  -1.898  29.908  1.00  0.00     0.221 C 
BRANCH  21  22
HETATM   22  N1  UNL     1      43.067  -0.890  29.059  1.00  0.00    -0.393 N 
ATOM     23  H1  UNL     1      42.702   0.062  29.109  1.00  0.00     0.159 HD
BRANCH  22  24
HETATM   24  C3  UNL     1      44.091  -1.208  28.147  1.00  0.00     0.060 C 
BRANCH  24  25
HETATM   25  C4  UNL     1      43.898  -2.105  27.023  1.00  0.00     0.024 C 
HETATM   26  C5  UNL     1      44.365  -3.530  27.077  1.00  0.00     0.010 C 
HETATM   27  C6  UNL     1      43.835  -3.935  25.659  1.00  0.00     0.001 C 
HETATM   28  C7  UNL     1      44.489  -2.876  24.807  1.00  0.00     0.001 C 
HETATM   29  C8  UNL     1      44.449  -1.630  25.673  1.00  0.00     0.010 C 
ENDBRANCH  24  25
ENDBRANCH  22  24
ENDBRANCH  21  22
ENDBRANCH   2  21
TORSDOF 5
ENDMDL
MODEL 3
REMARK VINA RESULT: -6.883064658      4.491      8.434
REMARK  5 active torsions:
REMARK  status: ('A' for Active; 'I' for Inactive)
REMARK    1  A    between atoms: C1_2  and  C2_3 
REMARK       I    between atoms: C1_2  and  N2_12 
REMARK    2  A    between atoms: C2_3  and  N1_4 
REMARK    3  A    between atoms: N1_4  and  C3_6 
REMARK    4  A    between atoms: C3_6  and  C4_7 
REMARK    5  A    between atoms: C16_26  and  C17_27 
ROOT
HETATM    1  O1  UNL     1      41.919  -4.729  32.268  1.00  0.00    -0.271 OA
HETATM    2  C1  UNL     1      40.954  -4.096  31.768  1.00  0.00     0.240 C 
HETATM    3  N2  UNL     1      40.995  -3.831  30.371  1.00  0.00    -0.313 N 
ATOM      4  H2  UNL     1      40.276  -4.237  29.772  1.00  0.00     0.170 HD
HETATM    5  C9  UNL     1      41.920  -3.085  29.826  1.00  0.00     0.123 C 
HETATM    6  N3  UNL     1      42.068  -2.754  28.458  1.00  0.00    -0.345 N 
ATOM      7  H3  UNL     1      41.320  -2.677  27.769  1.00  0.00     0.163 HD
HETATM    8  C10 UNL     1      43.503  -2.544  28.220  1.00  0.00     0.200 C 
HETATM    9  C11 UNL     1      44.006  -3.813  27.545  1.00  0.00     0.061 C 
HETATM   10  C12 UNL     1      43.831  -3.672  26.048  1.00  0.00     0.004 C 
HETATM   11  C13 UNL     1      44.589  -2.522  25.451  1.00  0.00     0.000 C 
HETATM   12  C14 UNL     1      45.044  -1.622  26.586  1.00  0.00     0.004 C 
HETATM   13  C15 UNL     1      43.757  -1.339  27.384  1.00  0.00     0.061 C 
HETATM   14  N4  UNL     1      44.098  -2.417  29.510  1.00  0.00    -0.028 N 
ATOM     15  H41 UNL     1      44.712  -1.605  29.581  1.00  0.00     0.281 HD
ATOM     16  H42 UNL     1      44.797  -3.136  29.691  1.00  0.00     0.281 HD
HETATM   17  C16 UNL     1      43.043  -2.405  30.499  1.00  0.00     0.355 C 
ENDROOT
BRANCH  17  18
HETATM   18  C17 UNL     1      42.635  -1.029  30.859  1.00  0.00     0.212 C 
HETATM   19  O2  UNL     1      41.479  -0.623  30.486  1.00  0.00    -0.646 OA
HETATM   20  O3  UNL     1      43.382  -0.122  31.573  1.00  0.00    -0.646 OA
ENDBRANCH  17  18
BRANCH   2  21
HETATM   21  C2  UNL     1      39.827  -3.656  32.653  1.00  0.00     0.221 C 
BRANCH  21  22
HETATM   22  N1  UNL     1      39.670  -2.247  32.658  1.00  0.00    -0.393 N 
ATOM     23  H1  UNL     1      40.385  -1.654  33.078  1.00  0.00     0.159 HD
BRANCH  22  24
HETATM   24  C3  UNL     1      38.523  -1.670  32.078  1.00  0.00     0.060 C 
BRANCH  24  25
HETATM   25  C4  UNL     1      37.926  -0.440  32.564  1.00  0.00     0.024 C 
HETATM   26  C5  UNL     1      38.507   0.897  32.210  1.00  0.00     0.010 C 
HETATM   27  C6  UNL     1      37.429   1.753  32.959  1.00  0.00     0.001 C 
HETATM   28  C7  UNL     1      37.508   1.150  34.338  1.00  0.00     0.001 C 
HETATM   29  C8  UNL     1      37.745  -0.328  34.082  1.00  0.00     0.010 C 
ENDBRANCH  24  25
ENDBRANCH  22  24
ENDBRANCH  21  22
ENDBRANCH   2  21
TORSDOF 5
ENDMDL
MODEL 4
REMARK VINA RESULT: -6.874713099      2.232      8.755
REMARK  5 active torsions:
REMARK  status: ('A' for Active; 'I' for Inactive)
REMARK    1  A    between atoms: C1_2  and  C2_3 
REMARK       I    between atoms: C1_2  and  N2_12 
REMARK    2  A    between atoms: C2_3  and  N1_4 
REMARK    3  A    between atoms: N1_4  and  C3_6 
REMARK    4  A    between atoms: C3_6  and  C4_7 
REMARK    5  A    between atoms: C16_26  and  C17_27 
ROOT
HETATM    1  O1  UNL     1      41.699  -0.146  31.806  1.00  0.00    -0.271 OA
HETATM    2  C1  UNL     1      42.751  -0.703  32.212  1.00  0.00     0.240 C 
HETATM    3  N2  UNL     1      43.732  -1.043  31.240  1.00  0.00    -0.313 N 
ATOM      4  H2  UNL     1      44.648  -0.597  31.290  1.00  0.00     0.170 HD
HETATM    5  C9  UNL     1      43.502  -1.906  30.285  1.00  0.00     0.123 C 
HETATM    6  N3  UNL     1      44.391  -2.321  29.265  1.00  0.00    -0.345 N 
ATOM      7  H3  UNL     1      45.409  -2.357  29.325  1.00  0.00     0.163 HD
HETATM    8  C10 UNL     1      43.569  -2.689  28.103  1.00  0.00     0.200 C 
HETATM    9  C11 UNL     1      43.659  -1.514  27.138  1.00  0.00     0.061 C 
HETATM   10  C12 UNL     1      44.858  -1.714  26.236  1.00  0.00     0.004 C 
HETATM   11  C13 UNL     1      44.797  -2.964  25.408  1.00  0.00     0.000 C 
HETATM   12  C14 UNL     1      43.697  -3.846  25.973  1.00  0.00     0.004 C 
HETATM   13  C15 UNL     1      44.032  -3.955  27.473  1.00  0.00     0.061 C 
HETATM   14  N4  UNL     1      42.235  -2.808  28.592  1.00  0.00    -0.028 N 
ATOM     15  H41 UNL     1      41.784  -3.674  28.294  1.00  0.00     0.281 HD
ATOM     16  H42 UNL     1      41.593  -2.155  28.143  1.00  0.00     0.281 HD
HETATM   17  C16 UNL     1      42.261  -2.661  30.030  1.00  0.00     0.355 C 
ENDROOT
BRANCH  17  18
HETATM   18  C17 UNL     1      42.334  -3.968  30.721  1.00  0.00     0.212 C 
HETATM   19  O2  UNL     1      43.315  -4.178  31.518  1.00  0.00    -0.646 OA
HETATM   20  O3  UNL     1      41.436  -5.002  30.597  1.00  0.00    -0.646 OA
ENDBRANCH  17  18
BRANCH   2  21
HETATM   21  C2  UNL     1      42.917  -0.979  33.676  1.00  0.00     0.221 C 
BRANCH  21  22
HETATM   22  N1  UNL     1      43.006   0.214  34.437  1.00  0.00    -0.393 N 
ATOM     23  H1  UNL     1      42.177   0.593  34.895  1.00  0.00     0.159 HD
BRANCH  22  24
HETATM   24  C3  UNL     1      44.245   0.872  34.560  1.00  0.00     0.060 C 
BRANCH  24  25
HETATM   25  C4  UNL     1      45.077   0.776  35.744  1.00  0.00     0.024 C 
HETATM   26  C5  UNL     1      45.569   2.006  36.449  1.00  0.00     0.010 C 
HETATM   27  C6  UNL     1      46.317   1.252  37.602  1.00  0.00     0.001 C 
HETATM   28  C7  UNL     1      47.209   0.338  36.800  1.00  0.00     0.001 C 
HETATM   29  C8  UNL     1      46.356  -0.058  35.608  1.00  0.00     0.010 C 
ENDBRANCH  24  25
ENDBRANCH  22  24
ENDBRANCH  21  22
ENDBRANCH   2  21
TORSDOF 5
ENDMDL
MODEL 5
REMARK VINA RESULT: -6.873586315      4.825      6.505
REMARK  5 active torsions:
REMARK  status: ('A' for Active; 'I' for Inactive)
REMARK    1  A    between atoms: C1_2  and  C2_3 
REMARK       I    between atoms: C1_2  and  N2_12 
REMARK    2  A    between atoms: C2_3  and  N1_4 
REMARK    3  A    between atoms: N1_4  and  C3_6 
REMARK    4  A    between atoms: C3_6  and  C4_7 
REMARK    5  A    between atoms: C16_26  and  C17_27 
ROOT
HETATM    1  O1  UNL     1      42.286  -3.437  27.742  1.00  0.00    -0.271 OA
HETATM    2  C1  UNL     1      42.375  -4.061  28.831  1.00  0.00     0.240 C 
HETATM    3  N2  UNL     1      41.332  -3.878  29.781  1.00  0.00    -0.313 N 
ATOM      4  H2  UNL     1      40.760  -4.681  30.043  1.00  0.00     0.170 HD
HETATM    5  C9  UNL     1      41.080  -2.719  30.329  1.00  0.00     0.123 C 
HETATM    6  N3  UNL     1      40.075  -2.413  31.277  1.00  0.00    -0.345 N 
ATOM      7  H3  UNL     1      39.679  -3.050  31.969  1.00  0.00     0.163 HD
HETATM    8  C10 UNL     1      39.708  -1.004  31.075  1.00  0.00     0.200 C 
HETATM    9  C11 UNL     1      38.398  -1.019  30.298  1.00  0.00     0.061 C 
HETATM   10  C12 UNL     1      37.249  -1.080  31.282  1.00  0.00     0.004 C 
HETATM   11  C13 UNL     1      37.191   0.085  32.226  1.00  0.00     0.000 C 
HETATM   12  C14 UNL     1      38.516   0.823  32.140  1.00  0.00     0.004 C 
HETATM   13  C15 UNL     1      39.575  -0.273  32.364  1.00  0.00     0.061 C 
HETATM   14  N4  UNL     1      40.741  -0.445  30.265  1.00  0.00    -0.028 N 
ATOM     15  H41 UNL     1      41.098   0.435  30.636  1.00  0.00     0.281 HD
ATOM     16  H42 UNL     1      40.391  -0.090  29.375  1.00  0.00     0.281 HD
HETATM   17  C16 UNL     1      41.777  -1.440  30.097  1.00  0.00     0.355 C 
ENDROOT
BRANCH  17  18
HETATM   18  C17 UNL     1      42.860  -1.286  31.094  1.00  0.00     0.212 C 
HETATM   19  O2  UNL     1      43.365  -2.345  31.606  1.00  0.00    -0.646 OA
HETATM   20  O3  UNL     1      43.396  -0.099  31.533  1.00  0.00    -0.646 OA
ENDBRANCH  17  18
BRANCH   2  21
HETATM   21  C2  UNL     1      43.557  -4.952  29.072  1.00  0.00     0.221 C 
BRANCH  21  22
HETATM   22  N1  UNL     1      43.931  -4.982  30.440  1.00  0.00    -0.393 N 
ATOM     23  H1  UNL     1      44.146  -4.115  30.931  1.00  0.00     0.159 HD
BRANCH  22  24
HETATM   24  C3  UNL     1      44.005  -6.216  31.115  1.00  0.00     0.060 C 
BRANCH  24  25
HETATM   25  C4  UNL     1      44.831  -7.318  30.659  1.00  0.00     0.024 C 
HETATM   26  C5  UNL     1      44.258  -8.691  30.467  1.00  0.00     0.010 C 
HETATM   27  C6  UNL     1      45.578  -9.354  29.945  1.00  0.00     0.001 C 
HETATM   28  C7  UNL     1      46.526  -8.996  31.061  1.00  0.00     0.001 C 
HETATM   29  C8  UNL     1      46.095  -7.602  31.479  1.00  0.00     0.010 C 
ENDBRANCH  24  25
ENDBRANCH  22  24
ENDBRANCH  21  22
ENDBRANCH   2  21
TORSDOF 5
ENDMDL
