MODEL 1
REMARK VINA RESULT: -6.992956048      0.000      0.000
REMARK  5 active torsions:
REMARK  status: ('A' for Active; 'I' for Inactive)
REMARK       I    between atoms: C1_4  and  N3_6 
REMARK       I    between atoms: N3_6  and  C2_7 
REMARK    1  A    between atoms: C2_7  and  C3_9 
REMARK    2  A    between atoms: C3_9  and  C4_10 
REMARK    3  A    between atoms: C4_10  and  C5_11 
REMARK       I    between atoms: C5_11  and  N4_13 
REMARK    4  A    between atoms: N4_13  and  C6_15 
REMARK    5  A    between atoms: C6_15  and  C7_16 
ROOT
HETATM    1  C5  UNL     1      42.749  -5.687  29.254  1.00  0.00     0.218 C 
HETATM    2  O2  UNL     1      41.803  -6.491  29.216  1.00  0.00    -0.274 OA
HETATM    3  N4  UNL     1      43.628  -5.604  30.387  1.00  0.00    -0.360 N 
ATOM      4  H4  UNL     1      44.394  -4.932  30.429  1.00  0.00     0.162 HD
ENDROOT
BRANCH   3   5
HETATM    5  C6  UNL     1      43.362  -6.524  31.456  1.00  0.00     0.132 C 
BRANCH   5   6
HETATM    6  C7  UNL     1      44.347  -7.643  31.594  1.00  0.00    -0.022 C 
HETATM    7  C8  UNL     1      44.455  -8.070  33.060  1.00  0.00     0.016 C 
HETATM    8  C9  UNL     1      45.312  -9.306  33.153  1.00  0.00    -0.012 C 
HETATM    9  C10 UNL     1      46.721  -9.037  32.716  1.00  0.00     0.009 C 
HETATM   10  C14 UNL     1      44.754 -10.426  32.304  1.00  0.00     0.030 C 
HETATM   11  C11 UNL     1      46.625  -8.484  31.300  1.00  0.00    -0.012 C 
HETATM   12  C12 UNL     1      46.108  -9.536  30.364  1.00  0.00     0.030 C 
HETATM   13  C16 UNL     1      45.765  -7.263  31.203  1.00  0.00     0.016 C 
HETATM   14  C13 UNL     1      44.756  -9.995  30.863  1.00  0.00     0.038 C 
HETATM   15 CL1  UNL     1      44.089 -11.312  29.886  1.00  0.00    -0.119 Cl
HETATM   16  C15 UNL     1      43.834  -8.802  30.768  1.00  0.00     0.036 C 
ENDBRANCH   5   6
ENDBRANCH   3   5
BRANCH   1  17
HETATM   17  C4  UNL     1      42.970  -4.787  28.100  1.00  0.00     0.113 C 
BRANCH  17  18
HETATM   18  C3  UNL     1      43.787  -3.624  28.588  1.00  0.00     0.128 C 
BRANCH  18  19
HETATM   19  C2  UNL     1      43.956  -2.553  27.508  1.00  0.00     0.294 C 
HETATM   20  N3  UNL     1      44.183  -2.936  26.284  1.00  0.00    -0.338 NA
HETATM   21  C1  UNL     1      44.430  -3.352  24.955  1.00  0.00     0.264 C 
HETATM   22  N1  UNL     1      44.525  -4.660  24.710  1.00  0.00    -0.362 N 
HETATM   23  N2  UNL     1      44.559  -2.556  23.813  1.00  0.00    -0.049 NA
ATOM     24  H12 UNL     1      44.703  -4.960  23.752  1.00  0.00     0.159 HD
ATOM     25  H11 UNL     1      44.431  -5.240  25.544  1.00  0.00     0.159 HD
HETATM   26  O1  UNL     1      43.841  -1.372  28.020  1.00  0.00    -0.257 OA
ENDBRANCH  18  19
ENDBRANCH  17  18
ENDBRANCH   1  17
TORSDOF 5
ENDMDL
MODEL 2
REMARK VINA RESULT: -6.981719052      1.131      1.855
REMARK  5 active torsions:
REMARK  status: ('A' for Active; 'I' for Inactive)
REMARK       I    between atoms: C1_4  and  N3_6 
REMARK       I    between atoms: N3_6  and  C2_7 
REMARK    1  A    between atoms: C2_7  and  C3_9 
REMARK    2  A    between atoms: C3_9  and  C4_10 
REMARK    3  A    between atoms: C4_10  and  C5_11 
REMARK       I    between atoms: C5_11  and  N4_13 
REMARK    4  A    between atoms: N4_13  and  C6_15 
REMARK    5  A    between atoms: C6_15  and  C7_16 
ROOT
HETATM    1  C5  UNL     1      42.635  -5.708  29.268  1.00  0.00     0.218 C 
HETATM    2  O2  UNL     1      41.683  -6.505  29.239  1.00  0.00    -0.274 OA
HETATM    3  N4  UNL     1      43.550  -5.660  30.374  1.00  0.00    -0.360 N 
ATOM      4  H4  UNL     1      44.322  -4.994  30.409  1.00  0.00     0.162 HD
ENDROOT
BRANCH   3   5
HETATM    5  C6  UNL     1      43.311  -6.606  31.427  1.00  0.00     0.132 C 
BRANCH   5   6
HETATM    6  C7  UNL     1      44.322  -7.706  31.538  1.00  0.00    -0.022 C 
HETATM    7  C8  UNL     1      45.718  -7.172  31.211  1.00  0.00     0.016 C 
HETATM    8  C9  UNL     1      46.737  -8.243  31.500  1.00  0.00    -0.012 C 
HETATM    9  C10 UNL     1      46.553  -9.436  30.610  1.00  0.00     0.009 C 
HETATM   10  C14 UNL     1      46.658  -8.703  32.937  1.00  0.00     0.030 C 
HETATM   11  C11 UNL     1      45.120  -9.904  30.823  1.00  0.00    -0.012 C 
HETATM   12  C12 UNL     1      44.942 -10.416  32.222  1.00  0.00     0.030 C 
HETATM   13  C16 UNL     1      44.106  -8.839  30.548  1.00  0.00     0.016 C 
HETATM   14  C13 UNL     1      45.302  -9.306  33.184  1.00  0.00     0.038 C 
HETATM   15 CL1  UNL     1      45.223  -9.828  34.874  1.00  0.00    -0.119 Cl
HETATM   16  C15 UNL     1      44.293  -8.202  32.966  1.00  0.00     0.036 C 
ENDBRANCH   5   6
ENDBRANCH   3   5
BRANCH   1  17
HETATM   17  C4  UNL     1      42.827  -4.780  28.131  1.00  0.00     0.113 C 
BRANCH  17  18
HETATM   18  C3  UNL     1      43.765  -3.698  28.587  1.00  0.00     0.128 C 
BRANCH  18  19
HETATM   19  C2  UNL     1      43.975  -2.633  27.509  1.00  0.00     0.294 C 
HETATM   20  N3  UNL     1      44.204  -3.023  26.288  1.00  0.00    -0.338 NA
HETATM   21  C1  UNL     1      44.453  -3.446  24.962  1.00  0.00     0.264 C 
HETATM   22  N1  UNL     1      44.515  -4.756  24.718  1.00  0.00    -0.362 N 
HETATM   23  N2  UNL     1      44.616  -2.655  23.821  1.00  0.00    -0.049 NA
ATOM     24  H12 UNL     1      44.695  -5.062  23.762  1.00  0.00     0.159 HD
ATOM     25  H11 UNL     1      44.397  -5.334  25.551  1.00  0.00     0.159 HD
HETATM   26  O1  UNL     1      43.886  -1.449  28.020  1.00  0.00    -0.257 OA
ENDBRANCH  18  19
ENDBRANCH  17  18
ENDBRANCH   1  17
TORSDOF 5
ENDMDL
MODEL 3
REMARK VINA RESULT: -6.955828205      7.198      8.668
REMARK  5 active torsions:
REMARK  status: ('A' for Active; 'I' for Inactive)
REMARK       I    between atoms: C1_4  and  N3_6 
REMARK       I    between atoms: N3_6  and  C2_7 
REMARK    1  A    between atoms: C2_7  and  C3_9 
REMARK    2  A    between atoms: C3_9  and  C4_10 
REMARK    3  A    between atoms: C4_10  and  C5_11 
REMARK       I    between atoms: C5_11  and  N4_13 
REMARK    4  A    between atoms: N4_13  and  C6_15 
REMARK    5  A    between atoms: C6_15  and  C7_16 
ROOT
HETATM    1  C5  UNL     1      43.465  -1.077  31.456  1.00  0.00     0.218 C 
HETATM    2  O2  UNL     1      43.004  -0.126  30.804  1.00  0.00    -0.274 OA
HETATM    3  N4  UNL     1      44.083  -0.889  32.738  1.00  0.00    -0.360 N 
ATOM      4  H4  UNL     1      44.479  -1.665  33.267  1.00  0.00     0.162 HD
ENDROOT
BRANCH   3   5
HETATM    5  C6  UNL     1      44.109   0.460  33.229  1.00  0.00     0.132 C 
BRANCH   5   6
HETATM    6  C7  UNL     1      44.395   0.601  34.692  1.00  0.00    -0.022 C 
HETATM    7  C8  UNL     1      45.862   0.270  34.975  1.00  0.00     0.016 C 
HETATM    8  C9  UNL     1      46.172   0.589  36.415  1.00  0.00    -0.012 C 
HETATM    9  C10 UNL     1      45.385  -0.276  37.355  1.00  0.00     0.009 C 
HETATM   10  C14 UNL     1      45.874   2.035  36.734  1.00  0.00     0.030 C 
HETATM   11  C11 UNL     1      43.920  -0.061  36.998  1.00  0.00    -0.012 C 
HETATM   12  C12 UNL     1      43.510   1.349  37.310  1.00  0.00     0.030 C 
HETATM   13  C16 UNL     1      43.612  -0.364  35.566  1.00  0.00     0.016 C 
HETATM   14  C13 UNL     1      44.404   2.288  36.532  1.00  0.00     0.038 C 
HETATM   15 CL1  UNL     1      44.075   3.989  36.898  1.00  0.00    -0.119 Cl
HETATM   16  C15 UNL     1      44.121   2.040  35.069  1.00  0.00     0.036 C 
ENDBRANCH   5   6
ENDBRANCH   3   5
BRANCH   1  17
HETATM   17  C4  UNL     1      43.377  -2.442  30.889  1.00  0.00     0.113 C 
BRANCH  17  18
HETATM   18  C3  UNL     1      42.207  -2.464  29.947  1.00  0.00     0.128 C 
BRANCH  18  19
HETATM   19  C2  UNL     1      42.626  -2.849  28.526  1.00  0.00     0.294 C 
HETATM   20  N3  UNL     1      43.615  -2.206  27.975  1.00  0.00    -0.338 NA
HETATM   21  C1  UNL     1      44.689  -1.507  27.376  1.00  0.00     0.264 C 
HETATM   22  N1  UNL     1      45.272  -0.530  28.072  1.00  0.00    -0.362 N 
HETATM   23  N2  UNL     1      45.269  -1.729  26.124  1.00  0.00    -0.049 NA
ATOM     24  H12 UNL     1      46.046  -0.026  27.640  1.00  0.00     0.159 HD
ATOM     25  H11 UNL     1      44.849  -0.368  28.985  1.00  0.00     0.159 HD
HETATM   26  O1  UNL     1      41.882  -3.806  28.080  1.00  0.00    -0.257 OA
ENDBRANCH  18  19
ENDBRANCH  17  18
ENDBRANCH   1  17
TORSDOF 5
ENDMDL
MODEL 4
REMARK VINA RESULT: -6.944456755      5.707      7.268
REMARK  5 active torsions:
REMARK  status: ('A' for Active; 'I' for Inactive)
REMARK       I    between atoms: C1_4  and  N3_6 
REMARK       I    between atoms: N3_6  and  C2_7 
REMARK    1  A    between atoms: C2_7  and  C3_9 
REMARK    2  A    between atoms: C3_9  and  C4_10 
REMARK    3  A    between atoms: C4_10  and  C5_11 
REMARK       I    between atoms: C5_11  and  N4_13 
REMARK    4  A    between atoms: N4_13  and  C6_15 
REMARK    5  A    between atoms: C6_15  and  C7_16 
ROOT
HETATM    1  C5  UNL     1      43.304  -1.251  29.341  1.00  0.00     0.218 C 
HETATM    2  O2  UNL     1      44.069  -1.252  30.318  1.00  0.00    -0.274 OA
HETATM    3  N4  UNL     1      41.876  -1.235  29.496  1.00  0.00    -0.360 N 
ATOM      4  H4  UNL     1      41.244  -1.253  28.696  1.00  0.00     0.162 HD
ENDROOT
BRANCH   3   5
HETATM    5  C6  UNL     1      41.393  -1.193  30.847  1.00  0.00     0.132 C 
BRANCH   5   6
HETATM    6  C7  UNL     1      39.986  -1.669  31.037  1.00  0.00    -0.022 C 
HETATM    7  C8  UNL     1      39.069  -0.486  31.356  1.00  0.00     0.016 C 
HETATM    8  C9  UNL     1      37.638  -0.959  31.367  1.00  0.00    -0.012 C 
HETATM    9  C10 UNL     1      37.393  -1.954  32.461  1.00  0.00     0.009 C 
HETATM   10  C14 UNL     1      37.260  -1.595  30.049  1.00  0.00     0.030 C 
HETATM   11  C11 UNL     1      38.391  -3.082  32.238  1.00  0.00    -0.012 C 
HETATM   12  C12 UNL     1      38.081  -3.806  30.960  1.00  0.00     0.030 C 
HETATM   13  C16 UNL     1      39.812  -2.614  32.214  1.00  0.00     0.016 C 
HETATM   14  C13 UNL     1      38.123  -2.807  29.825  1.00  0.00     0.038 C 
HETATM   15 CL1  UNL     1      37.675  -3.532  28.273  1.00  0.00    -0.119 Cl
HETATM   16  C15 UNL     1      39.548  -2.311  29.739  1.00  0.00     0.036 C 
ENDBRANCH   5   6
ENDBRANCH   3   5
BRANCH   1  17
HETATM   17  C4  UNL     1      43.882  -1.272  27.978  1.00  0.00     0.113 C 
BRANCH  17  18
HETATM   18  C3  UNL     1      44.438  -2.648  27.747  1.00  0.00     0.128 C 
BRANCH  18  19
HETATM   19  C2  UNL     1      43.475  -3.525  26.944  1.00  0.00     0.294 C 
HETATM   20  N3  UNL     1      43.729  -3.732  25.684  1.00  0.00    -0.338 NA
HETATM   21  C1  UNL     1      44.004  -3.957  24.315  1.00  0.00     0.264 C 
HETATM   22  N1  UNL     1      45.080  -3.374  23.784  1.00  0.00    -0.362 N 
HETATM   23  N2  UNL     1      43.299  -4.761  23.415  1.00  0.00    -0.049 NA
ATOM     24  H12 UNL     1      45.278  -3.536  22.797  1.00  0.00     0.159 HD
ATOM     25  H11 UNL     1      45.594  -2.787  24.440  1.00  0.00     0.159 HD
HETATM   26  O1  UNL     1      42.508  -3.940  27.695  1.00  0.00    -0.257 OA
ENDBRANCH  18  19
ENDBRANCH  17  18
ENDBRANCH   1  17
TORSDOF 5
ENDMDL
MODEL 5
REMARK VINA RESULT: -6.916350621      7.086      8.474
REMARK  5 active torsions:
REMARK  status: ('A' for Active; 'I' for Inactive)
REMARK       I    between atoms: C1_4  and  N3_6 
REMARK       I    between atoms: N3_6  and  C2_7 
REMARK    1  A    between atoms: C2_7  and  C3_9 
REMARK    2  A    between atoms: C3_9  and  C4_10 
REMARK    3  A    between atoms: C4_10  and  C5_11 
REMARK       I    between atoms: C5_11  and  N4_13 
REMARK    4  A    between atoms: N4_13  and  C6_15 
REMARK    5  A    between atoms: C6_15  and  C7_16 
ROOT
HETATM    1  C5  UNL     1      43.319  -0.969  31.345  1.00  0.00     0.218 C 
HETATM    2  O2  UNL     1      42.189  -0.535  31.071  1.00  0.00    -0.274 OA
HETATM    3  N4  UNL     1      43.980  -0.638  32.577  1.00  0.00    -0.360 N 
ATOM      4  H4  UNL     1      44.916  -0.978  32.797  1.00  0.00     0.162 HD
ENDROOT
BRANCH   3   5
HETATM    5  C6  UNL     1      43.243   0.201  33.478  1.00  0.00     0.132 C 
BRANCH   5   6
HETATM    6  C7  UNL     1      43.893   0.438  34.806  1.00  0.00    -0.022 C 
HETATM    7  C8  UNL     1      45.396   0.169  34.710  1.00  0.00     0.016 C 
HETATM    8  C9  UNL     1      46.055   0.582  36.001  1.00  0.00    -0.012 C 
HETATM    9  C10 UNL     1      45.578  -0.248  37.156  1.00  0.00     0.009 C 
HETATM   10  C14 UNL     1      45.786   2.035  36.315  1.00  0.00     0.030 C 
HETATM   11  C11 UNL     1      44.063  -0.099  37.186  1.00  0.00    -0.012 C 
HETATM   12  C12 UNL     1      43.686   1.314  37.524  1.00  0.00     0.030 C 
HETATM   13  C16 UNL     1      43.408  -0.496  35.901  1.00  0.00     0.016 C 
HETATM   14  C13 UNL     1      44.305   2.232  36.493  1.00  0.00     0.038 C 
HETATM   15 CL1  UNL     1      44.007   3.940  36.847  1.00  0.00    -0.119 Cl
HETATM   16  C15 UNL     1      43.662   1.888  35.169  1.00  0.00     0.036 C 
ENDBRANCH   5   6
ENDBRANCH   3   5
BRANCH   1  17
HETATM   17  C4  UNL     1      44.005  -1.849  30.371  1.00  0.00     0.113 C 
BRANCH  17  18
HETATM   18  C3  UNL     1      43.168  -1.874  29.123  1.00  0.00     0.128 C 
BRANCH  18  19
HETATM   19  C2  UNL     1      43.951  -1.385  27.902  1.00  0.00     0.294 C 
HETATM   20  N3  UNL     1      44.064  -2.181  26.878  1.00  0.00    -0.338 NA
HETATM   21  C1  UNL     1      44.188  -3.045  25.766  1.00  0.00     0.264 C 
HETATM   22  N1  UNL     1      43.634  -4.257  25.843  1.00  0.00    -0.362 N 
HETATM   23  N2  UNL     1      44.803  -2.787  24.538  1.00  0.00    -0.049 NA
ATOM     24  H12 UNL     1      43.723  -4.880  25.041  1.00  0.00     0.159 HD
ATOM     25  H11 UNL     1      43.185  -4.446  26.740  1.00  0.00     0.159 HD
HETATM   26  O1  UNL     1      44.399  -0.190  28.102  1.00  0.00    -0.257 OA
ENDBRANCH  18  19
ENDBRANCH  17  18
ENDBRANCH   1  17
TORSDOF 5
ENDMDL
