MODEL 1
REMARK VINA RESULT: -6.345092515      0.000      0.000
REMARK  6 active torsions:
REMARK  status: ('A' for Active; 'I' for Inactive)
REMARK       I    between atoms: N1_3  and  C3_5 
REMARK       I    between atoms: C3_5  and  N3_9 
REMARK    1  A    between atoms: N3_9  and  C4_11 
REMARK    2  A    between atoms: C4_11  and  N4_13 
REMARK    3  A    between atoms: N4_13  and  C5_15 
REMARK    4  A    between atoms: C10_21  and  N5_22 
REMARK       I    between atoms: N5_22  and  C11_24 
REMARK    5  A    between atoms: C11_24  and  C12_26 
REMARK    6  A    between atoms: C12_26  and  S2_27 
ROOT
HETATM    1  C1  UNL     1      37.012  -4.994  29.525  1.00  0.00     0.037 C 
HETATM    2  C2  UNL     1      38.140  -5.414  29.577  1.00  0.00     0.015 C 
HETATM    3  N1  UNL     1      39.452  -5.925  29.637  1.00  0.00    -0.150 N 
ATOM      4  H1  UNL     1      39.615  -6.924  29.513  1.00  0.00     0.195 HD
HETATM    5  C3  UNL     1      40.544  -5.053  29.868  1.00  0.00     0.685 C 
HETATM    6  N2  UNL     1      40.604  -4.404  30.971  1.00  0.00    -0.234 N 
ATOM      7  H21 UNL     1      41.390  -3.777  31.138  1.00  0.00     0.174 HD
ATOM      8  H22 UNL     1      39.883  -4.502  31.686  1.00  0.00     0.174 HD
HETATM    9  N3  UNL     1      41.537  -4.917  28.884  1.00  0.00    -0.166 N 
ATOM     10  H3  UNL     1      41.281  -4.721  27.916  1.00  0.00     0.186 HD
ENDROOT
BRANCH   9  11
HETATM   11  C4  UNL     1      42.930  -5.059  29.262  1.00  0.00     0.191 C 
HETATM   12  S1  UNL     1      43.296  -6.421  30.031  1.00  0.00    -0.040 SA
BRANCH  11  13
HETATM   13  N4  UNL     1      43.856  -4.062  28.906  1.00  0.00    -0.331 N 
ATOM     14  H4  UNL     1      44.630  -3.896  29.548  1.00  0.00     0.168 HD
BRANCH  13  15
HETATM   15  C5  UNL     1      43.807  -3.276  27.743  1.00  0.00     0.061 A 
HETATM   16  C6  UNL     1      43.980  -3.712  26.462  1.00  0.00     0.033 A 
HETATM   17  C7  UNL     1      44.022  -2.838  25.372  1.00  0.00     0.026 A 
HETATM   18  C8  UNL     1      43.890  -1.502  25.552  1.00  0.00     0.036 A 
HETATM   19 CL1  UNL     1      43.941  -0.410  24.211  1.00  0.00    -0.084 Cl
HETATM   20  C9  UNL     1      43.711  -1.009  26.846  1.00  0.00     0.055 A 
HETATM   21  C10 UNL     1      43.667  -1.866  27.924  1.00  0.00     0.063 A 
BRANCH  21  22
HETATM   22  N5  UNL     1      43.398  -1.420  29.235  1.00  0.00    -0.325 N 
HETATM   23  C11 UNL     1      42.126  -1.384  29.819  1.00  0.00     0.230 C 
HETATM   24  O1  UNL     1      41.087  -1.729  29.256  1.00  0.00    -0.272 OA
ATOM     25  H5  UNL     1      44.186  -1.100  29.797  1.00  0.00     0.169 HD
BRANCH  23  26
HETATM   26  C12 UNL     1      41.944  -0.898  31.238  1.00  0.00     0.165 C 
BRANCH  26  27
HETATM   27  S2  UNL     1      43.187  -1.543  32.322  1.00  0.00    -0.219 SA
HETATM   28  C13 UNL     1      42.556  -2.738  33.441  1.00  0.00     0.078 C 
HETATM   29  C14 UNL     1      43.930  -0.157  33.162  1.00  0.00     0.078 C 
ENDBRANCH  26  27
ENDBRANCH  23  26
ENDBRANCH  21  22
ENDBRANCH  13  15
ENDBRANCH  11  13
ENDBRANCH   9  11
TORSDOF 6
ENDMDL
MODEL 2
REMARK VINA RESULT: -6.324751580      2.234      3.355
REMARK  6 active torsions:
REMARK  status: ('A' for Active; 'I' for Inactive)
REMARK       I    between atoms: N1_3  and  C3_5 
REMARK       I    between atoms: C3_5  and  N3_9 
REMARK    1  A    between atoms: N3_9  and  C4_11 
REMARK    2  A    between atoms: C4_11  and  N4_13 
REMARK    3  A    between atoms: N4_13  and  C5_15 
REMARK    4  A    between atoms: C10_21  and  N5_22 
REMARK       I    between atoms: N5_22  and  C11_24 
REMARK    5  A    between atoms: C11_24  and  C12_26 
REMARK    6  A    between atoms: C12_26  and  S2_27 
ROOT
HETATM    1  C1  UNL     1      45.660  -8.862  33.056  1.00  0.00     0.037 C 
HETATM    2  C2  UNL     1      45.538  -7.917  32.316  1.00  0.00     0.015 C 
HETATM    3  N1  UNL     1      45.416  -6.812  31.451  1.00  0.00    -0.150 N 
ATOM      4  H1  UNL     1      46.238  -6.449  30.969  1.00  0.00     0.195 HD
HETATM    5  C3  UNL     1      44.153  -6.203  31.250  1.00  0.00     0.685 C 
HETATM    6  N2  UNL     1      43.555  -5.660  32.245  1.00  0.00    -0.234 N 
ATOM      7  H21 UNL     1      42.646  -5.221  32.099  1.00  0.00     0.174 HD
ATOM      8  H22 UNL     1      43.969  -5.656  33.177  1.00  0.00     0.174 HD
HETATM    9  N3  UNL     1      43.583  -6.208  29.967  1.00  0.00    -0.166 N 
ATOM     10  H3  UNL     1      43.511  -7.077  29.437  1.00  0.00     0.186 HD
ENDROOT
BRANCH   9  11
HETATM   11  C4  UNL     1      43.097  -4.962  29.405  1.00  0.00     0.191 C 
HETATM   12  S1  UNL     1      41.499  -4.796  29.386  1.00  0.00    -0.040 SA
BRANCH  11  13
HETATM   13  N4  UNL     1      44.014  -3.987  28.972  1.00  0.00    -0.331 N 
ATOM     14  H4  UNL     1      44.834  -3.828  29.556  1.00  0.00     0.168 HD
BRANCH  13  15
HETATM   15  C5  UNL     1      43.898  -3.214  27.805  1.00  0.00     0.061 A 
HETATM   16  C6  UNL     1      43.866  -3.679  26.524  1.00  0.00     0.033 A 
HETATM   17  C7  UNL     1      43.857  -2.826  25.416  1.00  0.00     0.026 A 
HETATM   18  C8  UNL     1      43.879  -1.482  25.579  1.00  0.00     0.036 A 
HETATM   19 CL1  UNL     1      43.868  -0.416  24.216  1.00  0.00    -0.084 Cl
HETATM   20  C9  UNL     1      43.910  -0.959  26.873  1.00  0.00     0.055 A 
HETATM   21  C10 UNL     1      43.919  -1.795  27.969  1.00  0.00     0.063 A 
BRANCH  21  22
HETATM   22  N5  UNL     1      43.859  -1.308  29.292  1.00  0.00    -0.325 N 
HETATM   23  C11 UNL     1      42.675  -1.052  29.994  1.00  0.00     0.230 C 
HETATM   24  O1  UNL     1      41.542  -1.210  29.538  1.00  0.00    -0.272 OA
ATOM     25  H5  UNL     1      44.742  -1.131  29.771  1.00  0.00     0.169 HD
BRANCH  23  26
HETATM   26  C12 UNL     1      42.718  -0.542  31.415  1.00  0.00     0.165 C 
BRANCH  26  27
HETATM   27  S2  UNL     1      42.825  -1.864  32.589  1.00  0.00    -0.219 SA
HETATM   28  C13 UNL     1      41.347  -2.804  32.686  1.00  0.00     0.078 C 
HETATM   29  C14 UNL     1      43.274  -1.146  34.158  1.00  0.00     0.078 C 
ENDBRANCH  26  27
ENDBRANCH  23  26
ENDBRANCH  21  22
ENDBRANCH  13  15
ENDBRANCH  11  13
ENDBRANCH   9  11
TORSDOF 6
ENDMDL
MODEL 3
REMARK VINA RESULT: -6.189638316      0.988      1.347
REMARK  6 active torsions:
REMARK  status: ('A' for Active; 'I' for Inactive)
REMARK       I    between atoms: N1_3  and  C3_5 
REMARK       I    between atoms: C3_5  and  N3_9 
REMARK    1  A    between atoms: N3_9  and  C4_11 
REMARK    2  A    between atoms: C4_11  and  N4_13 
REMARK    3  A    between atoms: N4_13  and  C5_15 
REMARK    4  A    between atoms: C10_21  and  N5_22 
REMARK       I    between atoms: N5_22  and  C11_24 
REMARK    5  A    between atoms: C11_24  and  C12_26 
REMARK    6  A    between atoms: C12_26  and  S2_27 
ROOT
HETATM    1  C1  UNL     1      37.067  -4.984  29.669  1.00  0.00     0.037 C 
HETATM    2  C2  UNL     1      38.197  -5.404  29.648  1.00  0.00     0.015 C 
HETATM    3  N1  UNL     1      39.510  -5.912  29.623  1.00  0.00    -0.150 N 
ATOM      4  H1  UNL     1      39.669  -6.903  29.442  1.00  0.00     0.195 HD
HETATM    5  C3  UNL     1      40.611  -5.049  29.848  1.00  0.00     0.685 C 
HETATM    6  N2  UNL     1      40.720  -4.457  30.978  1.00  0.00    -0.234 N 
ATOM      7  H21 UNL     1      41.513  -3.836  31.140  1.00  0.00     0.174 HD
ATOM      8  H22 UNL     1      40.033  -4.593  31.719  1.00  0.00     0.174 HD
HETATM    9  N3  UNL     1      41.558  -4.862  28.828  1.00  0.00    -0.166 N 
ATOM     10  H3  UNL     1      41.259  -4.618  27.884  1.00  0.00     0.186 HD
ENDROOT
BRANCH   9  11
HETATM   11  C4  UNL     1      42.967  -5.018  29.135  1.00  0.00     0.191 C 
HETATM   12  S1  UNL     1      43.361  -6.396  29.861  1.00  0.00    -0.040 SA
BRANCH  11  13
HETATM   13  N4  UNL     1      43.881  -4.020  28.751  1.00  0.00    -0.331 N 
ATOM     14  H4  UNL     1      44.657  -3.833  29.384  1.00  0.00     0.168 HD
BRANCH  13  15
HETATM   15  C5  UNL     1      43.816  -3.259  27.572  1.00  0.00     0.061 A 
HETATM   16  C6  UNL     1      43.906  -3.732  26.296  1.00  0.00     0.033 A 
HETATM   17  C7  UNL     1      43.939  -2.886  25.184  1.00  0.00     0.026 A 
HETATM   18  C8  UNL     1      43.884  -1.542  25.336  1.00  0.00     0.036 A 
HETATM   19 CL1  UNL     1      43.925  -0.484  23.967  1.00  0.00    -0.084 Cl
HETATM   20  C9  UNL     1      43.791  -1.011  26.624  1.00  0.00     0.055 A 
HETATM   21  C10 UNL     1      43.756  -1.840  27.724  1.00  0.00     0.063 A 
BRANCH  21  22
HETATM   22  N5  UNL     1      43.572  -1.351  29.035  1.00  0.00    -0.325 N 
HETATM   23  C11 UNL     1      42.358  -1.378  29.733  1.00  0.00     0.230 C 
HETATM   24  O1  UNL     1      41.302  -1.823  29.283  1.00  0.00    -0.272 OA
ATOM     25  H5  UNL     1      44.381  -0.948  29.507  1.00  0.00     0.169 HD
BRANCH  23  26
HETATM   26  C12 UNL     1      42.267  -0.838  31.140  1.00  0.00     0.165 C 
BRANCH  26  27
HETATM   27  S2  UNL     1      40.633  -0.991  31.803  1.00  0.00    -0.219 SA
HETATM   28  C13 UNL     1      39.490   0.108  31.051  1.00  0.00     0.078 C 
HETATM   29  C14 UNL     1      40.748  -0.744  33.565  1.00  0.00     0.078 C 
ENDBRANCH  26  27
ENDBRANCH  23  26
ENDBRANCH  21  22
ENDBRANCH  13  15
ENDBRANCH  11  13
ENDBRANCH   9  11
TORSDOF 6
ENDMDL
MODEL 4
REMARK VINA RESULT: -6.039616037      2.037      3.950
REMARK  6 active torsions:
REMARK  status: ('A' for Active; 'I' for Inactive)
REMARK       I    between atoms: N1_3  and  C3_5 
REMARK       I    between atoms: C3_5  and  N3_9 
REMARK    1  A    between atoms: N3_9  and  C4_11 
REMARK    2  A    between atoms: C4_11  and  N4_13 
REMARK    3  A    between atoms: N4_13  and  C5_15 
REMARK    4  A    between atoms: C10_21  and  N5_22 
REMARK       I    between atoms: N5_22  and  C11_24 
REMARK    5  A    between atoms: C11_24  and  C12_26 
REMARK    6  A    between atoms: C12_26  and  S2_27 
ROOT
HETATM    1  C1  UNL     1      37.564  -3.378  28.749  1.00  0.00     0.037 C 
HETATM    2  C2  UNL     1      38.752  -3.225  28.887  1.00  0.00     0.015 C 
HETATM    3  N1  UNL     1      40.143  -3.059  29.032  1.00  0.00    -0.150 N 
ATOM      4  H1  UNL     1      40.777  -3.431  28.326  1.00  0.00     0.195 HD
HETATM    5  C3  UNL     1      40.663  -2.375  30.159  1.00  0.00     0.685 C 
HETATM    6  N2  UNL     1      40.464  -2.856  31.329  1.00  0.00    -0.234 N 
ATOM      7  H21 UNL     1      40.839  -2.364  32.140  1.00  0.00     0.174 HD
ATOM      8  H22 UNL     1      39.940  -3.720  31.467  1.00  0.00     0.174 HD
HETATM    9  N3  UNL     1      41.384  -1.185  29.969  1.00  0.00    -0.166 N 
ATOM     10  H3  UNL     1      41.001  -0.434  29.395  1.00  0.00     0.186 HD
ENDROOT
BRANCH   9  11
HETATM   11  C4  UNL     1      42.683  -1.039  30.598  1.00  0.00     0.191 C 
HETATM   12  S1  UNL     1      42.659  -0.426  32.083  1.00  0.00    -0.040 SA
BRANCH  11  13
HETATM   13  N4  UNL     1      43.840  -1.470  29.924  1.00  0.00    -0.331 N 
ATOM     14  H4  UNL     1      44.705  -1.505  30.461  1.00  0.00     0.168 HD
BRANCH  13  15
HETATM   15  C5  UNL     1      43.906  -1.855  28.574  1.00  0.00     0.061 A 
HETATM   16  C6  UNL     1      43.931  -1.023  27.494  1.00  0.00     0.033 A 
HETATM   17  C7  UNL     1      43.890  -1.499  26.181  1.00  0.00     0.026 A 
HETATM   18  C8  UNL     1      43.822  -2.827  25.929  1.00  0.00     0.036 A 
HETATM   19 CL1  UNL     1      43.769  -3.428  24.307  1.00  0.00    -0.084 Cl
HETATM   20  C9  UNL     1      43.795  -3.718  27.003  1.00  0.00     0.055 A 
HETATM   21  C10 UNL     1      43.837  -3.255  28.300  1.00  0.00     0.063 A 
BRANCH  21  22
HETATM   22  N5  UNL     1      43.902  -4.122  29.411  1.00  0.00    -0.325 N 
HETATM   23  C11 UNL     1      42.991  -5.153  29.673  1.00  0.00     0.230 C 
HETATM   24  O1  UNL     1      42.016  -5.420  28.970  1.00  0.00    -0.272 OA
ATOM     25  H5  UNL     1      44.668  -3.989  30.071  1.00  0.00     0.169 HD
BRANCH  23  26
HETATM   26  C12 UNL     1      43.156  -6.036  30.887  1.00  0.00     0.165 C 
BRANCH  26  27
HETATM   27  S2  UNL     1      43.783  -7.637  30.459  1.00  0.00    -0.219 SA
HETATM   28  C13 UNL     1      42.684  -8.934  30.896  1.00  0.00     0.078 C 
HETATM   29  C14 UNL     1      45.376  -7.810  31.241  1.00  0.00     0.078 C 
ENDBRANCH  26  27
ENDBRANCH  23  26
ENDBRANCH  21  22
ENDBRANCH  13  15
ENDBRANCH  11  13
ENDBRANCH   9  11
TORSDOF 6
ENDMDL
MODEL 5
REMARK VINA RESULT: -5.861649359      2.218      3.993
REMARK  6 active torsions:
REMARK  status: ('A' for Active; 'I' for Inactive)
REMARK       I    between atoms: N1_3  and  C3_5 
REMARK       I    between atoms: C3_5  and  N3_9 
REMARK    1  A    between atoms: N3_9  and  C4_11 
REMARK    2  A    between atoms: C4_11  and  N4_13 
REMARK    3  A    between atoms: N4_13  and  C5_15 
REMARK    4  A    between atoms: C10_21  and  N5_22 
REMARK       I    between atoms: N5_22  and  C11_24 
REMARK    5  A    between atoms: C11_24  and  C12_26 
REMARK    6  A    between atoms: C12_26  and  S2_27 
ROOT
HETATM    1  C1  UNL     1      36.971  -0.766  31.190  1.00  0.00     0.037 C 
HETATM    2  C2  UNL     1      38.136  -0.689  31.491  1.00  0.00     0.015 C 
HETATM    3  N1  UNL     1      39.492  -0.588  31.859  1.00  0.00    -0.150 N 
ATOM      4  H1  UNL     1      39.745  -0.207  32.770  1.00  0.00     0.195 HD
HETATM    5  C3  UNL     1      40.505  -1.015  30.965  1.00  0.00     0.685 C 
HETATM    6  N2  UNL     1      40.631  -0.426  29.835  1.00  0.00    -0.234 N 
ATOM      7  H21 UNL     1      41.360  -0.733  29.192  1.00  0.00     0.174 HD
ATOM      8  H22 UNL     1      40.018   0.344  29.565  1.00  0.00     0.174 HD
HETATM    9  N3  UNL     1      41.348  -2.074  31.337  1.00  0.00    -0.166 N 
ATOM     10  H3  UNL     1      40.956  -2.950  31.682  1.00  0.00     0.186 HD
ENDROOT
BRANCH   9  11
HETATM   11  C4  UNL     1      42.785  -1.907  31.222  1.00  0.00     0.191 C 
HETATM   12  S1  UNL     1      43.429  -0.818  32.213  1.00  0.00    -0.040 SA
BRANCH  11  13
HETATM   13  N4  UNL     1      43.513  -2.709  30.325  1.00  0.00    -0.331 N 
ATOM     14  H4  UNL     1      43.948  -3.550  30.701  1.00  0.00     0.168 HD
BRANCH  13  15
HETATM   15  C5  UNL     1      43.692  -2.451  28.955  1.00  0.00     0.061 A 
HETATM   16  C6  UNL     1      43.957  -1.240  28.387  1.00  0.00     0.033 A 
HETATM   17  C7  UNL     1      44.014  -1.059  27.002  1.00  0.00     0.026 A 
HETATM   18  C8  UNL     1      43.805  -2.099  26.160  1.00  0.00     0.036 A 
HETATM   19 CL1  UNL     1      43.872  -1.887  24.444  1.00  0.00    -0.084 Cl
HETATM   20  C9  UNL     1      43.531  -3.358  26.696  1.00  0.00     0.055 A 
HETATM   21  C10 UNL     1      43.475  -3.543  28.061  1.00  0.00     0.063 A 
BRANCH  21  22
HETATM   22  N5  UNL     1      43.292  -4.814  28.645  1.00  0.00    -0.325 N 
HETATM   23  C11 UNL     1      42.120  -5.235  29.287  1.00  0.00     0.230 C 
HETATM   24  O1  UNL     1      41.112  -4.542  29.428  1.00  0.00    -0.272 OA
ATOM     25  H5  UNL     1      44.068  -5.473  28.596  1.00  0.00     0.169 HD
BRANCH  23  26
HETATM   26  C12 UNL     1      42.020  -6.624  29.871  1.00  0.00     0.165 C 
BRANCH  26  27
HETATM   27  S2  UNL     1      42.815  -6.736  31.450  1.00  0.00    -0.219 SA
HETATM   28  C13 UNL     1      42.403  -5.402  32.512  1.00  0.00     0.078 C 
HETATM   29  C14 UNL     1      44.570  -6.847  31.154  1.00  0.00     0.078 C 
ENDBRANCH  26  27
ENDBRANCH  23  26
ENDBRANCH  21  22
ENDBRANCH  13  15
ENDBRANCH  11  13
ENDBRANCH   9  11
TORSDOF 6
ENDMDL
