MODEL 1
REMARK VINA RESULT: -6.601102905      0.000      0.000
REMARK  8 active torsions:
REMARK  status: ('A' for Active; 'I' for Inactive)
REMARK    1  A    between atoms: C2_2  and  C3_3 
REMARK    2  A    between atoms: C4_4  and  C5_5 
REMARK    3  A    between atoms: C5_5  and  N1_6 
REMARK       I    between atoms: N1_6  and  C6_7 
REMARK    4  A    between atoms: C6_7  and  C7_9 
REMARK    5  A    between atoms: C8_10  and  C9_11 
REMARK       I    between atoms: C9_11  and  N2_13 
REMARK    6  A    between atoms: N2_13  and  C10_15 
REMARK    7  A    between atoms: C10_15  and  C11_16 
REMARK    8  A    between atoms: C20_28  and  N5_29 
ROOT
HETATM    1  C7  UNL     1      43.707  -2.367  27.531  1.00  0.00     0.125 A 
HETATM    2  C8  UNL     1      43.446  -3.654  27.887  1.00  0.00     0.137 A 
HETATM    3  N3  UNL     1      43.472  -4.417  26.752  1.00  0.00    -0.291 N 
ATOM      4  H3  UNL     1      43.314  -5.423  26.710  1.00  0.00     0.187 HD
HETATM    5  N4  UNL     1      43.732  -3.645  25.733  1.00  0.00    -0.280 N 
HETATM    6  C19 UNL     1      43.851  -4.008  24.313  1.00  0.00     0.179 C 
HETATM    7  C20 UNL     1      43.886  -2.352  26.178  1.00  0.00     0.135 A 
ENDROOT
BRANCH   2   8
HETATM    8  C9  UNL     1      43.058  -4.204  29.214  1.00  0.00     0.271 C 
HETATM    9  O2  UNL     1      43.856  -3.930  30.130  1.00  0.00    -0.266 OA
HETATM   10  N2  UNL     1      41.892  -4.943  29.303  1.00  0.00    -0.345 N 
ATOM     11  H2  UNL     1      41.393  -5.068  28.422  1.00  0.00     0.163 HD
BRANCH  10  12
HETATM   12  C10 UNL     1      41.267  -5.572  30.465  1.00  0.00     0.047 A 
HETATM   13  C15 UNL     1      39.854  -6.045  30.092  1.00  0.00     0.043 A 
HETATM   14  C16 UNL     1      40.134  -4.809  30.994  1.00  0.00    -0.019 A 
HETATM   15  C17 UNL     1      39.463  -4.938  32.305  1.00  0.00     0.017 C 
HETATM   16  C18 UNL     1      39.787  -3.479  30.303  1.00  0.00     0.017 C 
BRANCH  12  17
HETATM   17  C11 UNL     1      42.093  -6.570  31.127  1.00  0.00    -0.025 C 
HETATM   18  C12 UNL     1      42.729  -6.129  32.410  1.00  0.00     0.017 C 
HETATM   19  C13 UNL     1      41.169  -7.764  31.475  1.00  0.00     0.017 C 
HETATM   20  C14 UNL     1      43.199  -7.195  30.321  1.00  0.00     0.017 C 
ENDBRANCH  12  17
ENDBRANCH  10  12
ENDBRANCH   2   8
BRANCH   1  21
HETATM   21  C6  UNL     1      43.880  -1.230  28.496  1.00  0.00     0.332 C 
HETATM   22  N1  UNL     1      42.998  -0.901  29.442  1.00  0.00    -0.370 NA
HETATM   23  O1  UNL     1      44.997  -0.619  28.285  1.00  0.00    -0.251 OA
BRANCH  22  24
HETATM   24  C5  UNL     1      42.070  -0.554  30.437  1.00  0.00     0.250 C 
BRANCH  24  25
HETATM   25  C4  UNL     1      42.241  -1.374  31.669  1.00  0.00    -0.047 C 
HETATM   26  C3  UNL     1      42.347  -2.037  32.673  1.00  0.00    -0.100 C 
BRANCH  26  27
HETATM   27  C2  UNL     1      42.442  -2.829  33.878  1.00  0.00     0.090 C 
HETATM   28  C1  UNL     1      41.221  -2.736  34.772  1.00  0.00     0.018 C 
ENDBRANCH  26  27
ENDBRANCH  24  25
ENDBRANCH  22  24
ENDBRANCH   1  21
BRANCH   7  29
HETATM   29  N5  UNL     1      44.164  -1.352  25.429  1.00  0.00    -0.383 N 
ATOM     30  H52 UNL     1      43.534  -0.572  25.242  1.00  0.00     0.157 HD
ATOM     31  H51 UNL     1      45.020  -1.179  24.901  1.00  0.00     0.157 HD
ENDBRANCH   7  29
TORSDOF 8
ENDMDL
MODEL 2
REMARK VINA RESULT: -6.489666201      1.078      1.248
REMARK  8 active torsions:
REMARK  status: ('A' for Active; 'I' for Inactive)
REMARK    1  A    between atoms: C2_2  and  C3_3 
REMARK    2  A    between atoms: C4_4  and  C5_5 
REMARK    3  A    between atoms: C5_5  and  N1_6 
REMARK       I    between atoms: N1_6  and  C6_7 
REMARK    4  A    between atoms: C6_7  and  C7_9 
REMARK    5  A    between atoms: C8_10  and  C9_11 
REMARK       I    between atoms: C9_11  and  N2_13 
REMARK    6  A    between atoms: N2_13  and  C10_15 
REMARK    7  A    between atoms: C10_15  and  C11_16 
REMARK    8  A    between atoms: C20_28  and  N5_29 
ROOT
HETATM    1  C7  UNL     1      43.709  -2.349  27.588  1.00  0.00     0.125 A 
HETATM    2  C8  UNL     1      43.461  -3.639  27.942  1.00  0.00     0.137 A 
HETATM    3  N3  UNL     1      43.499  -4.401  26.807  1.00  0.00    -0.291 N 
ATOM      4  H3  UNL     1      43.351  -5.409  26.763  1.00  0.00     0.187 HD
HETATM    5  N4  UNL     1      43.754  -3.625  25.789  1.00  0.00    -0.280 N 
HETATM    6  C19 UNL     1      43.881  -3.986  24.369  1.00  0.00     0.179 C 
HETATM    7  C20 UNL     1      43.892  -2.331  26.236  1.00  0.00     0.135 A 
ENDROOT
BRANCH   2   8
HETATM    8  C9  UNL     1      43.074  -4.195  29.267  1.00  0.00     0.271 C 
HETATM    9  O2  UNL     1      43.861  -3.905  30.188  1.00  0.00    -0.266 OA
HETATM   10  N2  UNL     1      41.921  -4.955  29.349  1.00  0.00    -0.345 N 
ATOM     11  H2  UNL     1      41.430  -5.089  28.466  1.00  0.00     0.163 HD
BRANCH  10  12
HETATM   12  C10 UNL     1      41.300  -5.593  30.508  1.00  0.00     0.047 A 
HETATM   13  C15 UNL     1      39.871  -6.025  30.149  1.00  0.00     0.043 A 
HETATM   14  C16 UNL     1      40.195  -4.816  31.072  1.00  0.00    -0.019 A 
HETATM   15  C17 UNL     1      39.542  -4.957  32.392  1.00  0.00     0.017 C 
HETATM   16  C18 UNL     1      39.869  -3.464  30.416  1.00  0.00     0.017 C 
BRANCH  12  17
HETATM   17  C11 UNL     1      42.113  -6.625  31.136  1.00  0.00    -0.025 C 
HETATM   18  C12 UNL     1      42.745  -6.241  32.438  1.00  0.00     0.017 C 
HETATM   19  C13 UNL     1      41.175  -7.823  31.431  1.00  0.00     0.017 C 
HETATM   20  C14 UNL     1      43.217  -7.228  30.311  1.00  0.00     0.017 C 
ENDBRANCH  12  17
ENDBRANCH  10  12
ENDBRANCH   2   8
BRANCH   1  21
HETATM   21  C6  UNL     1      43.867  -1.211  28.554  1.00  0.00     0.332 C 
HETATM   22  N1  UNL     1      43.019  -0.942  29.550  1.00  0.00    -0.370 NA
HETATM   23  O1  UNL     1      44.933  -0.534  28.291  1.00  0.00    -0.251 OA
BRANCH  22  24
HETATM   24  C5  UNL     1      42.127  -0.658  30.596  1.00  0.00     0.250 C 
BRANCH  24  25
HETATM   25  C4  UNL     1      42.823  -0.556  31.909  1.00  0.00    -0.047 C 
HETATM   26  C3  UNL     1      43.379  -0.441  32.975  1.00  0.00    -0.100 C 
BRANCH  26  27
HETATM   27  C2  UNL     1      44.034  -0.273  34.253  1.00  0.00     0.090 C 
HETATM   28  C1  UNL     1      45.220   0.670  34.216  1.00  0.00     0.018 C 
ENDBRANCH  26  27
ENDBRANCH  24  25
ENDBRANCH  22  24
ENDBRANCH   1  21
BRANCH   7  29
HETATM   29  N5  UNL     1      44.162  -1.327  25.488  1.00  0.00    -0.383 N 
ATOM     30  H52 UNL     1      43.577  -1.001  24.719  1.00  0.00     0.157 HD
ATOM     31  H51 UNL     1      44.981  -0.719  25.522  1.00  0.00     0.157 HD
ENDBRANCH   7  29
TORSDOF 8
ENDMDL
MODEL 3
REMARK VINA RESULT: -6.440660199      1.976      4.579
REMARK  8 active torsions:
REMARK  status: ('A' for Active; 'I' for Inactive)
REMARK    1  A    between atoms: C2_2  and  C3_3 
REMARK    2  A    between atoms: C4_4  and  C5_5 
REMARK    3  A    between atoms: C5_5  and  N1_6 
REMARK       I    between atoms: N1_6  and  C6_7 
REMARK    4  A    between atoms: C6_7  and  C7_9 
REMARK    5  A    between atoms: C8_10  and  C9_11 
REMARK       I    between atoms: C9_11  and  N2_13 
REMARK    6  A    between atoms: N2_13  and  C10_15 
REMARK    7  A    between atoms: C10_15  and  C11_16 
REMARK    8  A    between atoms: C20_28  and  N5_29 
ROOT
HETATM    1  C7  UNL     1      43.128  -3.043  28.994  1.00  0.00     0.125 A 
HETATM    2  C8  UNL     1      42.831  -1.747  29.286  1.00  0.00     0.137 A 
HETATM    3  N3  UNL     1      43.091  -0.997  28.173  1.00  0.00    -0.291 N 
ATOM      4  H3  UNL     1      42.960   0.012  28.093  1.00  0.00     0.187 HD
HETATM    5  N4  UNL     1      43.534  -1.782  27.230  1.00  0.00    -0.280 N 
HETATM    6  C19 UNL     1      43.952  -1.432  25.865  1.00  0.00     0.179 C 
HETATM    7  C20 UNL     1      43.573  -3.073  27.705  1.00  0.00     0.135 A 
ENDROOT
BRANCH   2   8
HETATM    8  C9  UNL     1      42.425  -1.143  30.584  1.00  0.00     0.271 C 
HETATM    9  O2  UNL     1      43.061  -0.115  30.885  1.00  0.00    -0.266 OA
HETATM   10  N2  UNL     1      41.420  -1.757  31.308  1.00  0.00    -0.345 N 
ATOM     11  H2  UNL     1      41.044  -2.607  30.889  1.00  0.00     0.163 HD
BRANCH  10  12
HETATM   12  C10 UNL     1      40.815  -1.374  32.583  1.00  0.00     0.047 A 
HETATM   13  C15 UNL     1      39.376  -1.906  32.645  1.00  0.00     0.043 A 
HETATM   14  C16 UNL     1      39.727  -0.405  32.436  1.00  0.00    -0.019 A 
HETATM   15  C17 UNL     1      39.097   0.443  33.472  1.00  0.00     0.017 C 
HETATM   16  C18 UNL     1      39.400   0.089  31.017  1.00  0.00     0.017 C 
BRANCH  12  17
HETATM   17  C11 UNL     1      41.631  -1.672  33.751  1.00  0.00    -0.025 C 
HETATM   18  C12 UNL     1      40.872  -2.073  34.979  1.00  0.00     0.017 C 
HETATM   19  C13 UNL     1      42.538  -2.871  33.375  1.00  0.00     0.017 C 
HETATM   20  C14 UNL     1      42.601  -0.615  34.201  1.00  0.00     0.017 C 
ENDBRANCH  12  17
ENDBRANCH  10  12
ENDBRANCH   2   8
BRANCH   1  21
HETATM   21  C6  UNL     1      42.879  -4.205  29.911  1.00  0.00     0.332 C 
HETATM   22  N1  UNL     1      41.670  -4.620  30.295  1.00  0.00    -0.370 NA
HETATM   23  O1  UNL     1      43.993  -4.747  30.272  1.00  0.00    -0.251 OA
BRANCH  22  24
HETATM   24  C5  UNL     1      40.398  -5.055  30.699  1.00  0.00     0.250 C 
BRANCH  24  25
HETATM   25  C4  UNL     1      39.309  -4.259  30.066  1.00  0.00    -0.047 C 
HETATM   26  C3  UNL     1      38.405  -3.636  29.565  1.00  0.00    -0.100 C 
BRANCH  26  27
HETATM   27  C2  UNL     1      37.300  -2.908  28.981  1.00  0.00     0.090 C 
HETATM   28  C1  UNL     1      36.567  -2.013  29.960  1.00  0.00     0.018 C 
ENDBRANCH  26  27
ENDBRANCH  24  25
ENDBRANCH  22  24
ENDBRANCH   1  21
BRANCH   7  29
HETATM   29  N5  UNL     1      43.947  -4.089  27.021  1.00  0.00    -0.383 N 
ATOM     30  H52 UNL     1      44.799  -4.132  26.462  1.00  0.00     0.157 HD
ATOM     31  H51 UNL     1      43.469  -4.984  26.910  1.00  0.00     0.157 HD
ENDBRANCH   7  29
TORSDOF 8
ENDMDL
MODEL 4
REMARK VINA RESULT: -6.411903738      1.328      2.767
REMARK  8 active torsions:
REMARK  status: ('A' for Active; 'I' for Inactive)
REMARK    1  A    between atoms: C2_2  and  C3_3 
REMARK    2  A    between atoms: C4_4  and  C5_5 
REMARK    3  A    between atoms: C5_5  and  N1_6 
REMARK       I    between atoms: N1_6  and  C6_7 
REMARK    4  A    between atoms: C6_7  and  C7_9 
REMARK    5  A    between atoms: C8_10  and  C9_11 
REMARK       I    between atoms: C9_11  and  N2_13 
REMARK    6  A    between atoms: N2_13  and  C10_15 
REMARK    7  A    between atoms: C10_15  and  C11_16 
REMARK    8  A    between atoms: C20_28  and  N5_29 
ROOT
HETATM    1  C7  UNL     1      43.420  -2.544  28.030  1.00  0.00     0.125 A 
HETATM    2  C8  UNL     1      43.459  -3.861  28.368  1.00  0.00     0.137 A 
HETATM    3  N3  UNL     1      43.651  -4.583  27.223  1.00  0.00    -0.291 N 
ATOM      4  H3  UNL     1      43.724  -5.599  27.167  1.00  0.00     0.187 HD
HETATM    5  N4  UNL     1      43.725  -3.759  26.214  1.00  0.00    -0.280 N 
HETATM    6  C19 UNL     1      43.915  -4.068  24.789  1.00  0.00     0.179 C 
HETATM    7  C20 UNL     1      43.583  -2.471  26.677  1.00  0.00     0.135 A 
ENDROOT
BRANCH   2   8
HETATM    8  C9  UNL     1      43.211  -4.502  29.688  1.00  0.00     0.271 C 
HETATM    9  O2  UNL     1      44.213  -5.055  30.179  1.00  0.00    -0.266 OA
HETATM   10  N2  UNL     1      41.939  -4.429  30.225  1.00  0.00    -0.345 N 
ATOM     11  H2  UNL     1      41.254  -3.944  29.646  1.00  0.00     0.163 HD
BRANCH  10  12
HETATM   12  C10 UNL     1      41.427  -4.940  31.495  1.00  0.00     0.047 A 
HETATM   13  C15 UNL     1      41.856  -6.404  31.668  1.00  0.00     0.043 A 
HETATM   14  C16 UNL     1      40.401  -5.971  31.330  1.00  0.00    -0.019 A 
HETATM   15  C17 UNL     1      39.441  -6.491  32.329  1.00  0.00     0.017 C 
HETATM   16  C18 UNL     1      39.988  -6.342  29.896  1.00  0.00     0.017 C 
BRANCH  12  17
HETATM   17  C11 UNL     1      41.694  -4.083  32.641  1.00  0.00    -0.025 C 
HETATM   18  C12 UNL     1      40.506  -3.354  33.190  1.00  0.00     0.017 C 
HETATM   19  C13 UNL     1      42.220  -4.997  33.777  1.00  0.00     0.017 C 
HETATM   20  C14 UNL     1      42.771  -3.044  32.488  1.00  0.00     0.017 C 
ENDBRANCH  12  17
ENDBRANCH  10  12
ENDBRANCH   2   8
BRANCH   1  21
HETATM   21  C6  UNL     1      43.335  -1.410  29.009  1.00  0.00     0.332 C 
HETATM   22  N1  UNL     1      42.242  -1.094  29.708  1.00  0.00    -0.370 NA
HETATM   23  O1  UNL     1      44.463  -0.787  29.084  1.00  0.00    -0.251 OA
BRANCH  22  24
HETATM   24  C5  UNL     1      41.093  -0.761  30.441  1.00  0.00     0.250 C 
BRANCH  24  25
HETATM   25  C4  UNL     1      39.949  -1.663  30.125  1.00  0.00    -0.047 C 
HETATM   26  C3  UNL     1      39.031  -2.392  29.836  1.00  0.00    -0.100 C 
BRANCH  26  27
HETATM   27  C2  UNL     1      37.941  -3.263  29.460  1.00  0.00     0.090 C 
HETATM   28  C1  UNL     1      36.663  -2.530  29.102  1.00  0.00     0.018 C 
ENDBRANCH  26  27
ENDBRANCH  24  25
ENDBRANCH  22  24
ENDBRANCH   1  21
BRANCH   7  29
HETATM   29  N5  UNL     1      43.625  -1.424  25.941  1.00  0.00    -0.383 N 
ATOM     30  H52 UNL     1      43.995  -1.396  24.990  1.00  0.00     0.157 HD
ATOM     31  H51 UNL     1      43.324  -0.478  26.174  1.00  0.00     0.157 HD
ENDBRANCH   7  29
TORSDOF 8
ENDMDL
MODEL 5
REMARK VINA RESULT: -6.315770584      0.711      2.146
REMARK  8 active torsions:
REMARK  status: ('A' for Active; 'I' for Inactive)
REMARK    1  A    between atoms: C2_2  and  C3_3 
REMARK    2  A    between atoms: C4_4  and  C5_5 
REMARK    3  A    between atoms: C5_5  and  N1_6 
REMARK       I    between atoms: N1_6  and  C6_7 
REMARK    4  A    between atoms: C6_7  and  C7_9 
REMARK    5  A    between atoms: C8_10  and  C9_11 
REMARK       I    between atoms: C9_11  and  N2_13 
REMARK    6  A    between atoms: N2_13  and  C10_15 
REMARK    7  A    between atoms: C10_15  and  C11_16 
REMARK    8  A    between atoms: C20_28  and  N5_29 
ROOT
HETATM    1  C7  UNL     1      43.720  -2.304  27.510  1.00  0.00     0.125 A 
HETATM    2  C8  UNL     1      43.404  -3.565  27.909  1.00  0.00     0.137 A 
HETATM    3  N3  UNL     1      43.444  -4.377  26.809  1.00  0.00    -0.291 N 
ATOM      4  H3  UNL     1      43.254  -5.379  26.803  1.00  0.00     0.187 HD
HETATM    5  N4  UNL     1      43.767  -3.659  25.769  1.00  0.00    -0.280 N 
HETATM    6  C19 UNL     1      43.923  -4.087  24.371  1.00  0.00     0.179 C 
HETATM    7  C20 UNL     1      43.948  -2.353  26.165  1.00  0.00     0.135 A 
ENDROOT
BRANCH   2   8
HETATM    8  C9  UNL     1      42.949  -4.045  29.243  1.00  0.00     0.271 C 
HETATM    9  O2  UNL     1      43.811  -3.948  30.137  1.00  0.00    -0.266 OA
HETATM   10  N2  UNL     1      41.662  -4.537  29.360  1.00  0.00    -0.345 N 
ATOM     11  H2  UNL     1      41.124  -4.547  28.494  1.00  0.00     0.163 HD
BRANCH  10  12
HETATM   12  C10 UNL     1      40.956  -5.044  30.535  1.00  0.00     0.047 A 
HETATM   13  C15 UNL     1      41.922  -5.103  31.727  1.00  0.00     0.043 A 
HETATM   14  C16 UNL     1      41.423  -6.363  30.964  1.00  0.00    -0.019 A 
HETATM   15  C17 UNL     1      40.771  -7.323  31.882  1.00  0.00     0.017 C 
HETATM   16  C18 UNL     1      42.530  -7.032  30.132  1.00  0.00     0.017 C 
BRANCH  12  17
HETATM   17  C11 UNL     1      39.687  -4.384  30.807  1.00  0.00    -0.025 C 
HETATM   18  C12 UNL     1      39.508  -3.887  32.208  1.00  0.00     0.017 C 
HETATM   19  C13 UNL     1      39.615  -3.143  29.881  1.00  0.00     0.017 C 
HETATM   20  C14 UNL     1      38.431  -5.146  30.484  1.00  0.00     0.017 C 
ENDBRANCH  12  17
ENDBRANCH  10  12
ENDBRANCH   2   8
BRANCH   1  21
HETATM   21  C6  UNL     1      43.897  -1.133  28.431  1.00  0.00     0.332 C 
HETATM   22  N1  UNL     1      43.015  -0.764  29.364  1.00  0.00    -0.370 NA
HETATM   23  O1  UNL     1      45.017  -0.534  28.199  1.00  0.00    -0.251 OA
BRANCH  22  24
HETATM   24  C5  UNL     1      42.088  -0.377  30.343  1.00  0.00     0.250 C 
BRANCH  24  25
HETATM   25  C4  UNL     1      42.304  -1.096  31.631  1.00  0.00    -0.047 C 
HETATM   26  C3  UNL     1      42.455  -1.659  32.687  1.00  0.00    -0.100 C 
BRANCH  26  27
HETATM   27  C2  UNL     1      42.612  -2.318  33.965  1.00  0.00     0.090 C 
HETATM   28  C1  UNL     1      42.613  -1.370  35.148  1.00  0.00     0.018 C 
ENDBRANCH  26  27
ENDBRANCH  24  25
ENDBRANCH  22  24
ENDBRANCH   1  21
BRANCH   7  29
HETATM   29  N5  UNL     1      44.287  -1.396  25.385  1.00  0.00    -0.383 N 
ATOM     30  H52 UNL     1      43.672  -0.633  25.101  1.00  0.00     0.157 HD
ATOM     31  H51 UNL     1      45.183  -1.249  24.922  1.00  0.00     0.157 HD
ENDBRANCH   7  29
TORSDOF 8
ENDMDL
