MODEL 1
REMARK VINA RESULT: -4.983179282      0.000      0.000
REMARK  7 active torsions:
REMARK  status: ('A' for Active; 'I' for Inactive)
REMARK    1  A    between atoms: C2_2  and  N1_3 
REMARK    2  A    between atoms: N1_3  and  C3_5 
REMARK    3  A    between atoms: C3_5  and  N2_7 
REMARK    4  A    between atoms: N2_7  and  N3_9 
REMARK    5  A    between atoms: N3_9  and  C4_11 
REMARK    6  A    between atoms: C4_11  and  N4_13 
REMARK       I    between atoms: N4_13  and  C5_15 
REMARK    7  A    between atoms: C5_15  and  C6_17 
ROOT
HETATM    1  N3  UNL     1      43.461  -0.796  28.533  1.00  0.00    -0.274 N 
ATOM      2  H3  UNL     1      43.263   0.090  28.068  1.00  0.00     0.189 HD
ENDROOT
BRANCH   1   3
HETATM    3  N2  UNL     1      43.301  -0.920  29.893  1.00  0.00    -0.274 N 
ATOM      4  H2  UNL     1      44.128  -1.200  30.421  1.00  0.00     0.189 HD
BRANCH   3   5
HETATM    5  C3  UNL     1      42.139  -0.707  30.633  1.00  0.00     0.186 C 
HETATM    6  S1  UNL     1      42.236  -0.662  32.316  1.00  0.00    -0.040 SA
BRANCH   5   7
HETATM    7  N1  UNL     1      40.868  -0.522  30.079  1.00  0.00    -0.366 N 
ATOM      8  H1  UNL     1      40.748  -0.715  29.084  1.00  0.00     0.161 HD
BRANCH   7   9
HETATM    9  C2  UNL     1      39.723  -0.078  30.819  1.00  0.00     0.117 C 
HETATM   10  C1  UNL     1      38.631  -1.167  30.679  1.00  0.00     0.026 C 
ENDBRANCH   7   9
ENDBRANCH   5   7
ENDBRANCH   3   5
ENDBRANCH   1   3
BRANCH   1  11
HETATM   11  C4  UNL     1      43.912  -1.931  27.778  1.00  0.00     0.193 C 
HETATM   12  S2  UNL     1      44.455  -1.701  26.258  1.00  0.00    -0.039 SA
BRANCH  11  13
HETATM   13  N4  UNL     1      43.875  -3.211  28.366  1.00  0.00    -0.302 N 
HETATM   14  C5  UNL     1      42.665  -3.848  28.713  1.00  0.00     0.228 C 
HETATM   15  O1  UNL     1      41.581  -3.252  28.488  1.00  0.00    -0.273 OA
ATOM     16  H4  UNL     1      44.755  -3.694  28.548  1.00  0.00     0.171 HD
BRANCH  14  17
HETATM   17  C6  UNL     1      42.602  -5.188  29.330  1.00  0.00     0.082 A 
HETATM   18  C7  UNL     1      41.574  -5.522  30.339  1.00  0.00     0.019 A 
HETATM   19  C8  UNL     1      42.922  -5.156  30.832  1.00  0.00    -0.005 A 
HETATM   20  C9  UNL     1      43.918  -6.174  31.263  1.00  0.00     0.011 C 
ENDBRANCH  14  17
ENDBRANCH  11  13
ENDBRANCH   1  11
TORSDOF 7
ENDMDL
MODEL 2
REMARK VINA RESULT: -4.966991879      1.393      2.278
REMARK  7 active torsions:
REMARK  status: ('A' for Active; 'I' for Inactive)
REMARK    1  A    between atoms: C2_2  and  N1_3 
REMARK    2  A    between atoms: N1_3  and  C3_5 
REMARK    3  A    between atoms: C3_5  and  N2_7 
REMARK    4  A    between atoms: N2_7  and  N3_9 
REMARK    5  A    between atoms: N3_9  and  C4_11 
REMARK    6  A    between atoms: C4_11  and  N4_13 
REMARK       I    between atoms: N4_13  and  C5_15 
REMARK    7  A    between atoms: C5_15  and  C6_17 
ROOT
HETATM    1  N3  UNL     1      43.695  -0.660  28.574  1.00  0.00    -0.274 N 
ATOM      2  H3  UNL     1      44.302   0.159  28.541  1.00  0.00     0.189 HD
ENDROOT
BRANCH   1   3
HETATM    3  N2  UNL     1      42.592  -0.677  29.395  1.00  0.00    -0.274 N 
ATOM      4  H2  UNL     1      41.684  -0.613  28.933  1.00  0.00     0.189 HD
BRANCH   3   5
HETATM    5  C3  UNL     1      42.571  -0.772  30.784  1.00  0.00     0.186 C 
HETATM    6  S1  UNL     1      41.087  -0.761  31.585  1.00  0.00    -0.040 SA
BRANCH   5   7
HETATM    7  N1  UNL     1      43.710  -0.881  31.590  1.00  0.00    -0.366 N 
ATOM      8  H1  UNL     1      44.622  -0.821  31.137  1.00  0.00     0.161 HD
BRANCH   7   9
HETATM    9  C2  UNL     1      43.678  -1.070  33.010  1.00  0.00     0.117 C 
HETATM   10  C1  UNL     1      44.818  -0.217  33.618  1.00  0.00     0.026 C 
ENDBRANCH   7   9
ENDBRANCH   5   7
ENDBRANCH   3   5
ENDBRANCH   1   3
BRANCH   1  11
HETATM   11  C4  UNL     1      43.978  -1.811  27.763  1.00  0.00     0.193 C 
HETATM   12  S2  UNL     1      44.281  -1.601  26.174  1.00  0.00    -0.039 SA
BRANCH  11  13
HETATM   13  N4  UNL     1      43.990  -3.089  28.356  1.00  0.00    -0.302 N 
HETATM   14  C5  UNL     1      42.804  -3.797  28.648  1.00  0.00     0.228 C 
HETATM   15  O1  UNL     1      41.699  -3.268  28.366  1.00  0.00    -0.273 OA
ATOM     16  H4  UNL     1      44.887  -3.517  28.584  1.00  0.00     0.171 HD
BRANCH  14  17
HETATM   17  C6  UNL     1      42.792  -5.135  29.269  1.00  0.00     0.082 A 
HETATM   18  C7  UNL     1      41.649  -5.591  30.090  1.00  0.00     0.019 A 
HETATM   19  C8  UNL     1      42.838  -5.070  30.803  1.00  0.00    -0.005 A 
HETATM   20  C9  UNL     1      43.856  -5.963  31.419  1.00  0.00     0.011 C 
ENDBRANCH  14  17
ENDBRANCH  11  13
ENDBRANCH   1  11
TORSDOF 7
ENDMDL
MODEL 3
REMARK VINA RESULT: -4.936839381      4.207      6.438
REMARK  7 active torsions:
REMARK  status: ('A' for Active; 'I' for Inactive)
REMARK    1  A    between atoms: C2_2  and  N1_3 
REMARK    2  A    between atoms: N1_3  and  C3_5 
REMARK    3  A    between atoms: C3_5  and  N2_7 
REMARK    4  A    between atoms: N2_7  and  N3_9 
REMARK    5  A    between atoms: N3_9  and  C4_11 
REMARK    6  A    between atoms: C4_11  and  N4_13 
REMARK       I    between atoms: N4_13  and  C5_15 
REMARK    7  A    between atoms: C5_15  and  C6_17 
ROOT
HETATM    1  N3  UNL     1      43.193  -0.696  31.222  1.00  0.00    -0.274 N 
ATOM      2  H3  UNL     1      42.575   0.112  31.151  1.00  0.00     0.189 HD
ENDROOT
BRANCH   1   3
HETATM    3  N2  UNL     1      43.843  -1.176  30.110  1.00  0.00    -0.274 N 
ATOM      4  H2  UNL     1      44.861  -1.215  30.163  1.00  0.00     0.189 HD
BRANCH   3   5
HETATM    5  C3  UNL     1      43.271  -1.617  28.918  1.00  0.00     0.186 C 
HETATM    6  S1  UNL     1      42.134  -2.861  28.965  1.00  0.00    -0.040 SA
BRANCH   5   7
HETATM    7  N1  UNL     1      43.570  -1.096  27.654  1.00  0.00    -0.366 N 
ATOM      8  H1  UNL     1      42.916  -0.427  27.246  1.00  0.00     0.161 HD
BRANCH   7   9
HETATM    9  C2  UNL     1      44.736  -1.442  26.895  1.00  0.00     0.117 C 
HETATM   10  C1  UNL     1      44.311  -2.502  25.850  1.00  0.00     0.026 C 
ENDBRANCH   7   9
ENDBRANCH   5   7
ENDBRANCH   3   5
ENDBRANCH   1   3
BRANCH   1  11
HETATM   11  C4  UNL     1      43.398  -1.348  32.485  1.00  0.00     0.193 C 
HETATM   12  S2  UNL     1      42.423  -2.589  32.899  1.00  0.00    -0.039 SA
BRANCH  11  13
HETATM   13  N4  UNL     1      44.431  -0.904  33.333  1.00  0.00    -0.302 N 
HETATM   14  C5  UNL     1      44.623   0.461  33.640  1.00  0.00     0.228 C 
HETATM   15  O1  UNL     1      43.842   1.309  33.138  1.00  0.00    -0.273 OA
ATOM     16  H4  UNL     1      45.064  -1.593  33.740  1.00  0.00     0.171 HD
BRANCH  14  17
HETATM   17  C6  UNL     1      45.698   0.949  34.524  1.00  0.00     0.082 A 
HETATM   18  C7  UNL     1      46.417   0.033  35.437  1.00  0.00     0.019 A 
HETATM   19  C8  UNL     1      45.324   0.850  36.011  1.00  0.00    -0.005 A 
HETATM   20  C9  UNL     1      45.579   2.095  36.786  1.00  0.00     0.011 C 
ENDBRANCH  14  17
ENDBRANCH  11  13
ENDBRANCH   1  11
TORSDOF 7
ENDMDL
MODEL 4
REMARK VINA RESULT: -4.896223348      2.623      5.483
REMARK  7 active torsions:
REMARK  status: ('A' for Active; 'I' for Inactive)
REMARK    1  A    between atoms: C2_2  and  N1_3 
REMARK    2  A    between atoms: N1_3  and  C3_5 
REMARK    3  A    between atoms: C3_5  and  N2_7 
REMARK    4  A    between atoms: N2_7  and  N3_9 
REMARK    5  A    between atoms: N3_9  and  C4_11 
REMARK    6  A    between atoms: C4_11  and  N4_13 
REMARK       I    between atoms: N4_13  and  C5_15 
REMARK    7  A    between atoms: C5_15  and  C6_17 
ROOT
HETATM    1  N3  UNL     1      43.976  -1.082  29.141  1.00  0.00    -0.274 N 
ATOM      2  H3  UNL     1      44.776  -0.836  29.723  1.00  0.00     0.189 HD
ENDROOT
BRANCH   1   3
HETATM    3  N2  UNL     1      43.878  -0.609  27.854  1.00  0.00    -0.274 N 
ATOM      4  H2  UNL     1      43.532   0.345  27.749  1.00  0.00     0.189 HD
BRANCH   3   5
HETATM    5  C3  UNL     1      44.197  -1.283  26.677  1.00  0.00     0.186 C 
HETATM    6  S1  UNL     1      44.086  -0.463  25.208  1.00  0.00    -0.040 SA
BRANCH   5   7
HETATM    7  N1  UNL     1      44.614  -2.617  26.613  1.00  0.00    -0.366 N 
ATOM      8  H1  UNL     1      45.611  -2.810  26.707  1.00  0.00     0.161 HD
BRANCH   7   9
HETATM    9  C2  UNL     1      43.730  -3.729  26.426  1.00  0.00     0.117 C 
HETATM   10  C1  UNL     1      43.835  -4.160  24.942  1.00  0.00     0.026 C 
ENDBRANCH   7   9
ENDBRANCH   5   7
ENDBRANCH   3   5
ENDBRANCH   1   3
BRANCH   1  11
HETATM   11  C4  UNL     1      42.934  -1.928  29.653  1.00  0.00     0.193 C 
HETATM   12  S2  UNL     1      43.325  -3.408  30.215  1.00  0.00    -0.039 SA
BRANCH  11  13
HETATM   13  N4  UNL     1      41.605  -1.460  29.660  1.00  0.00    -0.302 N 
HETATM   14  C5  UNL     1      41.159  -0.466  30.557  1.00  0.00     0.228 C 
HETATM   15  O1  UNL     1      41.978   0.021  31.378  1.00  0.00    -0.273 OA
ATOM     16  H4  UNL     1      40.941  -1.855  28.993  1.00  0.00     0.171 HD
BRANCH  14  17
HETATM   17  C6  UNL     1      39.772   0.039  30.583  1.00  0.00     0.082 A 
HETATM   18  C7  UNL     1      39.170   0.567  31.826  1.00  0.00     0.019 A 
HETATM   19  C8  UNL     1      38.849  -0.829  31.451  1.00  0.00    -0.005 A 
HETATM   20  C9  UNL     1      37.570  -1.205  30.790  1.00  0.00     0.011 C 
ENDBRANCH  14  17
ENDBRANCH  11  13
ENDBRANCH   1  11
TORSDOF 7
ENDMDL
MODEL 5
REMARK VINA RESULT: -4.866869656      2.823      6.051
REMARK  7 active torsions:
REMARK  status: ('A' for Active; 'I' for Inactive)
REMARK    1  A    between atoms: C2_2  and  N1_3 
REMARK    2  A    between atoms: N1_3  and  C3_5 
REMARK    3  A    between atoms: C3_5  and  N2_7 
REMARK    4  A    between atoms: N2_7  and  N3_9 
REMARK    5  A    between atoms: N3_9  and  C4_11 
REMARK    6  A    between atoms: C4_11  and  N4_13 
REMARK       I    between atoms: N4_13  and  C5_15 
REMARK    7  A    between atoms: C5_15  and  C6_17 
ROOT
HETATM    1  N3  UNL     1      42.963  -0.455  31.195  1.00  0.00    -0.274 N 
ATOM      2  H3  UNL     1      43.842  -0.014  31.465  1.00  0.00     0.189 HD
ENDROOT
BRANCH   1   3
HETATM    3  N2  UNL     1      42.643  -0.617  29.868  1.00  0.00    -0.274 N 
ATOM      4  H2  UNL     1      42.083   0.124  29.445  1.00  0.00     0.189 HD
BRANCH   3   5
HETATM    5  C3  UNL     1      42.994  -1.676  29.034  1.00  0.00     0.186 C 
HETATM    6  S1  UNL     1      42.021  -3.052  29.003  1.00  0.00    -0.040 SA
BRANCH   5   7
HETATM    7  N1  UNL     1      44.117  -1.690  28.198  1.00  0.00    -0.366 N 
ATOM      8  H1  UNL     1      44.982  -2.083  28.568  1.00  0.00     0.161 HD
BRANCH   7   9
HETATM    9  C2  UNL     1      44.128  -1.188  26.856  1.00  0.00     0.117 C 
HETATM   10  C1  UNL     1      44.492  -2.368  25.923  1.00  0.00     0.026 C 
ENDBRANCH   7   9
ENDBRANCH   5   7
ENDBRANCH   3   5
ENDBRANCH   1   3
BRANCH   1  11
HETATM   11  C4  UNL     1      42.042  -0.917  32.196  1.00  0.00     0.193 C 
HETATM   12  S2  UNL     1      42.298  -2.369  32.893  1.00  0.00    -0.039 SA
BRANCH  11  13
HETATM   13  N4  UNL     1      40.945  -0.108  32.551  1.00  0.00    -0.302 N 
HETATM   14  C5  UNL     1      39.865   0.128  31.673  1.00  0.00     0.228 C 
HETATM   15  O1  UNL     1      39.883  -0.405  30.534  1.00  0.00    -0.273 OA
ATOM     16  H4  UNL     1      40.930   0.323  33.476  1.00  0.00     0.171 HD
BRANCH  14  17
HETATM   17  C6  UNL     1      38.706   0.971  32.024  1.00  0.00     0.082 A 
HETATM   18  C7  UNL     1      38.444   1.375  33.423  1.00  0.00     0.019 A 
HETATM   19  C8  UNL     1      37.679   0.226  32.889  1.00  0.00    -0.005 A 
HETATM   20  C9  UNL     1      36.275   0.353  32.411  1.00  0.00     0.011 C 
ENDBRANCH  14  17
ENDBRANCH  11  13
ENDBRANCH   1  11
TORSDOF 7
ENDMDL
