MODEL 1
REMARK VINA RESULT: -6.458415234      0.000      0.000
REMARK  6 active torsions:
REMARK  status: ('A' for Active; 'I' for Inactive)
REMARK       I    between atoms: N1_2  and  C2_4 
REMARK       I    between atoms: C2_4  and  N5_17 
REMARK       I    between atoms: N2_5  and  C3_7 
REMARK       I    between atoms: C3_7  and  N4_11 
REMARK    1  A    between atoms: N4_11  and  C4_13 
REMARK       I    between atoms: N5_17  and  C8_19 
REMARK    2  A    between atoms: C8_19  and  C9_21 
REMARK    3  A    between atoms: C9_21  and  N6_23 
REMARK       I    between atoms: N6_23  and  C11_25 
REMARK    4  A    between atoms: C11_25  and  C12_27 
REMARK    5  A    between atoms: C12_27  and  C13_28 
REMARK    6  A    between atoms: C13_28  and  N7_29 
ROOT
HETATM    1  C1  UNL     1      40.514  -6.080  30.612  1.00  0.00     0.165 C 
HETATM    2  N1  UNL     1      40.175  -5.067  29.607  1.00  0.00    -0.230 N 
ATOM      3  H1  UNL     1      40.331  -5.257  28.617  1.00  0.00     0.177 HD
HETATM    4  C2  UNL     1      39.635  -3.831  30.015  1.00  0.00     0.695 C 
HETATM    5  N2  UNL     1      38.398  -3.814  30.445  1.00  0.00    -0.023 N 
ATOM      6  H2  UNL     1      37.845  -4.670  30.482  1.00  0.00     0.203 HD
HETATM    7  C3  UNL     1      37.849  -2.575  30.856  1.00  0.00     0.686 C 
HETATM    8  N3  UNL     1      37.902  -2.165  32.086  1.00  0.00    -0.234 N 
ATOM      9  H31 UNL     1      37.507  -1.273  32.382  1.00  0.00     0.174 HD
ATOM     10  H32 UNL     1      38.360  -2.779  32.759  1.00  0.00     0.174 HD
HETATM   11  N4  UNL     1      37.202  -1.708  29.905  1.00  0.00    -0.218 N 
ATOM     12  H4  UNL     1      37.728  -1.033  29.349  1.00  0.00     0.178 HD
HETATM   13  N5  UNL     1      40.406  -2.638  29.962  1.00  0.00    -0.158 N 
ATOM     14  H5  UNL     1      40.007  -1.747  30.260  1.00  0.00     0.187 HD
HETATM   15  C8  UNL     1      41.740  -2.709  29.487  1.00  0.00     0.258 C 
HETATM   16  O1  UNL     1      42.242  -3.798  29.119  1.00  0.00    -0.270 OA
ENDROOT
BRANCH  15  17
HETATM   17  C9  UNL     1      42.544  -1.487  29.428  1.00  0.00     0.173 C 
HETATM   18  C10 UNL     1      43.484  -1.477  28.234  1.00  0.00     0.042 C 
BRANCH  17  19
HETATM   19  N6  UNL     1      43.327  -1.264  30.619  1.00  0.00    -0.348 N 
HETATM   20  C11 UNL     1      42.801  -0.619  31.792  1.00  0.00     0.219 C 
HETATM   21  O2  UNL     1      41.614  -0.256  31.722  1.00  0.00    -0.274 OA
ATOM     22  H6  UNL     1      44.298  -1.577  30.629  1.00  0.00     0.163 HD
BRANCH  20  23
HETATM   23  C12 UNL     1      43.607  -0.401  32.989  1.00  0.00     0.130 C 
BRANCH  23  24
HETATM   24  C13 UNL     1      43.123   0.541  34.007  1.00  0.00     0.246 C 
BRANCH  24  25
HETATM   25  N7  UNL     1      44.052   1.287  34.777  1.00  0.00    -0.070 N 
HETATM   26  C14 UNL     1      45.284   1.455  34.049  1.00  0.00     0.272 C 
HETATM   27  C15 UNL     1      44.401   0.564  36.017  1.00  0.00     0.237 C 
HETATM   28  C16 UNL     1      45.176   1.605  36.782  1.00  0.00     0.029 C 
HETATM   29  C17 UNL     1      44.738   2.944  36.240  1.00  0.00     0.029 C 
HETATM   30  C18 UNL     1      43.620   2.533  35.301  1.00  0.00     0.237 C 
ENDBRANCH  24  25
ENDBRANCH  23  24
ENDBRANCH  20  23
ENDBRANCH  17  19
ENDBRANCH  15  17
BRANCH  11  31
HETATM   31  C4  UNL     1      35.769  -1.844  29.779  1.00  0.00     0.036 C 
HETATM   32  C5  UNL     1      35.420  -1.575  28.311  1.00  0.00     0.038 C 
HETATM   33  C6  UNL     1      35.319  -3.259  30.066  1.00  0.00     0.038 C 
HETATM   34  C7  UNL     1      35.021  -0.831  30.609  1.00  0.00     0.038 C 
ENDBRANCH  11  31
TORSDOF 6
ENDMDL
MODEL 2
REMARK VINA RESULT: -6.414137517      3.579      6.298
REMARK  6 active torsions:
REMARK  status: ('A' for Active; 'I' for Inactive)
REMARK       I    between atoms: N1_2  and  C2_4 
REMARK       I    between atoms: C2_4  and  N5_17 
REMARK       I    between atoms: N2_5  and  C3_7 
REMARK       I    between atoms: C3_7  and  N4_11 
REMARK    1  A    between atoms: N4_11  and  C4_13 
REMARK       I    between atoms: N5_17  and  C8_19 
REMARK    2  A    between atoms: C8_19  and  C9_21 
REMARK    3  A    between atoms: C9_21  and  N6_23 
REMARK       I    between atoms: N6_23  and  C11_25 
REMARK    4  A    between atoms: C11_25  and  C12_27 
REMARK    5  A    between atoms: C12_27  and  C13_28 
REMARK    6  A    between atoms: C13_28  and  N7_29 
ROOT
HETATM    1  C1  UNL     1      39.540   0.391  33.747  1.00  0.00     0.165 C 
HETATM    2  N1  UNL     1      40.678  -0.522  33.898  1.00  0.00    -0.230 N 
ATOM      3  H1  UNL     1      40.753  -1.113  34.725  1.00  0.00     0.177 HD
HETATM    4  C2  UNL     1      41.668  -0.577  32.896  1.00  0.00     0.695 C 
HETATM    5  N2  UNL     1      41.360  -1.153  31.761  1.00  0.00    -0.023 N 
ATOM      6  H2  UNL     1      40.433  -1.549  31.609  1.00  0.00     0.203 HD
HETATM    7  C3  UNL     1      42.350  -1.212  30.750  1.00  0.00     0.686 C 
HETATM    8  N3  UNL     1      42.469  -0.296  29.839  1.00  0.00    -0.234 N 
ATOM      9  H31 UNL     1      43.182  -0.338  29.111  1.00  0.00     0.174 HD
ATOM     10  H32 UNL     1      41.810   0.481  29.876  1.00  0.00     0.174 HD
HETATM   11  N4  UNL     1      43.281  -2.311  30.698  1.00  0.00    -0.218 N 
ATOM     12  H4  UNL     1      44.149  -2.305  31.234  1.00  0.00     0.178 HD
HETATM   13  N5  UNL     1      42.961  -0.026  33.109  1.00  0.00    -0.158 N 
ATOM     14  H5  UNL     1      43.671  -0.069  32.378  1.00  0.00     0.187 HD
HETATM   15  C8  UNL     1      43.244   0.587  34.356  1.00  0.00     0.258 C 
HETATM   16  O1  UNL     1      42.379   0.647  35.261  1.00  0.00    -0.270 OA
ENDROOT
BRANCH  15  17
HETATM   17  C9  UNL     1      44.572   1.158  34.586  1.00  0.00     0.173 C 
HETATM   18  C10 UNL     1      45.478   1.006  33.374  1.00  0.00     0.042 C 
BRANCH  17  19
HETATM   19  N6  UNL     1      45.248   0.587  35.725  1.00  0.00    -0.348 N 
HETATM   20  C11 UNL     1      45.693   1.374  36.845  1.00  0.00     0.219 C 
HETATM   21  O2  UNL     1      45.463   2.593  36.774  1.00  0.00    -0.274 OA
ATOM     22  H6  UNL     1      45.416  -0.419  35.738  1.00  0.00     0.163 HD
BRANCH  20  23
HETATM   23  C12 UNL     1      46.375   0.781  37.991  1.00  0.00     0.130 C 
BRANCH  23  24
HETATM   24  C13 UNL     1      46.771  -0.632  37.927  1.00  0.00     0.246 C 
BRANCH  24  25
HETATM   25  N7  UNL     1      48.134  -0.976  37.734  1.00  0.00    -0.070 N 
HETATM   26  C14 UNL     1      48.396  -1.214  36.337  1.00  0.00     0.272 C 
HETATM   27  C15 UNL     1      48.458  -2.234  38.435  1.00  0.00     0.237 C 
HETATM   28  C16 UNL     1      49.958  -2.286  38.316  1.00  0.00     0.029 C 
HETATM   29  C17 UNL     1      50.416  -0.862  38.102  1.00  0.00     0.029 C 
HETATM   30  C18 UNL     1      49.114  -0.103  38.274  1.00  0.00     0.237 C 
ENDBRANCH  24  25
ENDBRANCH  23  24
ENDBRANCH  20  23
ENDBRANCH  17  19
ENDBRANCH  15  17
BRANCH  11  31
HETATM   31  C4  UNL     1      42.920  -3.422  29.848  1.00  0.00     0.036 C 
HETATM   32  C5  UNL     1      43.345  -4.702  30.578  1.00  0.00     0.038 C 
HETATM   33  C6  UNL     1      41.420  -3.519  29.669  1.00  0.00     0.038 C 
HETATM   34  C7  UNL     1      43.648  -3.397  28.529  1.00  0.00     0.038 C 
ENDBRANCH  11  31
TORSDOF 6
ENDMDL
MODEL 3
REMARK VINA RESULT: -6.387541737      0.435      1.027
REMARK  6 active torsions:
REMARK  status: ('A' for Active; 'I' for Inactive)
REMARK       I    between atoms: N1_2  and  C2_4 
REMARK       I    between atoms: C2_4  and  N5_17 
REMARK       I    between atoms: N2_5  and  C3_7 
REMARK       I    between atoms: C3_7  and  N4_11 
REMARK    1  A    between atoms: N4_11  and  C4_13 
REMARK       I    between atoms: N5_17  and  C8_19 
REMARK    2  A    between atoms: C8_19  and  C9_21 
REMARK    3  A    between atoms: C9_21  and  N6_23 
REMARK       I    between atoms: N6_23  and  C11_25 
REMARK    4  A    between atoms: C11_25  and  C12_27 
REMARK    5  A    between atoms: C12_27  and  C13_28 
REMARK    6  A    between atoms: C13_28  and  N7_29 
ROOT
HETATM    1  C1  UNL     1      40.670  -6.075  30.587  1.00  0.00     0.165 C 
HETATM    2  N1  UNL     1      40.318  -5.043  29.607  1.00  0.00    -0.230 N 
ATOM      3  H1  UNL     1      40.470  -5.208  28.612  1.00  0.00     0.177 HD
HETATM    4  C2  UNL     1      39.768  -3.821  30.045  1.00  0.00     0.695 C 
HETATM    5  N2  UNL     1      38.533  -3.824  30.481  1.00  0.00    -0.023 N 
ATOM      6  H2  UNL     1      37.988  -4.686  30.501  1.00  0.00     0.203 HD
HETATM    7  C3  UNL     1      37.976  -2.600  30.922  1.00  0.00     0.686 C 
HETATM    8  N3  UNL     1      38.030  -2.218  32.161  1.00  0.00    -0.234 N 
ATOM      9  H31 UNL     1      37.629  -1.336  32.479  1.00  0.00     0.174 HD
ATOM     10  H32 UNL     1      38.497  -2.843  32.818  1.00  0.00     0.174 HD
HETATM   11  N4  UNL     1      37.316  -1.717  29.994  1.00  0.00    -0.218 N 
ATOM     12  H4  UNL     1      37.834  -1.026  29.451  1.00  0.00     0.178 HD
HETATM   13  N5  UNL     1      40.529  -2.620  30.015  1.00  0.00    -0.158 N 
ATOM     14  H5  UNL     1      40.124  -1.740  30.335  1.00  0.00     0.187 HD
HETATM   15  C8  UNL     1      41.862  -2.669  29.534  1.00  0.00     0.258 C 
HETATM   16  O1  UNL     1      42.371  -3.744  29.139  1.00  0.00    -0.270 OA
ENDROOT
BRANCH  15  17
HETATM   17  C9  UNL     1      42.654  -1.438  29.499  1.00  0.00     0.173 C 
HETATM   18  C10 UNL     1      43.655  -1.434  28.355  1.00  0.00     0.042 C 
BRANCH  17  19
HETATM   19  N6  UNL     1      43.372  -1.190  30.726  1.00  0.00    -0.348 N 
HETATM   20  C11 UNL     1      42.780  -0.528  31.858  1.00  0.00     0.219 C 
HETATM   21  O2  UNL     1      41.596  -0.175  31.718  1.00  0.00    -0.274 OA
ATOM     22  H6  UNL     1      44.342  -1.497  30.793  1.00  0.00     0.163 HD
BRANCH  20  23
HETATM   23  C12 UNL     1      43.520  -0.285  33.092  1.00  0.00     0.130 C 
BRANCH  23  24
HETATM   24  C13 UNL     1      42.861   0.451  34.179  1.00  0.00     0.246 C 
BRANCH  24  25
HETATM   25  N7  UNL     1      43.629   0.936  35.271  1.00  0.00    -0.070 N 
HETATM   26  C14 UNL     1      42.930   0.713  36.511  1.00  0.00     0.272 C 
HETATM   27  C15 UNL     1      43.823   2.396  35.162  1.00  0.00     0.237 C 
HETATM   28  C16 UNL     1      44.839   2.660  36.243  1.00  0.00     0.029 C 
HETATM   29  C17 UNL     1      45.558   1.353  36.478  1.00  0.00     0.029 C 
HETATM   30  C18 UNL     1      44.971   0.489  35.378  1.00  0.00     0.237 C 
ENDBRANCH  24  25
ENDBRANCH  23  24
ENDBRANCH  20  23
ENDBRANCH  17  19
ENDBRANCH  15  17
BRANCH  11  31
HETATM   31  C4  UNL     1      35.884  -1.863  29.871  1.00  0.00     0.036 C 
HETATM   32  C5  UNL     1      35.532  -1.614  28.400  1.00  0.00     0.038 C 
HETATM   33  C6  UNL     1      35.442  -3.277  30.176  1.00  0.00     0.038 C 
HETATM   34  C7  UNL     1      35.131  -0.845  30.689  1.00  0.00     0.038 C 
ENDBRANCH  11  31
TORSDOF 6
ENDMDL
MODEL 4
REMARK VINA RESULT: -6.366786905      1.004      1.463
REMARK  6 active torsions:
REMARK  status: ('A' for Active; 'I' for Inactive)
REMARK       I    between atoms: N1_2  and  C2_4 
REMARK       I    between atoms: C2_4  and  N5_17 
REMARK       I    between atoms: N2_5  and  C3_7 
REMARK       I    between atoms: C3_7  and  N4_11 
REMARK    1  A    between atoms: N4_11  and  C4_13 
REMARK       I    between atoms: N5_17  and  C8_19 
REMARK    2  A    between atoms: C8_19  and  C9_21 
REMARK    3  A    between atoms: C9_21  and  N6_23 
REMARK       I    between atoms: N6_23  and  C11_25 
REMARK    4  A    between atoms: C11_25  and  C12_27 
REMARK    5  A    between atoms: C12_27  and  C13_28 
REMARK    6  A    between atoms: C13_28  and  N7_29 
ROOT
HETATM    1  C1  UNL     1      41.905  -6.408  30.210  1.00  0.00     0.165 C 
HETATM    2  N1  UNL     1      41.459  -5.403  29.240  1.00  0.00    -0.230 N 
ATOM      3  H1  UNL     1      41.715  -5.491  28.257  1.00  0.00     0.177 HD
HETATM    4  C2  UNL     1      40.676  -4.313  29.672  1.00  0.00     0.695 C 
HETATM    5  N2  UNL     1      39.429  -4.545  30.000  1.00  0.00    -0.023 N 
ATOM      6  H2  UNL     1      39.039  -5.486  29.943  1.00  0.00     0.203 HD
HETATM    7  C3  UNL     1      38.637  -3.455  30.435  1.00  0.00     0.686 C 
HETATM    8  N3  UNL     1      38.529  -3.130  31.686  1.00  0.00    -0.234 N 
ATOM      9  H31 UNL     1      37.958  -2.344  31.999  1.00  0.00     0.174 HD
ATOM     10  H32 UNL     1      39.042  -3.699  32.358  1.00  0.00     0.174 HD
HETATM   11  N4  UNL     1      37.912  -2.651  29.484  1.00  0.00    -0.218 N 
ATOM     12  H4  UNL     1      38.345  -1.856  29.012  1.00  0.00     0.178 HD
HETATM   13  N5  UNL     1      41.219  -3.002  29.750  1.00  0.00    -0.158 N 
ATOM     14  H5  UNL     1      40.646  -2.219  30.064  1.00  0.00     0.187 HD
HETATM   15  C8  UNL     1      42.575  -2.803  29.382  1.00  0.00     0.258 C 
HETATM   16  O1  UNL     1      43.290  -3.757  28.996  1.00  0.00    -0.270 OA
ENDROOT
BRANCH  15  17
HETATM   17  C9  UNL     1      43.145  -1.457  29.459  1.00  0.00     0.173 C 
HETATM   18  C10 UNL     1      44.180  -1.211  28.373  1.00  0.00     0.042 C 
BRANCH  17  19
HETATM   19  N6  UNL     1      43.755  -1.169  30.734  1.00  0.00    -0.348 N 
HETATM   20  C11 UNL     1      43.031  -0.592  31.836  1.00  0.00     0.219 C 
HETATM   21  O2  UNL     1      41.830  -0.349  31.623  1.00  0.00    -0.274 OA
ATOM     22  H6  UNL     1      44.743  -1.385  30.861  1.00  0.00     0.163 HD
BRANCH  20  23
HETATM   23  C12 UNL     1      43.662  -0.308  33.120  1.00  0.00     0.130 C 
BRANCH  23  24
HETATM   24  C13 UNL     1      42.968   0.569  34.072  1.00  0.00     0.246 C 
BRANCH  24  25
HETATM   25  N7  UNL     1      43.654   1.050  35.218  1.00  0.00    -0.070 N 
HETATM   26  C14 UNL     1      42.879   0.796  36.406  1.00  0.00     0.272 C 
HETATM   27  C15 UNL     1      43.829   2.514  35.144  1.00  0.00     0.237 C 
HETATM   28  C16 UNL     1      44.766   2.780  36.292  1.00  0.00     0.029 C 
HETATM   29  C17 UNL     1      45.491   1.482  36.556  1.00  0.00     0.029 C 
HETATM   30  C18 UNL     1      44.994   0.624  35.408  1.00  0.00     0.237 C 
ENDBRANCH  24  25
ENDBRANCH  23  24
ENDBRANCH  20  23
ENDBRANCH  17  19
ENDBRANCH  15  17
BRANCH  11  31
HETATM   31  C4  UNL     1      36.539  -3.028  29.235  1.00  0.00     0.036 C 
HETATM   32  C5  UNL     1      35.867  -1.839  28.538  1.00  0.00     0.038 C 
HETATM   33  C6  UNL     1      36.451  -4.187  28.267  1.00  0.00     0.038 C 
HETATM   34  C7  UNL     1      35.775  -3.291  30.507  1.00  0.00     0.038 C 
ENDBRANCH  11  31
TORSDOF 6
ENDMDL
MODEL 5
REMARK VINA RESULT: -6.264020223      1.093      1.170
REMARK  6 active torsions:
REMARK  status: ('A' for Active; 'I' for Inactive)
REMARK       I    between atoms: N1_2  and  C2_4 
REMARK       I    between atoms: C2_4  and  N5_17 
REMARK       I    between atoms: N2_5  and  C3_7 
REMARK       I    between atoms: C3_7  and  N4_11 
REMARK    1  A    between atoms: N4_11  and  C4_13 
REMARK       I    between atoms: N5_17  and  C8_19 
REMARK    2  A    between atoms: C8_19  and  C9_21 
REMARK    3  A    between atoms: C9_21  and  N6_23 
REMARK       I    between atoms: N6_23  and  C11_25 
REMARK    4  A    between atoms: C11_25  and  C12_27 
REMARK    5  A    between atoms: C12_27  and  C13_28 
REMARK    6  A    between atoms: C13_28  and  N7_29 
ROOT
HETATM    1  C1  UNL     1      38.947  -6.274  31.332  1.00  0.00     0.165 C 
HETATM    2  N1  UNL     1      38.924  -5.531  30.067  1.00  0.00    -0.230 N 
ATOM      3  H1  UNL     1      39.206  -5.988  29.200  1.00  0.00     0.177 HD
HETATM    4  C2  UNL     1      38.510  -4.183  30.056  1.00  0.00     0.695 C 
HETATM    5  N2  UNL     1      37.236  -3.931  30.224  1.00  0.00    -0.023 N 
ATOM      6  H2  UNL     1      36.566  -4.687  30.359  1.00  0.00     0.203 HD
HETATM    7  C3  UNL     1      36.815  -2.579  30.213  1.00  0.00     0.686 C 
HETATM    8  N3  UNL     1      36.729  -1.869  31.296  1.00  0.00    -0.234 N 
ATOM      9  H31 UNL     1      36.426  -0.895  31.288  1.00  0.00     0.174 HD
ATOM     10  H32 UNL     1      36.980  -2.327  32.171  1.00  0.00     0.174 HD
HETATM   11  N4  UNL     1      36.460  -1.932  28.976  1.00  0.00    -0.218 N 
ATOM     12  H4  UNL     1      37.161  -1.482  28.386  1.00  0.00     0.178 HD
HETATM   13  N5  UNL     1      39.445  -3.129  29.866  1.00  0.00    -0.158 N 
ATOM     14  H5  UNL     1      39.137  -2.156  29.860  1.00  0.00     0.187 HD
HETATM   15  C8  UNL     1      40.813  -3.455  29.687  1.00  0.00     0.258 C 
HETATM   16  O1  UNL     1      41.203  -4.646  29.694  1.00  0.00    -0.270 OA
ENDROOT
BRANCH  15  17
HETATM   17  C9  UNL     1      41.784  -2.377  29.491  1.00  0.00     0.173 C 
HETATM   18  C10 UNL     1      42.678  -2.624  28.286  1.00  0.00     0.042 C 
BRANCH  17  19
HETATM   19  N6  UNL     1      42.629  -2.158  30.639  1.00  0.00    -0.348 N 
HETATM   20  C11 UNL     1      42.644  -0.921  31.375  1.00  0.00     0.219 C 
HETATM   21  O2  UNL     1      41.877  -0.036  30.957  1.00  0.00    -0.274 OA
ATOM     22  H6  UNL     1      43.243  -2.913  30.943  1.00  0.00     0.163 HD
BRANCH  20  23
HETATM   23  C12 UNL     1      43.505  -0.715  32.535  1.00  0.00     0.130 C 
BRANCH  23  24
HETATM   24  C13 UNL     1      43.079   0.232  33.573  1.00  0.00     0.246 C 
BRANCH  24  25
HETATM   25  N7  UNL     1      44.051   0.896  34.366  1.00  0.00    -0.070 N 
HETATM   26  C14 UNL     1      45.255   1.111  33.603  1.00  0.00     0.272 C 
HETATM   27  C15 UNL     1      44.438   0.061  35.522  1.00  0.00     0.237 C 
HETATM   28  C16 UNL     1      45.261   1.019  36.342  1.00  0.00     0.029 C 
HETATM   29  C17 UNL     1      44.824   2.407  35.939  1.00  0.00     0.029 C 
HETATM   30  C18 UNL     1      43.661   2.096  35.015  1.00  0.00     0.237 C 
ENDBRANCH  24  25
ENDBRANCH  23  24
ENDBRANCH  20  23
ENDBRANCH  17  19
ENDBRANCH  15  17
BRANCH  11  31
HETATM   31  C4  UNL     1      35.061  -1.952  28.615  1.00  0.00     0.036 C 
HETATM   32  C5  UNL     1      34.830  -0.782  27.652  1.00  0.00     0.038 C 
HETATM   33  C6  UNL     1      34.705  -3.205  27.847  1.00  0.00     0.038 C 
HETATM   34  C7  UNL     1      34.158  -1.738  29.803  1.00  0.00     0.038 C 
ENDBRANCH  11  31
TORSDOF 6
ENDMDL
