MODEL 1
REMARK VINA RESULT: -6.155582181      0.000      0.000
REMARK  5 active torsions:
REMARK  status: ('A' for Active; 'I' for Inactive)
REMARK    1  A    between atoms: C2_2  and  N1_3 
REMARK    2  A    between atoms: C5_6  and  N2_7 
REMARK       I    between atoms: N2_7  and  C6_9 
REMARK       I    between atoms: C6_9  and  N3_11 
REMARK    3  A    between atoms: N3_11  and  C7_13 
REMARK    4  A    between atoms: C7_13  and  N4_15 
REMARK    5  A    between atoms: N4_15  and  C8_17 
ROOT
HETATM    1  N2  UNL     1      42.187  -1.424  29.197  1.00  0.00    -0.338 N 
ATOM      2  H2  UNL     1      41.435  -1.773  28.603  1.00  0.00     0.164 HD
HETATM    3  C6  UNL     1      41.882  -0.809  30.443  1.00  0.00     0.322 C 
HETATM    4  O1  UNL     1      42.862  -0.405  31.115  1.00  0.00    -0.247 OA
HETATM    5  N3  UNL     1      40.535  -0.715  30.796  1.00  0.00    -0.286 N 
ATOM      6  H3  UNL     1      39.858  -1.093  30.134  1.00  0.00     0.173 HD
ENDROOT
BRANCH   5   7
HETATM    7  C7  UNL     1      40.028  -0.157  31.963  1.00  0.00     0.175 C 
HETATM    8  S1  UNL     1      38.615   0.752  31.896  1.00  0.00    -0.041 SA
BRANCH   7   9
HETATM    9  N4  UNL     1      40.623  -0.338  33.228  1.00  0.00    -0.362 N 
ATOM     10  H4  UNL     1      41.009   0.471  33.714  1.00  0.00     0.162 HD
BRANCH   9  11
HETATM   11  C8  UNL     1      40.703  -1.674  33.875  1.00  0.00     0.083 C 
HETATM   12  C9  UNL     1      42.130  -2.013  34.014  1.00  0.00     0.025 C 
HETATM   13  C10 UNL     1      42.222  -3.469  34.430  1.00  0.00     0.006 C 
HETATM   14  C11 UNL     1      41.755  -4.274  33.268  1.00  0.00    -0.019 C 
HETATM   15  C12 UNL     1      42.772  -4.100  32.148  1.00  0.00     0.010 C 
HETATM   16  C13 UNL     1      40.381  -3.938  32.794  1.00  0.00     0.006 C 
HETATM   17  C14 UNL     1      39.832  -2.644  33.200  1.00  0.00     0.025 C 
ENDBRANCH   9  11
ENDBRANCH   7   9
ENDBRANCH   5   7
BRANCH   1  18
HETATM   18  C5  UNL     1      43.548  -1.553  28.778  1.00  0.00     0.089 C 
HETATM   19  C4  UNL     1      43.896  -3.025  28.557  1.00  0.00     0.055 C 
HETATM   20  C3  UNL     1      43.599  -3.344  27.126  1.00  0.00     0.274 C 
HETATM   21  N1  UNL     1      44.666  -2.797  26.269  1.00  0.00     0.088 N 
HETATM   22  C16 UNL     1      45.002  -1.471  26.738  1.00  0.00     0.274 C 
HETATM   23  C15 UNL     1      43.834  -0.827  27.478  1.00  0.00     0.055 C 
BRANCH  21  24
HETATM   24  C2  UNL     1      44.162  -2.832  24.925  1.00  0.00     0.268 C 
HETATM   25  C1  UNL     1      43.762  -4.192  24.455  1.00  0.00     0.037 C 
ENDBRANCH  21  24
ENDBRANCH   1  18
TORSDOF 5
ENDMDL
MODEL 2
REMARK VINA RESULT: -6.104752551      4.646      5.646
REMARK  5 active torsions:
REMARK  status: ('A' for Active; 'I' for Inactive)
REMARK    1  A    between atoms: C2_2  and  N1_3 
REMARK    2  A    between atoms: C5_6  and  N2_7 
REMARK       I    between atoms: N2_7  and  C6_9 
REMARK       I    between atoms: C6_9  and  N3_11 
REMARK    3  A    between atoms: N3_11  and  C7_13 
REMARK    4  A    between atoms: C7_13  and  N4_15 
REMARK    5  A    between atoms: N4_15  and  C8_17 
ROOT
HETATM    1  N2  UNL     1      43.683  -0.876  31.519  1.00  0.00    -0.338 N 
ATOM      2  H2  UNL     1      44.424  -0.487  30.936  1.00  0.00     0.164 HD
HETATM    3  C6  UNL     1      43.595  -0.519  32.893  1.00  0.00     0.322 C 
HETATM    4  O1  UNL     1      42.655  -1.041  33.542  1.00  0.00    -0.247 OA
HETATM    5  N3  UNL     1      44.552   0.370  33.383  1.00  0.00    -0.286 N 
ATOM      6  H3  UNL     1      45.254   0.703  32.722  1.00  0.00     0.173 HD
ENDROOT
BRANCH   5   7
HETATM    7  C7  UNL     1      44.641   0.846  34.685  1.00  0.00     0.175 C 
HETATM    8  S1  UNL     1      43.821   2.253  35.107  1.00  0.00    -0.041 SA
BRANCH   7   9
HETATM    9  N4  UNL     1      45.366   0.190  35.701  1.00  0.00    -0.362 N 
ATOM     10  H4  UNL     1      44.937  -0.599  36.184  1.00  0.00     0.162 HD
BRANCH   9  11
HETATM   11  C8  UNL     1      46.736   0.616  36.088  1.00  0.00     0.083 C 
HETATM   12  C9  UNL     1      47.685  -0.319  35.458  1.00  0.00     0.025 C 
HETATM   13  C10 UNL     1      49.057  -0.056  36.049  1.00  0.00     0.006 C 
HETATM   14  C11 UNL     1      48.996  -0.485  37.473  1.00  0.00    -0.019 C 
HETATM   15  C12 UNL     1      48.821  -1.997  37.492  1.00  0.00     0.010 C 
HETATM   16  C13 UNL     1      47.930   0.182  38.275  1.00  0.00     0.006 C 
HETATM   17  C14 UNL     1      46.839   0.819  37.538  1.00  0.00     0.025 C 
ENDBRANCH   9  11
ENDBRANCH   7   9
ENDBRANCH   5   7
BRANCH   1  18
HETATM   18  C5  UNL     1      42.732  -1.782  30.954  1.00  0.00     0.089 C 
HETATM   19  C4  UNL     1      42.152  -1.202  29.664  1.00  0.00     0.055 C 
HETATM   20  C3  UNL     1      43.017  -1.670  28.536  1.00  0.00     0.274 C 
HETATM   21  N1  UNL     1      42.709  -3.078  28.232  1.00  0.00     0.088 N 
HETATM   22  C16 UNL     1      42.561  -3.799  29.476  1.00  0.00     0.274 C 
HETATM   23  C15 UNL     1      43.335  -3.128  30.606  1.00  0.00     0.055 C 
BRANCH  21  24
HETATM   24  C2  UNL     1      43.779  -3.556  27.403  1.00  0.00     0.268 C 
HETATM   25  C1  UNL     1      44.404  -2.506  26.542  1.00  0.00     0.037 C 
ENDBRANCH  21  24
ENDBRANCH   1  18
TORSDOF 5
ENDMDL
MODEL 3
REMARK VINA RESULT: -6.059292890      3.066      7.133
REMARK  5 active torsions:
REMARK  status: ('A' for Active; 'I' for Inactive)
REMARK    1  A    between atoms: C2_2  and  N1_3 
REMARK    2  A    between atoms: C5_6  and  N2_7 
REMARK       I    between atoms: N2_7  and  C6_9 
REMARK       I    between atoms: C6_9  and  N3_11 
REMARK    3  A    between atoms: N3_11  and  C7_13 
REMARK    4  A    between atoms: C7_13  and  N4_15 
REMARK    5  A    between atoms: N4_15  and  C8_17 
ROOT
HETATM    1  N2  UNL     1      42.883  -1.108  32.862  1.00  0.00    -0.338 N 
ATOM      2  H2  UNL     1      43.069  -1.932  33.434  1.00  0.00     0.164 HD
HETATM    3  C6  UNL     1      42.194  -1.240  31.625  1.00  0.00     0.322 C 
HETATM    4  O1  UNL     1      42.005  -0.180  30.980  1.00  0.00    -0.247 OA
HETATM    5  N3  UNL     1      41.796  -2.525  31.251  1.00  0.00    -0.286 N 
ATOM      6  H3  UNL     1      42.029  -3.284  31.890  1.00  0.00     0.173 HD
ENDROOT
BRANCH   5   7
HETATM    7  C7  UNL     1      41.113  -2.868  30.091  1.00  0.00     0.175 C 
HETATM    8  S1  UNL     1      39.596  -3.586  30.209  1.00  0.00    -0.041 SA
BRANCH   7   9
HETATM    9  N4  UNL     1      41.611  -2.618  28.796  1.00  0.00    -0.362 N 
ATOM     10  H4  UNL     1      40.953  -2.421  28.042  1.00  0.00     0.162 HD
BRANCH   9  11
HETATM   11  C8  UNL     1      43.067  -2.631  28.499  1.00  0.00     0.083 C 
HETATM   12  C9  UNL     1      43.461  -1.254  28.152  1.00  0.00     0.025 C 
HETATM   13  C10 UNL     1      44.873  -1.301  27.599  1.00  0.00     0.006 C 
HETATM   14  C11 UNL     1      44.795  -2.011  26.294  1.00  0.00    -0.019 C 
HETATM   15  C12 UNL     1      44.007  -1.129  25.335  1.00  0.00     0.010 C 
HETATM   16  C13 UNL     1      44.203  -3.378  26.365  1.00  0.00     0.006 C 
HETATM   17  C14 UNL     1      43.405  -3.699  27.549  1.00  0.00     0.025 C 
ENDBRANCH   9  11
ENDBRANCH   7   9
ENDBRANCH   5   7
BRANCH   1  18
HETATM   18  C5  UNL     1      43.316   0.181  33.304  1.00  0.00     0.089 C 
HETATM   19  C4  UNL     1      43.024   0.354  34.795  1.00  0.00     0.055 C 
HETATM   20  C3  UNL     1      44.229  -0.123  35.543  1.00  0.00     0.274 C 
HETATM   21  N1  UNL     1      45.290   0.897  35.468  1.00  0.00     0.088 N 
HETATM   22  C16 UNL     1      45.342   1.412  34.118  1.00  0.00     0.274 C 
HETATM   23  C15 UNL     1      44.804   0.400  33.112  1.00  0.00     0.055 C 
BRANCH  21  24
HETATM   24  C2  UNL     1      46.500   0.253  35.895  1.00  0.00     0.268 C 
HETATM   25  C1  UNL     1      46.959   0.654  37.260  1.00  0.00     0.037 C 
ENDBRANCH  21  24
ENDBRANCH   1  18
TORSDOF 5
ENDMDL
MODEL 4
REMARK VINA RESULT: -5.978303320      2.890      4.108
REMARK  5 active torsions:
REMARK  status: ('A' for Active; 'I' for Inactive)
REMARK    1  A    between atoms: C2_2  and  N1_3 
REMARK    2  A    between atoms: C5_6  and  N2_7 
REMARK       I    between atoms: N2_7  and  C6_9 
REMARK       I    between atoms: C6_9  and  N3_11 
REMARK    3  A    between atoms: N3_11  and  C7_13 
REMARK    4  A    between atoms: C7_13  and  N4_15 
REMARK    5  A    between atoms: N4_15  and  C8_17 
ROOT
HETATM    1  N2  UNL     1      40.882  -3.307  29.050  1.00  0.00    -0.338 N 
ATOM      2  H2  UNL     1      40.505  -3.484  28.119  1.00  0.00     0.164 HD
HETATM    3  C6  UNL     1      40.016  -3.288  30.178  1.00  0.00     0.322 C 
HETATM    4  O1  UNL     1      40.557  -3.062  31.288  1.00  0.00    -0.247 OA
HETATM    5  N3  UNL     1      38.660  -3.521  29.945  1.00  0.00    -0.286 N 
ATOM      6  H3  UNL     1      38.380  -3.686  28.978  1.00  0.00     0.173 HD
ENDROOT
BRANCH   5   7
HETATM    7  C7  UNL     1      37.654  -3.548  30.903  1.00  0.00     0.175 C 
HETATM    8  S1  UNL     1      36.542  -4.810  30.895  1.00  0.00    -0.041 SA
BRANCH   7   9
HETATM    9  N4  UNL     1      37.527  -2.580  31.919  1.00  0.00    -0.362 N 
ATOM     10  H4  UNL     1      37.513  -2.883  32.893  1.00  0.00     0.162 HD
BRANCH   9  11
HETATM   11  C8  UNL     1      37.414  -1.130  31.613  1.00  0.00     0.083 C 
HETATM   12  C9  UNL     1      38.581  -0.458  32.212  1.00  0.00     0.025 C 
HETATM   13  C10 UNL     1      38.346   1.039  32.132  1.00  0.00     0.006 C 
HETATM   14  C11 UNL     1      37.220   1.343  33.057  1.00  0.00    -0.019 C 
HETATM   15  C12 UNL     1      37.705   1.077  34.476  1.00  0.00     0.010 C 
HETATM   16  C13 UNL     1      35.965   0.588  32.775  1.00  0.00     0.006 C 
HETATM   17  C14 UNL     1      36.081  -0.618  31.955  1.00  0.00     0.025 C 
ENDBRANCH   9  11
ENDBRANCH   7   9
ENDBRANCH   5   7
BRANCH   1  18
HETATM   18  C5  UNL     1      42.283  -3.077  29.221  1.00  0.00     0.089 C 
HETATM   19  C4  UNL     1      43.086  -4.200  28.565  1.00  0.00     0.055 C 
HETATM   20  C3  UNL     1      43.360  -3.786  27.153  1.00  0.00     0.274 C 
HETATM   21  N1  UNL     1      44.441  -2.784  27.137  1.00  0.00     0.088 N 
HETATM   22  C16 UNL     1      44.220  -1.847  28.214  1.00  0.00     0.274 C 
HETATM   23  C15 UNL     1      42.747  -1.775  28.600  1.00  0.00     0.055 C 
BRANCH  21  24
HETATM   24  C2  UNL     1      44.420  -2.189  25.830  1.00  0.00     0.268 C 
HETATM   25  C1  UNL     1      44.105  -3.145  24.725  1.00  0.00     0.037 C 
ENDBRANCH  21  24
ENDBRANCH   1  18
TORSDOF 5
ENDMDL
MODEL 5
REMARK VINA RESULT: -5.902099061      4.566      5.672
REMARK  5 active torsions:
REMARK  status: ('A' for Active; 'I' for Inactive)
REMARK    1  A    between atoms: C2_2  and  N1_3 
REMARK    2  A    between atoms: C5_6  and  N2_7 
REMARK       I    between atoms: N2_7  and  C6_9 
REMARK       I    between atoms: C6_9  and  N3_11 
REMARK    3  A    between atoms: N3_11  and  C7_13 
REMARK    4  A    between atoms: C7_13  and  N4_15 
REMARK    5  A    between atoms: N4_15  and  C8_17 
ROOT
HETATM    1  N2  UNL     1      43.472  -0.454  31.768  1.00  0.00    -0.338 N 
ATOM      2  H2  UNL     1      44.074  -0.067  31.042  1.00  0.00     0.164 HD
HETATM    3  C6  UNL     1      43.576   0.018  33.106  1.00  0.00     0.322 C 
HETATM    4  O1  UNL     1      42.801  -0.510  33.941  1.00  0.00    -0.247 OA
HETATM    5  N3  UNL     1      44.520   1.013  33.360  1.00  0.00    -0.286 N 
ATOM      6  H3  UNL     1      45.076   1.334  32.567  1.00  0.00     0.173 HD
ENDROOT
BRANCH   5   7
HETATM    7  C7  UNL     1      44.777   1.609  34.588  1.00  0.00     0.175 C 
HETATM    8  S1  UNL     1      43.596   2.571  35.302  1.00  0.00    -0.041 SA
BRANCH   7   9
HETATM    9  N4  UNL     1      45.980   1.426  35.301  1.00  0.00    -0.362 N 
ATOM     10  H4  UNL     1      46.609   2.219  35.422  1.00  0.00     0.162 HD
BRANCH   9  11
HETATM   11  C8  UNL     1      46.358   0.110  35.879  1.00  0.00     0.083 C 
HETATM   12  C9  UNL     1      46.349   0.251  37.345  1.00  0.00     0.025 C 
HETATM   13  C10 UNL     1      46.979  -0.996  37.936  1.00  0.00     0.006 C 
HETATM   14  C11 UNL     1      48.419  -0.962  37.563  1.00  0.00    -0.019 C 
HETATM   15  C12 UNL     1      49.058   0.209  38.298  1.00  0.00     0.010 C 
HETATM   16  C13 UNL     1      48.678  -0.874  36.097  1.00  0.00     0.006 C 
HETATM   17  C14 UNL     1      47.577  -0.415  35.251  1.00  0.00     0.025 C 
ENDBRANCH   9  11
ENDBRANCH   7   9
ENDBRANCH   5   7
BRANCH   1  18
HETATM   18  C5  UNL     1      42.522  -1.472  31.442  1.00  0.00     0.089 C 
HETATM   19  C4  UNL     1      41.765  -1.098  30.167  1.00  0.00     0.055 C 
HETATM   20  C3  UNL     1      42.525  -1.670  29.012  1.00  0.00     0.274 C 
HETATM   21  N1  UNL     1      42.274  -3.120  28.929  1.00  0.00     0.088 N 
HETATM   22  C16 UNL     1      42.314  -3.674  30.263  1.00  0.00     0.274 C 
HETATM   23  C15 UNL     1      43.167  -2.822  31.197  1.00  0.00     0.055 C 
BRANCH  21  24
HETATM   24  C2  UNL     1      43.272  -3.652  28.044  1.00  0.00     0.268 C 
HETATM   25  C1  UNL     1      44.022  -2.616  27.271  1.00  0.00     0.037 C 
ENDBRANCH  21  24
ENDBRANCH   1  18
TORSDOF 5
ENDMDL
