MODEL 1
REMARK VINA RESULT: -7.228578521      0.000      0.000
REMARK  5 active torsions:
REMARK  status: ('A' for Active; 'I' for Inactive)
REMARK    1  A    between atoms: C4_4  and  C6_6 
REMARK    2  A    between atoms: C6_6  and  C7_7 
REMARK    3  A    between atoms: C8_8  and  C9_9 
REMARK    4  A    between atoms: C18_18  and  C19_19 
REMARK    5  A    between atoms: C19_19  and  N2_21 
REMARK       I    between atoms: N2_21  and  C20_22 
ROOT
HETATM    1  C1  UNL     1       8.490  -1.618  22.076  1.00  0.00     0.102 C 
HETATM    2  C2  UNL     1       8.436  -1.058  23.162  1.00  0.00    -0.160 C 
HETATM    3  C3  UNL     1       8.375  -0.434  24.476  1.00  0.00     0.053 C 
HETATM    4  C4  UNL     1       8.760   0.818  24.596  1.00  0.00    -0.066 C 
HETATM    5  C5  UNL     1       8.657   1.387  25.983  1.00  0.00     0.045 C 
ENDROOT
BRANCH   4   6
HETATM    6  C6  UNL     1       9.279   1.582  23.465  1.00  0.00     0.128 C 
BRANCH   6   7
HETATM    7  C7  UNL     1       9.622   2.974  23.766  1.00  0.00    -0.102 C 
HETATM    8  C8  UNL     1       9.807   4.138  23.995  1.00  0.00    -0.101 C 
BRANCH   8   9
HETATM    9  C9  UNL     1       9.954   5.607  24.217  1.00  0.00     0.073 C 
HETATM   10  C10 UNL     1       9.249   6.277  23.032  1.00  0.00     0.002 C 
HETATM   11  C11 UNL     1       7.980   5.617  22.701  1.00  0.00     0.010 C 
HETATM   12  C17 UNL     1       9.129   7.675  23.531  1.00  0.00     0.011 C 
HETATM   13  C12 UNL     1       6.867   5.636  23.679  1.00  0.00    -0.013 C 
HETATM   14  C13 UNL     1       6.989   4.825  24.916  1.00  0.00     0.005 C 
HETATM   15  C21 UNL     1       6.328   6.944  24.023  1.00  0.00     0.018 C 
HETATM   16  C14 UNL     1       8.110   5.101  25.795  1.00  0.00     0.007 C 
HETATM   17  C15 UNL     1       9.122   6.095  25.359  1.00  0.00     0.006 C 
HETATM   18  C16 UNL     1       8.635   7.442  24.944  1.00  0.00     0.003 C 
HETATM   19  C18 UNL     1       7.214   7.708  25.052  1.00  0.00     0.070 C 
BRANCH  19  20
HETATM   20  C19 UNL     1       6.741   9.038  24.858  1.00  0.00     0.175 C 
HETATM   21  N1  UNL     1       7.319   9.830  25.991  1.00  0.00    -0.071 NA
BRANCH  20  22
HETATM   22  N2  UNL     1       6.073   9.966  24.177  1.00  0.00    -0.344 NA
HETATM   23  C20 UNL     1       5.393  10.915  23.491  1.00  0.00     0.406 C 
HETATM   24  N3  UNL     1       4.903  10.285  22.189  1.00  0.00    -0.025 NA
HETATM   25  O1  UNL     1       5.071  12.054  23.539  1.00  0.00    -0.234 OA
ENDBRANCH  20  22
ENDBRANCH  19  20
ENDBRANCH   8   9
ENDBRANCH   6   7
ENDBRANCH   4   6
TORSDOF 5
ENDMDL
MODEL 2
REMARK VINA RESULT: -7.187087516      4.377      7.952
REMARK  5 active torsions:
REMARK  status: ('A' for Active; 'I' for Inactive)
REMARK    1  A    between atoms: C4_4  and  C6_6 
REMARK    2  A    between atoms: C6_6  and  C7_7 
REMARK    3  A    between atoms: C8_8  and  C9_9 
REMARK    4  A    between atoms: C18_18  and  C19_19 
REMARK    5  A    between atoms: C19_19  and  N2_21 
REMARK       I    between atoms: N2_21  and  C20_22 
ROOT
HETATM    1  C1  UNL     1       7.117  12.418  18.445  1.00  0.00     0.102 C 
HETATM    2  C2  UNL     1       7.947  12.151  19.303  1.00  0.00    -0.160 C 
HETATM    3  C3  UNL     1       8.959  11.874  20.312  1.00  0.00     0.053 C 
HETATM    4  C4  UNL     1       8.614  11.180  21.375  1.00  0.00    -0.066 C 
HETATM    5  C5  UNL     1       9.721  10.932  22.360  1.00  0.00     0.045 C 
ENDROOT
BRANCH   4   6
HETATM    6  C6  UNL     1       7.247  10.716  21.589  1.00  0.00     0.128 C 
BRANCH   6   7
HETATM    7  C7  UNL     1       7.114   9.596  22.523  1.00  0.00    -0.102 C 
HETATM    8  C8  UNL     1       6.917   8.718  23.317  1.00  0.00    -0.101 C 
BRANCH   8   9
HETATM    9  C9  UNL     1       6.611   7.693  24.360  1.00  0.00     0.073 C 
HETATM   10  C10 UNL     1       6.402   6.378  23.599  1.00  0.00     0.002 C 
HETATM   11  C11 UNL     1       7.393   6.196  22.532  1.00  0.00     0.010 C 
HETATM   12  C17 UNL     1       6.479   5.395  24.714  1.00  0.00     0.011 C 
HETATM   13  C12 UNL     1       8.825   6.043  22.879  1.00  0.00    -0.013 C 
HETATM   14  C13 UNL     1       9.566   7.221  23.392  1.00  0.00     0.005 C 
HETATM   15  C21 UNL     1       9.177   4.878  23.679  1.00  0.00     0.018 C 
HETATM   16  C14 UNL     1       9.073   7.853  24.602  1.00  0.00     0.007 C 
HETATM   17  C15 UNL     1       7.805   7.356  25.193  1.00  0.00     0.006 C 
HETATM   18  C16 UNL     1       7.695   5.894  25.465  1.00  0.00     0.003 C 
HETATM   19  C18 UNL     1       8.855   5.068  25.191  1.00  0.00     0.070 C 
BRANCH  19  20
HETATM   20  C19 UNL     1       8.857   3.711  25.624  1.00  0.00     0.175 C 
HETATM   21  N1  UNL     1       9.148   3.767  27.093  1.00  0.00    -0.071 NA
BRANCH  20  22
HETATM   22  N2  UNL     1       8.706   2.405  25.417  1.00  0.00    -0.344 NA
HETATM   23  C20 UNL     1       8.552   1.075  25.213  1.00  0.00     0.406 C 
HETATM   24  N3  UNL     1       9.002   0.768  23.787  1.00  0.00    -0.025 NA
HETATM   25  O1  UNL     1       8.173   0.086  25.743  1.00  0.00    -0.234 OA
ENDBRANCH  20  22
ENDBRANCH  19  20
ENDBRANCH   8   9
ENDBRANCH   6   7
ENDBRANCH   4   6
TORSDOF 5
ENDMDL
MODEL 3
REMARK VINA RESULT: -7.171834189      7.165     10.644
REMARK  5 active torsions:
REMARK  status: ('A' for Active; 'I' for Inactive)
REMARK    1  A    between atoms: C4_4  and  C6_6 
REMARK    2  A    between atoms: C6_6  and  C7_7 
REMARK    3  A    between atoms: C8_8  and  C9_9 
REMARK    4  A    between atoms: C18_18  and  C19_19 
REMARK    5  A    between atoms: C19_19  and  N2_21 
REMARK       I    between atoms: N2_21  and  C20_22 
ROOT
HETATM    1  C1  UNL     1      17.525  14.100  20.100  1.00  0.00     0.102 C 
HETATM    2  C2  UNL     1      16.721  14.127  19.179  1.00  0.00    -0.160 C 
HETATM    3  C3  UNL     1      15.788  14.124  18.061  1.00  0.00     0.053 C 
HETATM    4  C4  UNL     1      14.565  14.567  18.261  1.00  0.00    -0.066 C 
HETATM    5  C5  UNL     1      13.671  14.537  17.054  1.00  0.00     0.045 C 
ENDROOT
BRANCH   4   6
HETATM    6  C6  UNL     1      14.110  15.025  19.571  1.00  0.00     0.128 C 
BRANCH   6   7
HETATM    7  C7  UNL     1      13.464  13.999  20.393  1.00  0.00    -0.102 C 
HETATM    8  C8  UNL     1      12.869  13.228  21.095  1.00  0.00    -0.101 C 
BRANCH   8   9
HETATM    9  C9  UNL     1      12.098  12.353  22.028  1.00  0.00     0.073 C 
HETATM   10  C10 UNL     1      11.321  11.379  21.135  1.00  0.00     0.002 C 
HETATM   11  C11 UNL     1      12.140  10.878  20.024  1.00  0.00     0.010 C 
HETATM   12  C17 UNL     1      10.907  10.355  22.132  1.00  0.00     0.011 C 
HETATM   13  C12 UNL     1      13.329  10.041  20.308  1.00  0.00    -0.013 C 
HETATM   14  C13 UNL     1      14.519  10.677  20.924  1.00  0.00     0.005 C 
HETATM   15  C21 UNL     1      13.081   8.765  20.964  1.00  0.00     0.018 C 
HETATM   16  C14 UNL     1      14.347  11.325  22.211  1.00  0.00     0.007 C 
HETATM   17  C15 UNL     1      12.980  11.411  22.782  1.00  0.00     0.006 C 
HETATM   18  C16 UNL     1      12.198  10.146  22.896  1.00  0.00     0.003 C 
HETATM   19  C18 UNL     1      12.848   8.913  22.498  1.00  0.00     0.070 C 
BRANCH  19  20
HETATM   20  C19 UNL     1      12.209   7.671  22.779  1.00  0.00     0.175 C 
HETATM   21  N1  UNL     1      13.244   6.624  22.494  1.00  0.00    -0.071 NA
BRANCH  20  22
HETATM   22  N2  UNL     1      11.177   6.941  23.194  1.00  0.00    -0.344 NA
HETATM   23  C20 UNL     1      10.130   6.196  23.622  1.00  0.00     0.406 C 
HETATM   24  N3  UNL     1       9.078   6.195  22.516  1.00  0.00    -0.025 NA
HETATM   25  O1  UNL     1       9.745   5.572  24.553  1.00  0.00    -0.234 OA
ENDBRANCH  20  22
ENDBRANCH  19  20
ENDBRANCH   8   9
ENDBRANCH   6   7
ENDBRANCH   4   6
TORSDOF 5
ENDMDL
MODEL 4
REMARK VINA RESULT: -7.108567584      4.071      7.522
REMARK  5 active torsions:
REMARK  status: ('A' for Active; 'I' for Inactive)
REMARK    1  A    between atoms: C4_4  and  C6_6 
REMARK    2  A    between atoms: C6_6  and  C7_7 
REMARK    3  A    between atoms: C8_8  and  C9_9 
REMARK    4  A    between atoms: C18_18  and  C19_19 
REMARK    5  A    between atoms: C19_19  and  N2_21 
REMARK       I    between atoms: N2_21  and  C20_22 
ROOT
HETATM    1  C1  UNL     1       3.210   7.860  25.333  1.00  0.00     0.102 C 
HETATM    2  C2  UNL     1       3.436   8.537  24.339  1.00  0.00    -0.160 C 
HETATM    3  C3  UNL     1       3.660   9.333  23.141  1.00  0.00     0.053 C 
HETATM    4  C4  UNL     1       4.553  10.299  23.186  1.00  0.00    -0.066 C 
HETATM    5  C5  UNL     1       4.728  11.064  21.905  1.00  0.00     0.045 C 
ENDROOT
BRANCH   4   6
HETATM    6  C6  UNL     1       5.292  10.616  24.404  1.00  0.00     0.128 C 
BRANCH   6   7
HETATM    7  C7  UNL     1       6.537   9.865  24.584  1.00  0.00    -0.102 C 
HETATM    8  C8  UNL     1       7.508   9.169  24.695  1.00  0.00    -0.101 C 
BRANCH   8   9
HETATM    9  C9  UNL     1       8.652   8.220  24.842  1.00  0.00     0.073 C 
HETATM   10  C10 UNL     1       8.194   7.177  25.868  1.00  0.00     0.002 C 
HETATM   11  C11 UNL     1       6.802   6.762  25.649  1.00  0.00     0.010 C 
HETATM   12  C17 UNL     1       9.215   6.113  25.662  1.00  0.00     0.011 C 
HETATM   13  C12 UNL     1       6.438   6.046  24.405  1.00  0.00    -0.013 C 
HETATM   14  C13 UNL     1       6.438   6.794  23.123  1.00  0.00     0.005 C 
HETATM   15  C21 UNL     1       7.068   4.749  24.195  1.00  0.00     0.018 C 
HETATM   16  C14 UNL     1       7.680   7.418  22.707  1.00  0.00     0.007 C 
HETATM   17  C15 UNL     1       8.841   7.367  23.630  1.00  0.00     0.006 C 
HETATM   18  C16 UNL     1       9.253   6.030  24.150  1.00  0.00     0.003 C 
HETATM   19  C18 UNL     1       8.530   4.868  23.671  1.00  0.00     0.070 C 
BRANCH  19  20
HETATM   20  C19 UNL     1       9.020   3.569  23.986  1.00  0.00     0.175 C 
HETATM   21  N1  UNL     1      10.432   3.549  23.483  1.00  0.00    -0.071 NA
BRANCH  20  22
HETATM   22  N2  UNL     1       8.896   2.358  24.524  1.00  0.00    -0.344 NA
HETATM   23  C20 UNL     1       8.769   1.128  25.077  1.00  0.00     0.406 C 
HETATM   24  N3  UNL     1       8.932   0.098  23.963  1.00  0.00    -0.025 NA
HETATM   25  O1  UNL     1       8.557   0.585  26.108  1.00  0.00    -0.234 OA
ENDBRANCH  20  22
ENDBRANCH  19  20
ENDBRANCH   8   9
ENDBRANCH   6   7
ENDBRANCH   4   6
TORSDOF 5
ENDMDL
MODEL 5
REMARK VINA RESULT: -7.026462610      1.847      2.559
REMARK  5 active torsions:
REMARK  status: ('A' for Active; 'I' for Inactive)
REMARK    1  A    between atoms: C4_4  and  C6_6 
REMARK    2  A    between atoms: C6_6  and  C7_7 
REMARK    3  A    between atoms: C8_8  and  C9_9 
REMARK    4  A    between atoms: C18_18  and  C19_19 
REMARK    5  A    between atoms: C19_19  and  N2_21 
REMARK       I    between atoms: N2_21  and  C20_22 
ROOT
HETATM    1  C1  UNL     1       7.458  -1.249  25.732  1.00  0.00     0.102 C 
HETATM    2  C2  UNL     1       8.099  -0.497  25.011  1.00  0.00    -0.160 C 
HETATM    3  C3  UNL     1       8.844   0.375  24.114  1.00  0.00     0.053 C 
HETATM    4  C4  UNL     1       9.190   1.570  24.544  1.00  0.00    -0.066 C 
HETATM    5  C5  UNL     1       9.963   2.401  23.559  1.00  0.00     0.045 C 
ENDROOT
BRANCH   4   6
HETATM    6  C6  UNL     1       8.820   2.056  25.870  1.00  0.00     0.128 C 
BRANCH   6   7
HETATM    7  C7  UNL     1       8.816   3.513  26.014  1.00  0.00    -0.102 C 
HETATM    8  C8  UNL     1       8.724   4.708  26.085  1.00  0.00    -0.101 C 
BRANCH   8   9
HETATM    9  C9  UNL     1       8.547   6.191  26.086  1.00  0.00     0.073 C 
HETATM   10  C10 UNL     1       9.544   6.727  25.052  1.00  0.00     0.002 C 
HETATM   11  C11 UNL     1       9.575   5.903  23.838  1.00  0.00     0.010 C 
HETATM   12  C17 UNL     1       9.037   8.114  24.867  1.00  0.00     0.011 C 
HETATM   13  C12 UNL     1       8.370   5.815  22.980  1.00  0.00    -0.013 C 
HETATM   14  C13 UNL     1       7.190   5.068  23.481  1.00  0.00     0.005 C 
HETATM   15  C21 UNL     1       7.919   7.056  22.367  1.00  0.00     0.018 C 
HETATM   16  C14 UNL     1       6.589   5.512  24.725  1.00  0.00     0.007 C 
HETATM   17  C15 UNL     1       7.248   6.609  25.476  1.00  0.00     0.006 C 
HETATM   18  C16 UNL     1       7.548   7.870  24.737  1.00  0.00     0.003 C 
HETATM   19  C18 UNL     1       7.121   7.959  23.355  1.00  0.00     0.070 C 
BRANCH  19  20
HETATM   20  C19 UNL     1       7.209   9.212  22.682  1.00  0.00     0.175 C 
HETATM   21  N1  UNL     1       5.797   9.707  22.588  1.00  0.00    -0.071 NA
BRANCH  20  22
HETATM   22  N2  UNL     1       7.893  10.201  22.112  1.00  0.00    -0.344 NA
HETATM   23  C20 UNL     1       8.593  11.207  21.537  1.00  0.00     0.406 C 
HETATM   24  N3  UNL     1       7.818  11.669  20.306  1.00  0.00    -0.025 NA
HETATM   25  O1  UNL     1       9.596  11.829  21.645  1.00  0.00    -0.234 OA
ENDBRANCH  20  22
ENDBRANCH  19  20
ENDBRANCH   8   9
ENDBRANCH   6   7
ENDBRANCH   4   6
TORSDOF 5
ENDMDL
