MODEL 1
REMARK VINA RESULT: -7.582550847      0.000      0.000
REMARK  3 active torsions:
REMARK  status: ('A' for Active; 'I' for Inactive)
REMARK       I    between atoms: C1_4  and  N3_6 
REMARK    1  A    between atoms: N3_6  and  C2_8 
REMARK    2  A    between atoms: C10_16  and  C11_17 
REMARK       I    between atoms: C11_17  and  N4_19 
REMARK    3  A    between atoms: N4_19  and  C12_21 
ROOT
HETATM    1  C2  UNL     1       8.589   5.196  23.453  1.00  0.00     0.045 C 
HETATM    2  C3  UNL     1       8.065   6.227  22.463  1.00  0.00     0.036 C 
HETATM    3  C4  UNL     1       7.348   7.317  23.184  1.00  0.00    -0.012 C 
HETATM    4  C5  UNL     1       6.206   6.800  24.020  1.00  0.00     0.009 C 
HETATM    5  C6  UNL     1       6.775   5.847  25.038  1.00  0.00    -0.012 C 
HETATM    6  C7  UNL     1       7.811   6.492  25.937  1.00  0.00     0.010 C 
HETATM    7  C8  UNL     1       8.920   7.011  25.061  1.00  0.00     0.002 C 
HETATM    8  C9  UNL     1       8.324   7.998  24.123  1.00  0.00     0.010 C 
HETATM    9  C10 UNL     1       9.586   5.820  24.387  1.00  0.00     0.110 C 
HETATM   10  C19 UNL     1       7.393   4.716  24.263  1.00  0.00     0.036 C 
ENDROOT
BRANCH   9  11
HETATM   11  C11 UNL     1      10.855   6.235  23.802  1.00  0.00     0.225 C 
HETATM   12  O1  UNL     1      11.641   5.263  23.452  1.00  0.00    -0.273 OA
HETATM   13  N4  UNL     1      11.377   7.504  23.551  1.00  0.00    -0.356 N 
ATOM     14  H4  UNL     1      10.820   8.323  23.795  1.00  0.00     0.162 HD
BRANCH  13  15
HETATM   15  C12 UNL     1      12.708   7.701  22.945  1.00  0.00     0.088 C 
HETATM   16  C13 UNL     1      12.524   8.253  21.549  1.00  0.00     0.030 C 
HETATM   17  C14 UNL     1      13.357   9.536  21.509  1.00  0.00    -0.012 C 
HETATM   18  C15 UNL     1      12.716  10.613  22.329  1.00  0.00     0.005 C 
HETATM   19  C18 UNL     1      14.490   9.104  22.460  1.00  0.00     0.011 C 
HETATM   20  C16 UNL     1      12.795  10.015  23.739  1.00  0.00     0.007 C 
HETATM   21  C17 UNL     1      13.533   8.731  23.620  1.00  0.00     0.009 C 
ENDBRANCH  13  15
ENDBRANCH   9  11
BRANCH   1  22
HETATM   22  N3  UNL     1       9.064   4.060  22.713  1.00  0.00    -0.355 N 
HETATM   23  C1  UNL     1       9.375   2.810  23.319  1.00  0.00     0.182 C 
HETATM   24  N1  UNL     1       9.944   2.685  24.465  1.00  0.00    -0.374 N 
HETATM   25  N2  UNL     1       9.049   1.574  22.639  1.00  0.00    -0.064 NA
ATOM     26  H12 UNL     1      10.167   1.789  24.900  1.00  0.00     0.158 HD
ATOM     27  H11 UNL     1      10.173   3.555  24.944  1.00  0.00     0.158 HD
ATOM     28  H3  UNL     1       9.183   4.154  21.705  1.00  0.00     0.163 HD
ENDBRANCH   1  22
TORSDOF 3
ENDMDL
MODEL 2
REMARK VINA RESULT: -7.211178453      1.115      1.492
REMARK  3 active torsions:
REMARK  status: ('A' for Active; 'I' for Inactive)
REMARK       I    between atoms: C1_4  and  N3_6 
REMARK    1  A    between atoms: N3_6  and  C2_8 
REMARK    2  A    between atoms: C10_16  and  C11_17 
REMARK       I    between atoms: C11_17  and  N4_19 
REMARK    3  A    between atoms: N4_19  and  C12_21 
ROOT
HETATM    1  C2  UNL     1       8.247   4.999  24.156  1.00  0.00     0.045 C 
HETATM    2  C3  UNL     1       7.076   5.887  23.758  1.00  0.00     0.036 C 
HETATM    3  C4  UNL     1       6.633   6.709  24.920  1.00  0.00    -0.012 C 
HETATM    4  C5  UNL     1       6.242   5.865  26.106  1.00  0.00     0.009 C 
HETATM    5  C6  UNL     1       7.448   5.063  26.519  1.00  0.00    -0.012 C 
HETATM    6  C7  UNL     1       8.638   5.930  26.882  1.00  0.00     0.010 C 
HETATM    7  C8  UNL     1       8.981   6.768  25.679  1.00  0.00     0.002 C 
HETATM    8  C9  UNL     1       7.787   7.592  25.354  1.00  0.00     0.010 C 
HETATM    9  C10 UNL     1       9.427   5.833  24.565  1.00  0.00     0.110 C 
HETATM   10  C19 UNL     1       7.790   4.177  25.353  1.00  0.00     0.036 C 
ENDROOT
BRANCH   9  11
HETATM   11  C11 UNL     1      10.077   6.603  23.511  1.00  0.00     0.225 C 
HETATM   12  O1  UNL     1       9.479   6.570  22.360  1.00  0.00    -0.273 OA
HETATM   13  N4  UNL     1      11.238   7.375  23.524  1.00  0.00    -0.356 N 
ATOM     14  H4  UNL     1      11.767   7.455  24.393  1.00  0.00     0.162 HD
BRANCH  13  15
HETATM   15  C12 UNL     1      11.728   8.079  22.323  1.00  0.00     0.088 C 
HETATM   16  C13 UNL     1      11.670   9.568  22.581  1.00  0.00     0.030 C 
HETATM   17  C14 UNL     1      13.085  10.081  22.304  1.00  0.00    -0.012 C 
HETATM   18  C15 UNL     1      14.031   9.641  23.379  1.00  0.00     0.005 C 
HETATM   19  C18 UNL     1      13.470   9.099  21.181  1.00  0.00     0.011 C 
HETATM   20  C16 UNL     1      14.013   8.118  23.201  1.00  0.00     0.007 C 
HETATM   21  C17 UNL     1      13.158   7.834  22.019  1.00  0.00     0.009 C 
ENDBRANCH  13  15
ENDBRANCH   9  11
BRANCH   1  22
HETATM   22  N3  UNL     1       8.490   4.068  23.090  1.00  0.00    -0.355 N 
HETATM   23  C1  UNL     1       9.469   3.037  23.164  1.00  0.00     0.182 C 
HETATM   24  N1  UNL     1      10.622   3.174  23.715  1.00  0.00    -0.374 N 
HETATM   25  N2  UNL     1       9.194   1.734  22.596  1.00  0.00    -0.064 NA
ATOM     26  H12 UNL     1      11.324   2.436  23.768  1.00  0.00     0.158 HD
ATOM     27  H11 UNL     1      10.816   4.092  24.116  1.00  0.00     0.158 HD
ATOM     28  H3  UNL     1       7.934   4.149  22.239  1.00  0.00     0.163 HD
ENDBRANCH   1  22
TORSDOF 3
ENDMDL
MODEL 3
REMARK VINA RESULT: -6.823834950      5.443     10.067
REMARK  3 active torsions:
REMARK  status: ('A' for Active; 'I' for Inactive)
REMARK       I    between atoms: C1_4  and  N3_6 
REMARK    1  A    between atoms: N3_6  and  C2_8 
REMARK    2  A    between atoms: C10_16  and  C11_17 
REMARK       I    between atoms: C11_17  and  N4_19 
REMARK    3  A    between atoms: N4_19  and  C12_21 
ROOT
HETATM    1  C2  UNL     1      15.978  14.139  21.140  1.00  0.00     0.045 C 
HETATM    2  C3  UNL     1      14.570  14.515  21.583  1.00  0.00     0.036 C 
HETATM    3  C4  UNL     1      13.680  14.670  20.398  1.00  0.00    -0.012 C 
HETATM    4  C5  UNL     1      14.191  15.700  19.424  1.00  0.00     0.009 C 
HETATM    5  C6  UNL     1      15.547  15.251  18.948  1.00  0.00    -0.012 C 
HETATM    6  C7  UNL     1      15.518  13.890  18.280  1.00  0.00     0.010 C 
HETATM    7  C8  UNL     1      14.984  12.899  19.279  1.00  0.00     0.002 C 
HETATM    8  C9  UNL     1      13.619  13.344  19.665  1.00  0.00     0.010 C 
HETATM    9  C10 UNL     1      15.971  12.814  20.434  1.00  0.00     0.110 C 
HETATM   10  C19 UNL     1      16.434  15.213  20.162  1.00  0.00     0.036 C 
ENDROOT
BRANCH   9  11
HETATM   11  C11 UNL     1      15.671  11.643  21.249  1.00  0.00     0.225 C 
HETATM   12  O1  UNL     1      16.654  11.222  21.985  1.00  0.00    -0.273 OA
HETATM   13  N4  UNL     1      14.505  10.890  21.376  1.00  0.00    -0.356 N 
ATOM     14  H4  UNL     1      13.684  11.157  20.832  1.00  0.00     0.162 HD
BRANCH  13  15
HETATM   15  C12 UNL     1      14.418   9.720  22.271  1.00  0.00     0.088 C 
HETATM   16  C13 UNL     1      13.653  10.119  23.513  1.00  0.00     0.030 C 
HETATM   17  C14 UNL     1      12.511   9.107  23.627  1.00  0.00    -0.012 C 
HETATM   18  C15 UNL     1      11.480   9.345  22.567  1.00  0.00     0.005 C 
HETATM   19  C18 UNL     1      13.232   7.880  23.037  1.00  0.00     0.011 C 
HETATM   20  C16 UNL     1      12.276   9.051  21.291  1.00  0.00     0.007 C 
HETATM   21  C17 UNL     1      13.624   8.595  21.721  1.00  0.00     0.009 C 
ENDBRANCH  13  15
ENDBRANCH   9  11
BRANCH   1  22
HETATM   22  N3  UNL     1      16.848  14.227  22.279  1.00  0.00    -0.355 N 
HETATM   23  C1  UNL     1      18.266  14.144  22.183  1.00  0.00     0.182 C 
HETATM   24  N1  UNL     1      18.891  13.354  21.384  1.00  0.00    -0.374 N 
HETATM   25  N2  UNL     1      19.099  14.981  23.021  1.00  0.00    -0.064 NA
ATOM     26  H12 UNL     1      19.907  13.295  21.316  1.00  0.00     0.158 HD
ATOM     27  H11 UNL     1      18.305  12.765  20.794  1.00  0.00     0.158 HD
ATOM     28  H3  UNL     1      16.431  14.355  23.200  1.00  0.00     0.163 HD
ENDBRANCH   1  22
TORSDOF 3
ENDMDL
MODEL 4
REMARK VINA RESULT: -6.548279993      5.254      7.427
REMARK  3 active torsions:
REMARK  status: ('A' for Active; 'I' for Inactive)
REMARK       I    between atoms: C1_4  and  N3_6 
REMARK    1  A    between atoms: N3_6  and  C2_8 
REMARK    2  A    between atoms: C10_16  and  C11_17 
REMARK       I    between atoms: C11_17  and  N4_19 
REMARK    3  A    between atoms: N4_19  and  C12_21 
ROOT
HETATM    1  C2  UNL     1      13.676  10.378  23.359  1.00  0.00     0.045 C 
HETATM    2  C3  UNL     1      12.563  11.417  23.385  1.00  0.00     0.036 C 
HETATM    3  C4  UNL     1      12.875  12.484  24.377  1.00  0.00    -0.012 C 
HETATM    4  C5  UNL     1      13.083  11.936  25.766  1.00  0.00     0.009 C 
HETATM    5  C6  UNL     1      14.242  10.976  25.714  1.00  0.00    -0.012 C 
HETATM    6  C7  UNL     1      15.524  11.624  25.227  1.00  0.00     0.010 C 
HETATM    7  C8  UNL     1      15.266  12.173  23.849  1.00  0.00     0.002 C 
HETATM    8  C9  UNL     1      14.165  13.165  23.962  1.00  0.00     0.010 C 
HETATM    9  C10 UNL     1      14.970  11.003  22.922  1.00  0.00     0.110 C 
HETATM   10  C19 UNL     1      13.835   9.867  24.784  1.00  0.00     0.036 C 
ENDROOT
BRANCH   9  11
HETATM   11  C11 UNL     1      15.044  11.447  21.535  1.00  0.00     0.225 C 
HETATM   12  O1  UNL     1      14.897  10.508  20.652  1.00  0.00    -0.273 OA
HETATM   13  N4  UNL     1      15.246  12.713  20.988  1.00  0.00    -0.356 N 
ATOM     14  H4  UNL     1      15.368  13.508  21.616  1.00  0.00     0.162 HD
BRANCH  13  15
HETATM   15  C12 UNL     1      15.290  12.942  19.531  1.00  0.00     0.088 C 
HETATM   16  C13 UNL     1      14.007  13.625  19.112  1.00  0.00     0.030 C 
HETATM   17  C14 UNL     1      14.446  14.891  18.373  1.00  0.00    -0.012 C 
HETATM   18  C15 UNL     1      15.007  15.898  19.330  1.00  0.00     0.005 C 
HETATM   19  C18 UNL     1      15.748  14.353  17.748  1.00  0.00     0.011 C 
HETATM   20  C16 UNL     1      16.253  15.171  19.848  1.00  0.00     0.007 C 
HETATM   21  C17 UNL     1      16.346  13.890  19.100  1.00  0.00     0.009 C 
ENDBRANCH  13  15
ENDBRANCH   9  11
BRANCH   1  22
HETATM   22  N3  UNL     1      13.233   9.262  22.571  1.00  0.00    -0.355 N 
HETATM   23  C1  UNL     1      13.905   8.007  22.553  1.00  0.00     0.182 C 
HETATM   24  N1  UNL     1      15.183   7.871  22.579  1.00  0.00    -0.374 N 
HETATM   25  N2  UNL     1      13.142   6.777  22.499  1.00  0.00    -0.064 NA
ATOM     26  H12 UNL     1      15.665   6.972  22.566  1.00  0.00     0.158 HD
ATOM     27  H11 UNL     1      15.721   8.737  22.617  1.00  0.00     0.158 HD
ATOM     28  H3  UNL     1      12.397   9.373  21.998  1.00  0.00     0.163 HD
ENDBRANCH   1  22
TORSDOF 3
ENDMDL
MODEL 5
REMARK VINA RESULT: -6.531321502      4.541      6.447
REMARK  3 active torsions:
REMARK  status: ('A' for Active; 'I' for Inactive)
REMARK       I    between atoms: C1_4  and  N3_6 
REMARK    1  A    between atoms: N3_6  and  C2_8 
REMARK    2  A    between atoms: C10_16  and  C11_17 
REMARK       I    between atoms: C11_17  and  N4_19 
REMARK    3  A    between atoms: N4_19  and  C12_21 
ROOT
HETATM    1  C2  UNL     1      12.473   9.724  22.434  1.00  0.00     0.045 C 
HETATM    2  C3  UNL     1      11.176  10.253  21.836  1.00  0.00     0.036 C 
HETATM    3  C4  UNL     1      10.599  11.313  22.709  1.00  0.00    -0.012 C 
HETATM    4  C5  UNL     1      10.343  10.827  24.112  1.00  0.00     0.009 C 
HETATM    5  C6  UNL     1      11.659  10.390  24.697  1.00  0.00    -0.012 C 
HETATM    6  C7  UNL     1      12.692  11.501  24.725  1.00  0.00     0.010 C 
HETATM    7  C8  UNL     1      12.902  11.969  23.309  1.00  0.00     0.002 C 
HETATM    8  C9  UNL     1      11.592  12.456  22.800  1.00  0.00     0.010 C 
HETATM    9  C10 UNL     1      13.500  10.817  22.515  1.00  0.00     0.110 C 
HETATM   10  C19 UNL     1      12.147   9.252  23.844  1.00  0.00     0.036 C 
ENDROOT
BRANCH   9  11
HETATM   11  C11 UNL     1      14.023  11.315  21.249  1.00  0.00     0.225 C 
HETATM   12  O1  UNL     1      14.595  10.420  20.503  1.00  0.00    -0.273 OA
HETATM   13  N4  UNL     1      14.017  12.595  20.695  1.00  0.00    -0.356 N 
ATOM     14  H4  UNL     1      13.583  13.356  21.218  1.00  0.00     0.162 HD
BRANCH  13  15
HETATM   15  C12 UNL     1      14.616  12.884  19.378  1.00  0.00     0.088 C 
HETATM   16  C13 UNL     1      13.814  13.982  18.715  1.00  0.00     0.030 C 
HETATM   17  C14 UNL     1      14.831  15.070  18.365  1.00  0.00    -0.012 C 
HETATM   18  C15 UNL     1      15.308  15.771  19.600  1.00  0.00     0.005 C 
HETATM   19  C18 UNL     1      16.046  14.166  18.077  1.00  0.00     0.011 C 
HETATM   20  C16 UNL     1      16.030  14.637  20.338  1.00  0.00     0.007 C 
HETATM   21  C17 UNL     1      15.986  13.448  19.448  1.00  0.00     0.009 C 
ENDBRANCH  13  15
ENDBRANCH   9  11
BRANCH   1  22
HETATM   22  N3  UNL     1      12.869   8.559  21.694  1.00  0.00    -0.355 N 
HETATM   23  C1  UNL     1      13.903   7.679  22.122  1.00  0.00     0.182 C 
HETATM   24  N1  UNL     1      14.992   8.064  22.688  1.00  0.00    -0.374 N 
HETATM   25  N2  UNL     1      13.765   6.250  21.929  1.00  0.00    -0.064 NA
ATOM     26  H12 UNL     1      15.732   7.433  22.995  1.00  0.00     0.158 HD
ATOM     27  H11 UNL     1      15.089   9.070  22.824  1.00  0.00     0.158 HD
ATOM     28  H3  UNL     1      12.387   8.352  20.820  1.00  0.00     0.163 HD
ENDBRANCH   1  22
TORSDOF 3
ENDMDL
