MODEL 1
REMARK VINA RESULT: -7.817189419      0.000      0.000
REMARK  7 active torsions:
REMARK  status: ('A' for Active; 'I' for Inactive)
REMARK    1  A    between atoms: C2_2  and  C3_3 
REMARK    2  A    between atoms: C3_3  and  N1_5 
REMARK       I    between atoms: N1_5  and  C5_7 
REMARK       I    between atoms: C5_7  and  N2_9 
REMARK    3  A    between atoms: N2_9  and  C6_11 
REMARK    4  A    between atoms: C10_18  and  N4_19 
REMARK    5  A    between atoms: N4_19  and  S1_21 
REMARK    6  A    between atoms: S1_21  and  N5_24 
REMARK    7  A    between atoms: N5_24  and  C11_26 
ROOT
HETATM    1  C6  UNL     1      13.860 -12.472  20.830  1.00  0.00     0.137 A 
HETATM    2  N3  UNL     1      12.689 -13.105  20.999  1.00  0.00    -0.349 N 
ATOM      3  H3  UNL     1      11.940 -12.674  21.541  1.00  0.00     0.167 HD
HETATM    4  C7  UNL     1      12.516 -14.330  20.435  1.00  0.00     0.113 A 
HETATM    5  C8  UNL     1      13.512 -14.926  19.700  1.00  0.00     0.051 A 
HETATM    6 CL1  UNL     1      13.269 -16.497  18.985  1.00  0.00    -0.083 Cl
HETATM    7  C9  UNL     1      14.712 -14.285  19.524  1.00  0.00     0.059 A 
HETATM    8  C10 UNL     1      14.878 -13.049  20.097  1.00  0.00     0.089 A 
ENDROOT
BRANCH   8   9
HETATM    9  N4  UNL     1      16.081 -12.330  19.947  1.00  0.00    -0.264 N 
ATOM     10  H4  UNL     1      16.047 -11.387  19.561  1.00  0.00     0.180 HD
BRANCH   9  11
HETATM   11  S1  UNL     1      17.611 -12.993  20.396  1.00  0.00     0.320 S 
HETATM   12  O2  UNL     1      17.380 -14.213  21.282  1.00  0.00    -0.182 OA
HETATM   13  O3  UNL     1      18.270 -11.991  21.295  1.00  0.00    -0.182 OA
BRANCH  11  14
HETATM   14  N5  UNL     1      18.430 -13.427  19.026  1.00  0.00    -0.294 N 
ATOM     15  H5  UNL     1      17.938 -13.376  18.133  1.00  0.00     0.174 HD
BRANCH  14  16
HETATM   16  C11 UNL     1      19.749 -13.856  19.026  1.00  0.00     0.031 C 
HETATM   17  C12 UNL     1      20.253 -13.768  17.568  1.00  0.00     0.038 C 
HETATM   18  C13 UNL     1      19.918 -15.310  19.392  1.00  0.00     0.038 C 
HETATM   19  C14 UNL     1      20.725 -13.054  19.843  1.00  0.00     0.038 C 
ENDBRANCH  14  16
ENDBRANCH  11  14
ENDBRANCH   9  11
ENDBRANCH   8   9
BRANCH   1  20
HETATM   20  N2  UNL     1      14.067 -11.315  21.345  1.00  0.00    -0.293 N 
HETATM   21  C5  UNL     1      12.965 -10.624  21.913  1.00  0.00     0.322 C 
HETATM   22  N1  UNL     1      12.817 -10.502  23.322  1.00  0.00    -0.339 N 
HETATM   23  O1  UNL     1      12.070 -10.089  21.176  1.00  0.00    -0.247 OA
ATOM     24  H1  UNL     1      13.520 -10.920  23.931  1.00  0.00     0.164 HD
ATOM     25  H2  UNL     1      15.000 -10.901  21.345  1.00  0.00     0.172 HD
BRANCH  22  26
HETATM   26  C3  UNL     1      11.707  -9.806  23.916  1.00  0.00     0.081 C 
HETATM   27  C4  UNL     1      12.152  -8.630  24.770  1.00  0.00     0.032 C 
BRANCH  26  28
HETATM   28  C2  UNL     1      10.910 -10.797  24.729  1.00  0.00     0.020 C 
HETATM   29  C1  UNL     1      10.915 -12.180  24.121  1.00  0.00     0.007 C 
ENDBRANCH  26  28
ENDBRANCH  22  26
ENDBRANCH   1  20
TORSDOF 7
ENDMDL
MODEL 2
REMARK VINA RESULT: -7.427826892      3.489      4.498
REMARK  7 active torsions:
REMARK  status: ('A' for Active; 'I' for Inactive)
REMARK    1  A    between atoms: C2_2  and  C3_3 
REMARK    2  A    between atoms: C3_3  and  N1_5 
REMARK       I    between atoms: N1_5  and  C5_7 
REMARK       I    between atoms: C5_7  and  N2_9 
REMARK    3  A    between atoms: N2_9  and  C6_11 
REMARK    4  A    between atoms: C10_18  and  N4_19 
REMARK    5  A    between atoms: N4_19  and  S1_21 
REMARK    6  A    between atoms: S1_21  and  N5_24 
REMARK    7  A    between atoms: N5_24  and  C11_26 
ROOT
HETATM    1  C6  UNL     1      16.170 -12.726  20.007  1.00  0.00     0.137 A 
HETATM    2  N3  UNL     1      16.766 -12.413  21.167  1.00  0.00    -0.349 N 
ATOM      3  H3  UNL     1      16.218 -12.063  21.954  1.00  0.00     0.167 HD
HETATM    4  C7  UNL     1      18.111 -12.568  21.279  1.00  0.00     0.113 A 
HETATM    5  C8  UNL     1      18.866 -13.039  20.232  1.00  0.00     0.051 A 
HETATM    6 CL1  UNL     1      20.591 -13.232  20.397  1.00  0.00    -0.083 Cl
HETATM    7  C9  UNL     1      18.264 -13.362  19.042  1.00  0.00     0.059 A 
HETATM    8  C10 UNL     1      16.905 -13.200  18.939  1.00  0.00     0.089 A 
ENDROOT
BRANCH   8   9
HETATM    9  N4  UNL     1      16.220 -13.521  17.750  1.00  0.00    -0.264 N 
ATOM     10  H4  UNL     1      15.939 -14.488  17.588  1.00  0.00     0.180 HD
BRANCH   9  11
HETATM   11  S1  UNL     1      15.840 -12.332  16.556  1.00  0.00     0.320 S 
HETATM   12  O2  UNL     1      16.727 -11.110  16.777  1.00  0.00    -0.182 OA
HETATM   13  O3  UNL     1      14.452 -11.851  16.849  1.00  0.00    -0.182 OA
BRANCH  11  14
HETATM   14  N5  UNL     1      16.113 -12.973  15.056  1.00  0.00    -0.294 N 
ATOM     15  H5  UNL     1      15.365 -13.509  14.616  1.00  0.00     0.174 HD
BRANCH  14  16
HETATM   16  C11 UNL     1      17.307 -12.821  14.364  1.00  0.00     0.031 C 
HETATM   17  C12 UNL     1      17.310 -13.873  13.232  1.00  0.00     0.038 C 
HETATM   18  C13 UNL     1      18.532 -13.149  15.181  1.00  0.00     0.038 C 
HETATM   19  C14 UNL     1      17.537 -11.496  13.690  1.00  0.00     0.038 C 
ENDBRANCH  14  16
ENDBRANCH  11  14
ENDBRANCH   9  11
ENDBRANCH   8   9
BRANCH   1  20
HETATM   20  N2  UNL     1      14.902 -12.594  19.857  1.00  0.00    -0.293 N 
HETATM   21  C5  UNL     1      14.074 -12.708  21.003  1.00  0.00     0.322 C 
HETATM   22  N1  UNL     1      13.464 -11.566  21.591  1.00  0.00    -0.339 N 
HETATM   23  O1  UNL     1      13.848 -13.843  21.545  1.00  0.00    -0.247 OA
ATOM     24  H1  UNL     1      13.628 -10.649  21.175  1.00  0.00     0.164 HD
ATOM     25  H2  UNL     1      14.500 -12.412  18.937  1.00  0.00     0.172 HD
BRANCH  22  26
HETATM   26  C3  UNL     1      12.621 -11.662  22.753  1.00  0.00     0.081 C 
HETATM   27  C4  UNL     1      11.364 -12.475  22.490  1.00  0.00     0.032 C 
BRANCH  26  28
HETATM   28  C2  UNL     1      12.279 -10.263  23.204  1.00  0.00     0.020 C 
HETATM   29  C1  UNL     1      11.336 -10.250  24.384  1.00  0.00     0.007 C 
ENDBRANCH  26  28
ENDBRANCH  22  26
ENDBRANCH   1  20
TORSDOF 7
ENDMDL
MODEL 3
REMARK VINA RESULT: -7.369280333      3.079      5.940
REMARK  7 active torsions:
REMARK  status: ('A' for Active; 'I' for Inactive)
REMARK    1  A    between atoms: C2_2  and  C3_3 
REMARK    2  A    between atoms: C3_3  and  N1_5 
REMARK       I    between atoms: N1_5  and  C5_7 
REMARK       I    between atoms: C5_7  and  N2_9 
REMARK    3  A    between atoms: N2_9  and  C6_11 
REMARK    4  A    between atoms: C10_18  and  N4_19 
REMARK    5  A    between atoms: N4_19  and  S1_21 
REMARK    6  A    between atoms: S1_21  and  N5_24 
REMARK    7  A    between atoms: N5_24  and  C11_26 
ROOT
HETATM    1  C6  UNL     1      13.692 -12.461  20.664  1.00  0.00     0.137 A 
HETATM    2  N3  UNL     1      13.817 -11.263  21.255  1.00  0.00    -0.349 N 
ATOM      3  H3  UNL     1      14.516 -10.595  20.929  1.00  0.00     0.167 HD
HETATM    4  C7  UNL     1      13.000 -10.954  22.296  1.00  0.00     0.113 A 
HETATM    5  C8  UNL     1      12.052 -11.840  22.749  1.00  0.00     0.051 A 
HETATM    6 CL1  UNL     1      11.013 -11.424  24.085  1.00  0.00    -0.083 Cl
HETATM    7  C9  UNL     1      11.918 -13.067  22.149  1.00  0.00     0.059 A 
HETATM    8  C10 UNL     1      12.749 -13.370  21.100  1.00  0.00     0.089 A 
ENDROOT
BRANCH   8   9
HETATM    9  N4  UNL     1      12.660 -14.608  20.432  1.00  0.00    -0.264 N 
ATOM     10  H4  UNL     1      12.104 -14.669  19.579  1.00  0.00     0.180 HD
BRANCH   9  11
HETATM   11  S1  UNL     1      13.459 -16.026  21.010  1.00  0.00     0.320 S 
HETATM   12  O2  UNL     1      12.706 -16.558  22.225  1.00  0.00    -0.182 OA
HETATM   13  O3  UNL     1      14.786 -15.586  21.549  1.00  0.00    -0.182 OA
BRANCH  11  14
HETATM   14  N5  UNL     1      13.476 -17.160  19.805  1.00  0.00    -0.294 N 
ATOM     15  H5  UNL     1      12.736 -17.861  19.790  1.00  0.00     0.174 HD
BRANCH  14  16
HETATM   16  C11 UNL     1      14.445 -17.207  18.812  1.00  0.00     0.031 C 
HETATM   17  C12 UNL     1      14.054 -18.354  17.853  1.00  0.00     0.038 C 
HETATM   18  C13 UNL     1      15.816 -17.591  19.314  1.00  0.00     0.038 C 
HETATM   19  C14 UNL     1      14.592 -15.985  17.947  1.00  0.00     0.038 C 
ENDBRANCH  14  16
ENDBRANCH  11  14
ENDBRANCH   9  11
ENDBRANCH   8   9
BRANCH   1  20
HETATM   20  N2  UNL     1      14.444 -12.795  19.679  1.00  0.00    -0.293 N 
HETATM   21  C5  UNL     1      15.849 -12.801  19.877  1.00  0.00     0.322 C 
HETATM   22  N1  UNL     1      16.574 -14.018  19.994  1.00  0.00    -0.339 N 
HETATM   23  O1  UNL     1      16.509 -11.710  19.954  1.00  0.00    -0.247 OA
ATOM     24  H1  UNL     1      16.069 -14.902  19.933  1.00  0.00     0.164 HD
ATOM     25  H2  UNL     1      14.041 -13.050  18.777  1.00  0.00     0.172 HD
BRANCH  22  26
HETATM   26  C3  UNL     1      17.999 -14.043  20.194  1.00  0.00     0.081 C 
HETATM   27  C4  UNL     1      18.743 -14.581  18.984  1.00  0.00     0.032 C 
BRANCH  26  28
HETATM   28  C2  UNL     1      18.287 -14.872  21.423  1.00  0.00     0.020 C 
HETATM   29  C1  UNL     1      18.954 -14.072  22.516  1.00  0.00     0.007 C 
ENDBRANCH  26  28
ENDBRANCH  22  26
ENDBRANCH   1  20
TORSDOF 7
ENDMDL
MODEL 4
REMARK VINA RESULT: -7.361439395      2.874      5.303
REMARK  7 active torsions:
REMARK  status: ('A' for Active; 'I' for Inactive)
REMARK    1  A    between atoms: C2_2  and  C3_3 
REMARK    2  A    between atoms: C3_3  and  N1_5 
REMARK       I    between atoms: N1_5  and  C5_7 
REMARK       I    between atoms: C5_7  and  N2_9 
REMARK    3  A    between atoms: N2_9  and  C6_11 
REMARK    4  A    between atoms: C10_18  and  N4_19 
REMARK    5  A    between atoms: N4_19  and  S1_21 
REMARK    6  A    between atoms: S1_21  and  N5_24 
REMARK    7  A    between atoms: N5_24  and  C11_26 
ROOT
HETATM    1  C6  UNL     1      14.008 -14.097  21.972  1.00  0.00     0.137 A 
HETATM    2  N3  UNL     1      12.679 -14.089  22.159  1.00  0.00    -0.349 N 
ATOM      3  H3  UNL     1      12.176 -14.958  22.338  1.00  0.00     0.167 HD
HETATM    4  C7  UNL     1      12.015 -12.904  22.104  1.00  0.00     0.113 A 
HETATM    5  C8  UNL     1      12.676 -11.723  21.865  1.00  0.00     0.051 A 
HETATM    6 CL1  UNL     1      11.804 -10.215  21.800  1.00  0.00    -0.083 Cl
HETATM    7  C9  UNL     1      14.034 -11.725  21.673  1.00  0.00     0.059 A 
HETATM    8  C10 UNL     1      14.696 -12.925  21.728  1.00  0.00     0.089 A 
ENDROOT
BRANCH   8   9
HETATM    9  N4  UNL     1      16.093 -12.998  21.550  1.00  0.00    -0.264 N 
ATOM     10  H4  UNL     1      16.698 -12.931  22.368  1.00  0.00     0.180 HD
BRANCH   9  11
HETATM   11  S1  UNL     1      16.813 -13.198  19.993  1.00  0.00     0.320 S 
HETATM   12  O2  UNL     1      16.293 -12.103  19.065  1.00  0.00    -0.182 OA
HETATM   13  O3  UNL     1      16.265 -14.470  19.422  1.00  0.00    -0.182 OA
BRANCH  11  14
HETATM   14  N5  UNL     1      18.456 -13.087  20.145  1.00  0.00    -0.294 N 
ATOM     15  H5  UNL     1      18.835 -12.458  20.853  1.00  0.00     0.174 HD
BRANCH  14  16
HETATM   16  C11 UNL     1      19.347 -13.805  19.359  1.00  0.00     0.031 C 
HETATM   17  C12 UNL     1      20.749 -13.201  19.600  1.00  0.00     0.038 C 
HETATM   18  C13 UNL     1      19.121 -13.643  17.876  1.00  0.00     0.038 C 
HETATM   19  C14 UNL     1      19.480 -15.274  19.652  1.00  0.00     0.038 C 
ENDBRANCH  14  16
ENDBRANCH  11  14
ENDBRANCH   9  11
ENDBRANCH   8   9
BRANCH   1  20
HETATM   20  N2  UNL     1      14.675 -15.193  22.014  1.00  0.00    -0.293 N 
HETATM   21  C5  UNL     1      14.050 -16.379  21.551  1.00  0.00     0.322 C 
HETATM   22  N1  UNL     1      14.412 -16.970  20.310  1.00  0.00    -0.339 N 
HETATM   23  O1  UNL     1      13.141 -16.957  22.238  1.00  0.00    -0.247 OA
ATOM     24  H1  UNL     1      15.136 -16.527  19.744  1.00  0.00     0.164 HD
ATOM     25  H2  UNL     1      15.631 -15.210  22.371  1.00  0.00     0.172 HD
BRANCH  22  26
HETATM   26  C3  UNL     1      13.789 -18.173  19.825  1.00  0.00     0.081 C 
HETATM   27  C4  UNL     1      14.804 -19.242  19.456  1.00  0.00     0.032 C 
BRANCH  26  28
HETATM   28  C2  UNL     1      12.926 -17.812  18.639  1.00  0.00     0.020 C 
HETATM   29  C1  UNL     1      11.491 -17.545  19.029  1.00  0.00     0.007 C 
ENDBRANCH  26  28
ENDBRANCH  22  26
ENDBRANCH   1  20
TORSDOF 7
ENDMDL
MODEL 5
REMARK VINA RESULT: -7.319125213      4.318      5.365
REMARK  7 active torsions:
REMARK  status: ('A' for Active; 'I' for Inactive)
REMARK    1  A    between atoms: C2_2  and  C3_3 
REMARK    2  A    between atoms: C3_3  and  N1_5 
REMARK       I    between atoms: N1_5  and  C5_7 
REMARK       I    between atoms: C5_7  and  N2_9 
REMARK    3  A    between atoms: N2_9  and  C6_11 
REMARK    4  A    between atoms: C10_18  and  N4_19 
REMARK    5  A    between atoms: N4_19  and  S1_21 
REMARK    6  A    between atoms: S1_21  and  N5_24 
REMARK    7  A    between atoms: N5_24  and  C11_26 
ROOT
HETATM    1  C6  UNL     1      15.739 -13.121  18.395  1.00  0.00     0.137 A 
HETATM    2  N3  UNL     1      16.491 -13.843  19.239  1.00  0.00    -0.349 N 
ATOM      3  H3  UNL     1      16.075 -14.273  20.066  1.00  0.00     0.167 HD
HETATM    4  C7  UNL     1      17.816 -13.993  18.976  1.00  0.00     0.113 A 
HETATM    5  C8  UNL     1      18.394 -13.424  17.867  1.00  0.00     0.051 A 
HETATM    6 CL1  UNL     1      20.095 -13.629  17.548  1.00  0.00    -0.083 Cl
HETATM    7  C9  UNL     1      17.631 -12.684  16.999  1.00  0.00     0.059 A 
HETATM    8  C10 UNL     1      16.294 -12.537  17.274  1.00  0.00     0.089 A 
ENDROOT
BRANCH   8   9
HETATM    9  N4  UNL     1      15.450 -11.799  16.420  1.00  0.00    -0.264 N 
ATOM     10  H4  UNL     1      14.819 -11.110  16.827  1.00  0.00     0.180 HD
BRANCH   9  11
HETATM   11  S1  UNL     1      15.449 -12.023  14.707  1.00  0.00     0.320 S 
HETATM   12  O2  UNL     1      14.094 -11.592  14.154  1.00  0.00    -0.182 OA
HETATM   13  O3  UNL     1      15.505 -13.501  14.464  1.00  0.00    -0.182 OA
BRANCH  11  14
HETATM   14  N5  UNL     1      16.656 -11.105  14.047  1.00  0.00    -0.294 N 
ATOM     15  H5  UNL     1      16.779 -10.151  14.386  1.00  0.00     0.174 HD
BRANCH  14  16
HETATM   16  C11 UNL     1      17.512 -11.565  13.055  1.00  0.00     0.031 C 
HETATM   17  C12 UNL     1      18.525 -10.433  12.772  1.00  0.00     0.038 C 
HETATM   18  C13 UNL     1      16.836 -11.802  11.727  1.00  0.00     0.038 C 
HETATM   19  C14 UNL     1      18.337 -12.780  13.379  1.00  0.00     0.038 C 
ENDBRANCH  14  16
ENDBRANCH  11  14
ENDBRANCH   9  11
ENDBRANCH   8   9
BRANCH   1  20
HETATM   20  N2  UNL     1      14.484 -12.952  18.605  1.00  0.00    -0.293 N 
HETATM   21  C5  UNL     1      14.016 -12.982  19.944  1.00  0.00     0.322 C 
HETATM   22  N1  UNL     1      13.621 -11.793  20.616  1.00  0.00    -0.339 N 
HETATM   23  O1  UNL     1      13.933 -14.081  20.590  1.00  0.00    -0.247 OA
ATOM     24  H1  UNL     1      13.678 -10.904  20.120  1.00  0.00     0.164 HD
ATOM     25  H2  UNL     1      13.839 -12.801  17.829  1.00  0.00     0.172 HD
BRANCH  22  26
HETATM   26  C3  UNL     1      13.145 -11.804  21.974  1.00  0.00     0.081 C 
HETATM   27  C4  UNL     1      11.802 -12.504  22.109  1.00  0.00     0.032 C 
BRANCH  26  28
HETATM   28  C2  UNL     1      13.064 -10.376  22.456  1.00  0.00     0.020 C 
HETATM   29  C1  UNL     1      11.961 -10.169  23.467  1.00  0.00     0.007 C 
ENDBRANCH  26  28
ENDBRANCH  22  26
ENDBRANCH   1  20
TORSDOF 7
ENDMDL
