MODEL 1
REMARK VINA RESULT: -9.692871637      0.000      0.000
REMARK  10 active torsions:
REMARK  status: ('A' for Active; 'I' for Inactive)
REMARK    1  A    between atoms: N1_1  and  N2_4 
REMARK    2  A    between atoms: N2_4  and  C1_6 
REMARK    3  A    between atoms: C1_6  and  N3_7 
REMARK    4  A    between atoms: N3_7  and  N4_9 
REMARK    5  A    between atoms: N5_11  and  N6_13 
REMARK    6  A    between atoms: N6_13  and  C3_15 
REMARK    7  A    between atoms: C4_20  and  O1_21 
REMARK    8  A    between atoms: C5_23  and  C6_24 
REMARK    9  A    between atoms: C6_24  and  C8_31 
REMARK   10  A    between atoms: N9_25  and  N10_27 
REMARK       I    between atoms: N10_27  and  C7_28 
ROOT
HETATM    1  N4  UNL     1       4.453   7.828  49.646  1.00  0.00    -0.037 N 
HETATM    2  C2  UNL     1       5.546   8.288  50.272  1.00  0.00     0.724 A 
HETATM    3  N5  UNL     1       5.887   7.754  51.392  1.00  0.00    -0.128 N 
ATOM      4  H5  UNL     1       5.330   6.996  51.787  1.00  0.00     0.205 HD
HETATM    5  N8  UNL     1       6.284   9.283  49.766  1.00  0.00    -0.166 N 
ATOM      6  H8  UNL     1       7.110   9.610  50.266  1.00  0.00     0.186 HD
HETATM    7  C4  UNL     1       5.928   9.866  48.571  1.00  0.00     0.173 A 
HETATM    8  C5  UNL     1       4.829   9.424  47.914  1.00  0.00     0.118 A 
HETATM    9  C9  UNL     1       4.074   8.361  48.491  1.00  0.00     0.300 A 
HETATM   10  O4  UNL     1       3.049   7.922  47.914  1.00  0.00    -0.264 OA
ENDROOT
BRANCH   8  11
HETATM   11  C6  UNL     1       4.328   9.931  46.651  1.00  0.00     0.127 C 
HETATM   12  N9  UNL     1       4.639   9.235  45.603  1.00  0.00    -0.225 N 
ATOM     13  H9  UNL     1       5.205   8.412  45.814  1.00  0.00     0.202 HD
BRANCH  12  14
HETATM   14  N10 UNL     1       4.380   9.372  44.351  1.00  0.00    -0.255 NA
HETATM   15  C7  UNL     1       4.104   9.517  43.018  1.00  0.00     0.388 C 
HETATM   16  O2  UNL     1       4.218   8.683  42.104  1.00  0.00    -0.617 OA
HETATM   17  O3  UNL     1       3.613  10.791  42.564  1.00  0.00    -0.617 OA
ENDBRANCH  12  14
BRANCH  11  18
HETATM   18  C8  UNL     1       3.544  11.113  46.397  1.00  0.00     0.168 A 
HETATM   19  N11 UNL     1       3.614  12.284  47.144  1.00  0.00    -0.267 N 
HETATM   20  N12 UNL     1       2.784  13.151  46.639  1.00  0.00    -0.227 N 
ATOM     21  H11 UNL     1       4.215  12.438  47.954  1.00  0.00     0.190 HD
HETATM   22  N13 UNL     1       2.155  12.636  45.591  1.00  0.00    -0.227 N 
ATOM     23  H12 UNL     1       2.638  14.095  46.998  1.00  0.00     0.210 HD
HETATM   24  N14 UNL     1       2.644  11.418  45.490  1.00  0.00    -0.267 N 
ATOM     25  H13 UNL     1       1.454  13.081  44.999  1.00  0.00     0.210 HD
ATOM     26  H14 UNL     1       2.347  10.764  44.767  1.00  0.00     0.190 HD
ENDBRANCH  11  18
ENDBRANCH   8  11
BRANCH   7  27
HETATM   27  O1  UNL     1       6.718  10.886  48.089  1.00  0.00    -0.345 OA
ATOM     28  H1  UNL     1       6.290  11.606  47.638  1.00  0.00     0.219 HD
ENDBRANCH   7  27
BRANCH   1  29
HETATM   29  N3  UNL     1       3.744   6.769  50.258  1.00  0.00    -0.225 N 
ATOM     30  H3  UNL     1       4.214   5.889  50.467  1.00  0.00     0.199 HD
BRANCH  29  31
HETATM   31  C1  UNL     1       2.494   6.927  50.551  1.00  0.00     0.084 C 
BRANCH  31  32
HETATM   32  N2  UNL     1       1.285   7.274  50.718  1.00  0.00    -0.256 N 
ATOM     33  H2  UNL     1       0.665   6.659  51.244  1.00  0.00     0.197 HD
BRANCH  32  34
HETATM   34  N1  UNL     1       0.775   8.466  50.208  1.00  0.00    -0.337 N 
ATOM     35  H12 UNL     1       0.769   8.586  49.195  1.00  0.00     0.177 HD
ATOM     36  H11 UNL     1       0.415   9.207  50.810  1.00  0.00     0.177 HD
ENDBRANCH  32  34
ENDBRANCH  31  32
ENDBRANCH  29  31
ENDBRANCH   1  29
BRANCH   3  37
HETATM   37  N6  UNL     1       7.024   8.216  52.068  1.00  0.00    -0.264 N 
ATOM     38  H6  UNL     1       7.412   9.125  51.816  1.00  0.00     0.189 HD
BRANCH  37  39
HETATM   39  C3  UNL     1       7.653   7.465  53.088  1.00  0.00     0.200 C 
HETATM   40  N7  UNL     1       7.529   6.056  53.138  1.00  0.00    -0.068 NA
HETATM   41  S1  UNL     1       8.535   8.215  54.225  1.00  0.00    -0.043 SA
ENDBRANCH  37  39
ENDBRANCH   3  37
TORSDOF 10
ENDMDL
MODEL 2
REMARK VINA RESULT: -9.587505079      1.466      2.506
REMARK  10 active torsions:
REMARK  status: ('A' for Active; 'I' for Inactive)
REMARK    1  A    between atoms: N1_1  and  N2_4 
REMARK    2  A    between atoms: N2_4  and  C1_6 
REMARK    3  A    between atoms: C1_6  and  N3_7 
REMARK    4  A    between atoms: N3_7  and  N4_9 
REMARK    5  A    between atoms: N5_11  and  N6_13 
REMARK    6  A    between atoms: N6_13  and  C3_15 
REMARK    7  A    between atoms: C4_20  and  O1_21 
REMARK    8  A    between atoms: C5_23  and  C6_24 
REMARK    9  A    between atoms: C6_24  and  C8_31 
REMARK   10  A    between atoms: N9_25  and  N10_27 
REMARK       I    between atoms: N10_27  and  C7_28 
ROOT
HETATM    1  N4  UNL     1       4.467   7.957  49.977  1.00  0.00    -0.037 N 
HETATM    2  C2  UNL     1       5.604   8.252  50.623  1.00  0.00     0.724 A 
HETATM    3  N5  UNL     1       5.902   7.590  51.684  1.00  0.00    -0.128 N 
ATOM      4  H5  UNL     1       5.279   6.856  52.019  1.00  0.00     0.205 HD
HETATM    5  N8  UNL     1       6.430   9.215  50.194  1.00  0.00    -0.166 N 
ATOM      6  H8  UNL     1       7.288   9.416  50.707  1.00  0.00     0.186 HD
HETATM    7  C4  UNL     1       6.121   9.935  49.062  1.00  0.00     0.173 A 
HETATM    8  C5  UNL     1       4.979   9.661  48.387  1.00  0.00     0.118 A 
HETATM    9  C9  UNL     1       4.130   8.626  48.880  1.00  0.00     0.300 A 
HETATM   10  O4  UNL     1       3.063   8.340  48.285  1.00  0.00    -0.264 OA
ENDROOT
BRANCH   8  11
HETATM   11  C6  UNL     1       4.517  10.325  47.184  1.00  0.00     0.127 C 
HETATM   12  N9  UNL     1       3.581  11.205  47.353  1.00  0.00    -0.225 N 
ATOM     13  H9  UNL     1       3.293  11.311  48.326  1.00  0.00     0.202 HD
BRANCH  12  14
HETATM   14  N10 UNL     1       2.943  11.972  46.542  1.00  0.00    -0.255 NA
HETATM   15  C7  UNL     1       2.263  12.789  45.679  1.00  0.00     0.388 C 
HETATM   16  O2  UNL     1       2.246  14.030  45.632  1.00  0.00    -0.617 OA
HETATM   17  O3  UNL     1       1.443  12.172  44.669  1.00  0.00    -0.617 OA
ENDBRANCH  12  14
BRANCH  11  18
HETATM   18  C8  UNL     1       4.944  10.129  45.822  1.00  0.00     0.168 A 
HETATM   19  N11 UNL     1       6.217  10.416  45.343  1.00  0.00    -0.267 N 
HETATM   20  N12 UNL     1       6.265  10.112  44.077  1.00  0.00    -0.227 N 
ATOM     21  H11 UNL     1       6.986  10.801  45.892  1.00  0.00     0.190 HD
HETATM   22  N13 UNL     1       5.097   9.635  43.670  1.00  0.00    -0.227 N 
ATOM     23  H12 UNL     1       7.086  10.225  43.482  1.00  0.00     0.210 HD
HETATM   24  N14 UNL     1       4.343   9.668  44.748  1.00  0.00    -0.267 N 
ATOM     25  H13 UNL     1       4.841   9.316  42.736  1.00  0.00     0.210 HD
ATOM     26  H14 UNL     1       3.372   9.359  44.751  1.00  0.00     0.190 HD
ENDBRANCH  11  18
ENDBRANCH   8  11
BRANCH   7  27
HETATM   27  O1  UNL     1       7.001  10.915  48.660  1.00  0.00    -0.345 OA
ATOM     28  H1  UNL     1       6.639  11.725  48.318  1.00  0.00     0.219 HD
ENDBRANCH   7  27
BRANCH   1  29
HETATM   29  N3  UNL     1       3.665   6.919  50.504  1.00  0.00    -0.225 N 
ATOM     30  H3  UNL     1       4.072   6.005  50.701  1.00  0.00     0.199 HD
BRANCH  29  31
HETATM   31  C1  UNL     1       2.411   7.140  50.735  1.00  0.00     0.084 C 
BRANCH  31  32
HETATM   32  N2  UNL     1       1.205   7.526  50.813  1.00  0.00    -0.256 N 
ATOM     33  H2  UNL     1       0.545   6.972  51.358  1.00  0.00     0.197 HD
BRANCH  32  34
HETATM   34  N1  UNL     1       0.751   8.680  50.180  1.00  0.00    -0.337 N 
ATOM     35  H12 UNL     1      -0.141   9.069  50.483  1.00  0.00     0.177 HD
ATOM     36  H11 UNL     1       1.278   9.137  49.435  1.00  0.00     0.177 HD
ENDBRANCH  32  34
ENDBRANCH  31  32
ENDBRANCH  29  31
ENDBRANCH   1  29
BRANCH   3  37
HETATM   37  N6  UNL     1       7.085   7.878  52.379  1.00  0.00    -0.264 N 
ATOM     38  H6  UNL     1       7.648   8.675  52.081  1.00  0.00     0.189 HD
BRANCH  37  39
HETATM   39  C3  UNL     1       7.523   7.104  53.477  1.00  0.00     0.200 C 
HETATM   40  N7  UNL     1       7.597   5.694  53.392  1.00  0.00    -0.068 NA
HETATM   41  S1  UNL     1       7.953   7.829  54.864  1.00  0.00    -0.043 SA
ENDBRANCH  37  39
ENDBRANCH   3  37
TORSDOF 10
ENDMDL
MODEL 3
REMARK VINA RESULT: -9.390231533      0.766      1.067
REMARK  10 active torsions:
REMARK  status: ('A' for Active; 'I' for Inactive)
REMARK    1  A    between atoms: N1_1  and  N2_4 
REMARK    2  A    between atoms: N2_4  and  C1_6 
REMARK    3  A    between atoms: C1_6  and  N3_7 
REMARK    4  A    between atoms: N3_7  and  N4_9 
REMARK    5  A    between atoms: N5_11  and  N6_13 
REMARK    6  A    between atoms: N6_13  and  C3_15 
REMARK    7  A    between atoms: C4_20  and  O1_21 
REMARK    8  A    between atoms: C5_23  and  C6_24 
REMARK    9  A    between atoms: C6_24  and  C8_31 
REMARK   10  A    between atoms: N9_25  and  N10_27 
REMARK       I    between atoms: N10_27  and  C7_28 
ROOT
HETATM    1  N4  UNL     1       4.488   7.975  49.511  1.00  0.00    -0.037 N 
HETATM    2  C2  UNL     1       5.546   8.513  50.134  1.00  0.00     0.724 A 
HETATM    3  N5  UNL     1       5.908   8.028  51.268  1.00  0.00    -0.128 N 
ATOM      4  H5  UNL     1       5.394   7.248  51.677  1.00  0.00     0.205 HD
HETATM    5  N8  UNL     1       6.228   9.539  49.608  1.00  0.00    -0.166 N 
ATOM      6  H8  UNL     1       7.029   9.926  50.106  1.00  0.00     0.186 HD
HETATM    7  C4  UNL     1       5.849  10.071  48.397  1.00  0.00     0.173 A 
HETATM    8  C5  UNL     1       4.784   9.549  47.743  1.00  0.00     0.118 A 
HETATM    9  C9  UNL     1       4.088   8.457  48.340  1.00  0.00     0.300 A 
HETATM   10  O4  UNL     1       3.096   7.944  47.767  1.00  0.00    -0.264 OA
ENDROOT
BRANCH   8  11
HETATM   11  C6  UNL     1       4.264   9.995  46.465  1.00  0.00     0.127 C 
HETATM   12  N9  UNL     1       4.579   9.261  45.444  1.00  0.00    -0.225 N 
ATOM     13  H9  UNL     1       5.159   8.457  45.684  1.00  0.00     0.202 HD
BRANCH  12  14
HETATM   14  N10 UNL     1       4.307   9.342  44.190  1.00  0.00    -0.255 NA
HETATM   15  C7  UNL     1       4.018   9.427  42.854  1.00  0.00     0.388 C 
HETATM   16  O2  UNL     1       4.226   8.593  41.958  1.00  0.00    -0.617 OA
HETATM   17  O3  UNL     1       3.386  10.628  42.375  1.00  0.00    -0.617 OA
ENDBRANCH  12  14
BRANCH  11  18
HETATM   18  C8  UNL     1       3.459  11.153  46.169  1.00  0.00     0.168 A 
HETATM   19  N11 UNL     1       3.512  12.353  46.869  1.00  0.00    -0.267 N 
HETATM   20  N12 UNL     1       2.665  13.186  46.335  1.00  0.00    -0.227 N 
ATOM     21  H11 UNL     1       4.114  12.548  47.670  1.00  0.00     0.190 HD
HETATM   22  N13 UNL     1       2.041  12.620  45.312  1.00  0.00    -0.227 N 
ATOM     23  H12 UNL     1       2.505  14.140  46.658  1.00  0.00     0.210 HD
HETATM   24  N14 UNL     1       2.549  11.407  45.256  1.00  0.00    -0.267 N 
ATOM     25  H13 UNL     1       1.329  13.029  44.706  1.00  0.00     0.210 HD
ATOM     26  H14 UNL     1       2.261  10.720  44.560  1.00  0.00     0.190 HD
ENDBRANCH  11  18
ENDBRANCH   8  11
BRANCH   7  27
HETATM   27  O1  UNL     1       6.580  11.125  47.897  1.00  0.00    -0.345 OA
ATOM     28  H1  UNL     1       6.546  11.287  46.961  1.00  0.00     0.219 HD
ENDBRANCH   7  27
BRANCH   1  29
HETATM   29  N3  UNL     1       3.838   6.891  50.143  1.00  0.00    -0.225 N 
ATOM     30  H3  UNL     1       4.354   6.039  50.362  1.00  0.00     0.199 HD
BRANCH  29  31
HETATM   31  C1  UNL     1       2.583   6.989  50.442  1.00  0.00     0.084 C 
BRANCH  31  32
HETATM   32  N2  UNL     1       1.366   7.290  50.637  1.00  0.00    -0.256 N 
ATOM     33  H2  UNL     1       0.767   6.625  51.126  1.00  0.00     0.197 HD
BRANCH  32  34
HETATM   34  N1  UNL     1       0.820   8.497  50.207  1.00  0.00    -0.337 N 
ATOM     35  H12 UNL     1       0.897   9.302  50.828  1.00  0.00     0.177 HD
ATOM     36  H11 UNL     1       0.353   8.593  49.305  1.00  0.00     0.177 HD
ENDBRANCH  32  34
ENDBRANCH  31  32
ENDBRANCH  29  31
ENDBRANCH   1  29
BRANCH   3  37
HETATM   37  N6  UNL     1       7.011   8.572  51.941  1.00  0.00    -0.264 N 
ATOM     38  H6  UNL     1       7.948   8.273  51.673  1.00  0.00     0.189 HD
BRANCH  37  39
HETATM   39  C3  UNL     1       6.868   9.522  52.979  1.00  0.00     0.200 C 
HETATM   40  N7  UNL     1       6.044  10.660  52.817  1.00  0.00    -0.068 NA
HETATM   41  S1  UNL     1       7.654   9.316  54.384  1.00  0.00    -0.043 SA
ENDBRANCH  37  39
ENDBRANCH   3  37
TORSDOF 10
ENDMDL
MODEL 4
REMARK VINA RESULT: -9.383604897      1.789      2.837
REMARK  10 active torsions:
REMARK  status: ('A' for Active; 'I' for Inactive)
REMARK    1  A    between atoms: N1_1  and  N2_4 
REMARK    2  A    between atoms: N2_4  and  C1_6 
REMARK    3  A    between atoms: C1_6  and  N3_7 
REMARK    4  A    between atoms: N3_7  and  N4_9 
REMARK    5  A    between atoms: N5_11  and  N6_13 
REMARK    6  A    between atoms: N6_13  and  C3_15 
REMARK    7  A    between atoms: C4_20  and  O1_21 
REMARK    8  A    between atoms: C5_23  and  C6_24 
REMARK    9  A    between atoms: C6_24  and  C8_31 
REMARK   10  A    between atoms: N9_25  and  N10_27 
REMARK       I    between atoms: N10_27  and  C7_28 
ROOT
HETATM    1  N4  UNL     1       4.571   8.474  48.546  1.00  0.00    -0.037 N 
HETATM    2  C2  UNL     1       5.502   9.010  49.348  1.00  0.00     0.724 A 
HETATM    3  N5  UNL     1       5.867   8.356  50.393  1.00  0.00    -0.128 N 
ATOM      4  H5  UNL     1       5.451   7.448  50.599  1.00  0.00     0.205 HD
HETATM    5  N8  UNL     1       6.055  10.202  49.090  1.00  0.00    -0.166 N 
ATOM      6  H8  UNL     1       6.761  10.582  49.719  1.00  0.00     0.186 HD
HETATM    7  C4  UNL     1       5.670  10.913  47.976  1.00  0.00     0.173 A 
HETATM    8  C5  UNL     1       4.731  10.399  47.146  1.00  0.00     0.118 A 
HETATM    9  C9  UNL     1       4.171   9.126  47.461  1.00  0.00     0.300 A 
HETATM   10  O4  UNL     1       3.299   8.613  46.718  1.00  0.00    -0.264 OA
ENDROOT
BRANCH   8  11
HETATM   11  C6  UNL     1       4.225  11.022  45.940  1.00  0.00     0.127 C 
HETATM   12  N9  UNL     1       3.493  12.077  46.117  1.00  0.00    -0.225 N 
ATOM     13  H9  UNL     1       3.373  12.328  47.099  1.00  0.00     0.202 HD
BRANCH  12  14
HETATM   14  N10 UNL     1       2.889  12.872  45.307  1.00  0.00    -0.255 NA
HETATM   15  C7  UNL     1       2.246  13.718  44.444  1.00  0.00     0.388 C 
HETATM   16  O2  UNL     1       1.357  14.551  44.688  1.00  0.00    -0.617 OA
HETATM   17  O3  UNL     1       2.616  13.675  43.054  1.00  0.00    -0.617 OA
ENDBRANCH  12  14
BRANCH  11  18
HETATM   18  C8  UNL     1       4.407  10.621  44.568  1.00  0.00     0.168 A 
HETATM   19  N11 UNL     1       4.624   9.313  44.149  1.00  0.00    -0.267 N 
HETATM   20  N12 UNL     1       4.734   9.303  42.851  1.00  0.00    -0.227 N 
ATOM     21  H11 UNL     1       4.687   8.496  44.757  1.00  0.00     0.190 HD
HETATM   22  N13 UNL     1       4.604  10.530  42.365  1.00  0.00    -0.227 N 
ATOM     23  H12 UNL     1       4.898   8.469  42.287  1.00  0.00     0.210 HD
HETATM   24  N14 UNL     1       4.412  11.278  43.431  1.00  0.00    -0.267 N 
ATOM     25  H13 UNL     1       4.644  10.826  41.390  1.00  0.00     0.210 HD
ATOM     26  H14 UNL     1       4.278  12.287  43.378  1.00  0.00     0.190 HD
ENDBRANCH  11  18
ENDBRANCH   8  11
BRANCH   7  27
HETATM   27  O1  UNL     1       6.266  12.135  47.753  1.00  0.00    -0.345 OA
ATOM     28  H1  UNL     1       6.891  12.201  47.040  1.00  0.00     0.219 HD
ENDBRANCH   7  27
BRANCH   1  29
HETATM   29  N3  UNL     1       4.053   7.207  48.900  1.00  0.00    -0.225 N 
ATOM     30  H3  UNL     1       4.592   6.361  48.716  1.00  0.00     0.199 HD
BRANCH  29  31
HETATM   31  C1  UNL     1       2.888   7.130  49.459  1.00  0.00     0.084 C 
BRANCH  31  32
HETATM   32  N2  UNL     1       1.733   7.278  49.961  1.00  0.00    -0.256 N 
ATOM     33  H2  UNL     1       1.204   6.448  50.230  1.00  0.00     0.197 HD
BRANCH  32  34
HETATM   34  N1  UNL     1       1.162   8.532  50.160  1.00  0.00    -0.337 N 
ATOM     35  H12 UNL     1       1.757   9.351  50.036  1.00  0.00     0.177 HD
ATOM     36  H11 UNL     1       0.183   8.650  50.421  1.00  0.00     0.177 HD
ENDBRANCH  32  34
ENDBRANCH  31  32
ENDBRANCH  29  31
ENDBRANCH   1  29
BRANCH   3  37
HETATM   37  N6  UNL     1       6.838   8.894  51.249  1.00  0.00    -0.264 N 
ATOM     38  H6  UNL     1       6.786   9.883  51.493  1.00  0.00     0.189 HD
BRANCH  37  39
HETATM   39  C3  UNL     1       7.887   8.112  51.787  1.00  0.00     0.200 C 
HETATM   40  N7  UNL     1       8.897   7.575  50.955  1.00  0.00    -0.068 NA
HETATM   41  S1  UNL     1       7.947   7.819  53.382  1.00  0.00    -0.043 SA
ENDBRANCH  37  39
ENDBRANCH   3  37
TORSDOF 10
ENDMDL
MODEL 5
REMARK VINA RESULT: -9.196482368      1.780      2.839
REMARK  10 active torsions:
REMARK  status: ('A' for Active; 'I' for Inactive)
REMARK    1  A    between atoms: N1_1  and  N2_4 
REMARK    2  A    between atoms: N2_4  and  C1_6 
REMARK    3  A    between atoms: C1_6  and  N3_7 
REMARK    4  A    between atoms: N3_7  and  N4_9 
REMARK    5  A    between atoms: N5_11  and  N6_13 
REMARK    6  A    between atoms: N6_13  and  C3_15 
REMARK    7  A    between atoms: C4_20  and  O1_21 
REMARK    8  A    between atoms: C5_23  and  C6_24 
REMARK    9  A    between atoms: C6_24  and  C8_31 
REMARK   10  A    between atoms: N9_25  and  N10_27 
REMARK       I    between atoms: N10_27  and  C7_28 
ROOT
HETATM    1  N4  UNL     1       3.672   9.628  50.588  1.00  0.00    -0.037 N 
HETATM    2  C2  UNL     1       4.900   9.451  51.094  1.00  0.00     0.724 A 
HETATM    3  N5  UNL     1       5.016   9.007  52.295  1.00  0.00    -0.128 N 
ATOM      4  H5  UNL     1       4.183   8.796  52.844  1.00  0.00     0.205 HD
HETATM    5  N8  UNL     1       6.002   9.727  50.385  1.00  0.00    -0.166 N 
ATOM      6  H8  UNL     1       6.923   9.581  50.797  1.00  0.00     0.186 HD
HETATM    7  C4  UNL     1       5.892  10.206  49.099  1.00  0.00     0.173 A 
HETATM    8  C5  UNL     1       4.665  10.396  48.560  1.00  0.00     0.118 A 
HETATM    9  C9  UNL     1       3.520  10.088  49.352  1.00  0.00     0.300 A 
HETATM   10  O4  UNL     1       2.364  10.249  48.890  1.00  0.00    -0.264 OA
ENDROOT
BRANCH   8  11
HETATM   11  C6  UNL     1       4.385  10.890  47.226  1.00  0.00     0.127 C 
HETATM   12  N9  UNL     1       3.514  11.847  47.153  1.00  0.00    -0.225 N 
ATOM     13  H9  UNL     1       3.138  12.126  48.059  1.00  0.00     0.202 HD
BRANCH  12  14
HETATM   14  N10 UNL     1       3.028  12.516  46.168  1.00  0.00    -0.255 NA
HETATM   15  C7  UNL     1       2.510  13.230  45.120  1.00  0.00     0.388 C 
HETATM   16  O2  UNL     1       1.701  14.171  45.144  1.00  0.00    -0.617 OA
HETATM   17  O3  UNL     1       2.932  12.878  43.790  1.00  0.00    -0.617 OA
ENDBRANCH  12  14
BRANCH  11  18
HETATM   18  C8  UNL     1       4.929  10.452  45.965  1.00  0.00     0.168 A 
HETATM   19  N11 UNL     1       4.179   9.921  44.922  1.00  0.00    -0.267 N 
HETATM   20  N12 UNL     1       4.979   9.642  43.932  1.00  0.00    -0.227 N 
ATOM     21  H11 UNL     1       3.169   9.775  44.930  1.00  0.00     0.190 HD
HETATM   22  N13 UNL     1       6.230   9.953  44.245  1.00  0.00    -0.227 N 
ATOM     23  H12 UNL     1       4.686   9.241  43.042  1.00  0.00     0.210 HD
HETATM   24  N14 UNL     1       6.145  10.431  45.468  1.00  0.00    -0.267 N 
ATOM     25  H13 UNL     1       7.065   9.847  43.670  1.00  0.00     0.210 HD
ATOM     26  H14 UNL     1       6.958  10.759  45.989  1.00  0.00     0.190 HD
ENDBRANCH  11  18
ENDBRANCH   8  11
BRANCH   7  27
HETATM   27  O1  UNL     1       7.054  10.475  48.409  1.00  0.00    -0.345 OA
ATOM     28  H1  UNL     1       7.006  11.076  47.675  1.00  0.00     0.219 HD
ENDBRANCH   7  27
BRANCH   1  29
HETATM   29  N3  UNL     1       2.571   9.302  51.413  1.00  0.00    -0.225 N 
ATOM     30  H3  UNL     1       2.329   9.896  52.207  1.00  0.00     0.199 HD
BRANCH  29  31
HETATM   31  C1  UNL     1       1.872   8.245  51.153  1.00  0.00     0.084 C 
BRANCH  31  32
HETATM   32  N2  UNL     1       1.355   7.159  50.751  1.00  0.00    -0.256 N 
ATOM     33  H2  UNL     1       0.409   6.924  51.051  1.00  0.00     0.197 HD
BRANCH  32  34
HETATM   34  N1  UNL     1       2.033   6.274  49.916  1.00  0.00    -0.337 N 
ATOM     35  H12 UNL     1       2.285   6.600  48.983  1.00  0.00     0.177 HD
ATOM     36  H11 UNL     1       2.279   5.328  50.207  1.00  0.00     0.177 HD
ENDBRANCH  32  34
ENDBRANCH  31  32
ENDBRANCH  29  31
ENDBRANCH   1  29
BRANCH   3  37
HETATM   37  N6  UNL     1       6.289   8.814  52.849  1.00  0.00    -0.264 N 
ATOM     38  H6  UNL     1       6.959   9.583  52.824  1.00  0.00     0.189 HD
BRANCH  37  39
HETATM   39  C3  UNL     1       6.676   7.590  53.442  1.00  0.00     0.200 C 
HETATM   40  N7  UNL     1       6.895   6.436  52.654  1.00  0.00    -0.068 NA
HETATM   41  S1  UNL     1       6.880   7.493  55.049  1.00  0.00    -0.043 SA
ENDBRANCH  37  39
ENDBRANCH   3  37
TORSDOF 10
ENDMDL
