MODEL 1
REMARK VINA RESULT: -8.490901926      0.000      0.000
REMARK  11 active torsions:
REMARK  status: ('A' for Active; 'I' for Inactive)
REMARK    1  A    between atoms: C2_2  and  C3_3 
REMARK    2  A    between atoms: C3_3  and  C4_4 
REMARK    3  A    between atoms: C4_4  and  C5_5 
REMARK    4  A    between atoms: C5_5  and  C6_6 
REMARK    5  A    between atoms: C6_6  and  C7_7 
REMARK    6  A    between atoms: C7_7  and  C8_8 
REMARK    7  A    between atoms: C8_8  and  C9_9 
REMARK    8  A    between atoms: C9_9  and  N1_10 
REMARK       I    between atoms: N1_10  and  C10_12 
REMARK    9  A    between atoms: C10_12  and  C11_14 
REMARK   10  A    between atoms: C18_26  and  C19_27 
REMARK   11  A    between atoms: C19_27  and  O2_28 
ROOT
HETATM    1  C11 UNL     1      41.558  36.296  48.236  1.00  0.00     0.077 C 
HETATM    2  C12 UNL     1      42.112  36.403  49.600  1.00  0.00     0.112 C 
HETATM    3  C13 UNL     1      41.329  37.276  50.517  1.00  0.00     0.013 C 
HETATM    4  C14 UNL     1      40.004  37.769  49.974  1.00  0.00     0.172 C 
HETATM    5  N2  UNL     1      39.711  37.578  48.614  1.00  0.00    -0.147 NA
HETATM    6  N3  UNL     1      40.100  36.382  48.134  1.00  0.00    -0.202 NA
HETATM    7  C15 UNL     1      39.531  35.249  48.875  1.00  0.00     0.138 C 
HETATM    8  C16 UNL     1      39.926  39.257  50.332  1.00  0.00     0.237 C 
HETATM    9  N4  UNL     1      41.018  40.057  49.805  1.00  0.00    -0.060 N 
ATOM     10  H41 UNL     1      40.886  40.695  49.021  1.00  0.00     0.278 HD
ATOM     11  H42 UNL     1      41.788  39.636  49.285  1.00  0.00     0.278 HD
HETATM   12  C17 UNL     1      41.188  40.539  51.160  1.00  0.00     0.218 C 
HETATM   13  C18 UNL     1      42.618  40.499  51.709  1.00  0.00     0.060 C 
HETATM   14  C21 UNL     1      42.960  39.040  51.281  1.00  0.00     0.132 C 
HETATM   15  N5  UNL     1      41.819  38.350  51.204  1.00  0.00    -0.376 N 
HETATM   16  C22 UNL     1      40.713  39.203  51.615  1.00  0.00     0.147 C 
ENDROOT
BRANCH   1  17
HETATM   17  C10 UNL     1      42.102  35.573  47.124  1.00  0.00     0.264 C 
HETATM   18  N1  UNL     1      42.318  34.147  47.012  1.00  0.00    -0.336 N 
ATOM     19  H1  UNL     1      42.063  33.563  47.809  1.00  0.00     0.168 HD
HETATM   20  O1  UNL     1      42.437  36.208  46.045  1.00  0.00    -0.267 OA
BRANCH  18  21
HETATM   21  C9  UNL     1      42.856  33.510  45.883  1.00  0.00     0.064 C 
BRANCH  21  22
HETATM   22  C8  UNL     1      42.008  32.871  44.850  1.00  0.00     0.044 C 
BRANCH  22  23
HETATM   23  C7  UNL     1      42.167  33.713  43.584  1.00  0.00     0.005 C 
BRANCH  23  24
HETATM   24  C6  UNL     1      40.934  34.521  43.361  1.00  0.00     0.000 C 
BRANCH  24  25
HETATM   25  C5  UNL     1      40.738  34.991  41.953  1.00  0.00     0.000 C 
BRANCH  25  26
HETATM   26  C4  UNL     1      41.879  34.660  41.045  1.00  0.00     0.000 C 
BRANCH  26  27
HETATM   27  C3  UNL     1      42.552  35.928  40.519  1.00  0.00    -0.000 C 
BRANCH  27  28
HETATM   28  C2  UNL     1      43.675  36.396  41.432  1.00  0.00    -0.005 C 
HETATM   29  C1  UNL     1      44.882  35.489  41.294  1.00  0.00     0.005 C 
ENDBRANCH  27  28
ENDBRANCH  26  27
ENDBRANCH  25  26
ENDBRANCH  24  25
ENDBRANCH  23  24
ENDBRANCH  22  23
ENDBRANCH  21  22
ENDBRANCH  18  21
ENDBRANCH   1  17
BRANCH  13  30
HETATM   30  C19 UNL     1      42.438  40.622  53.193  1.00  0.00     0.175 C 
BRANCH  30  31
HETATM   31  O2  UNL     1      42.191  41.840  53.732  1.00  0.00    -0.395 OA
HETATM   32  C20 UNL     1      41.849  41.721  55.097  1.00  0.00     0.201 C 
ENDBRANCH  30  31
ENDBRANCH  13  30
TORSDOF 11
ENDMDL
MODEL 2
REMARK VINA RESULT: -8.474938616      0.921      1.135
REMARK  11 active torsions:
REMARK  status: ('A' for Active; 'I' for Inactive)
REMARK    1  A    between atoms: C2_2  and  C3_3 
REMARK    2  A    between atoms: C3_3  and  C4_4 
REMARK    3  A    between atoms: C4_4  and  C5_5 
REMARK    4  A    between atoms: C5_5  and  C6_6 
REMARK    5  A    between atoms: C6_6  and  C7_7 
REMARK    6  A    between atoms: C7_7  and  C8_8 
REMARK    7  A    between atoms: C8_8  and  C9_9 
REMARK    8  A    between atoms: C9_9  and  N1_10 
REMARK       I    between atoms: N1_10  and  C10_12 
REMARK    9  A    between atoms: C10_12  and  C11_14 
REMARK   10  A    between atoms: C18_26  and  C19_27 
REMARK   11  A    between atoms: C19_27  and  O2_28 
ROOT
HETATM    1  C11 UNL     1      40.882  35.927  48.331  1.00  0.00     0.077 C 
HETATM    2  C12 UNL     1      41.435  36.028  49.695  1.00  0.00     0.112 C 
HETATM    3  C13 UNL     1      40.886  37.151  50.503  1.00  0.00     0.013 C 
HETATM    4  C14 UNL     1      39.728  37.900  49.874  1.00  0.00     0.172 C 
HETATM    5  N2  UNL     1      39.407  37.655  48.530  1.00  0.00    -0.147 NA
HETATM    6  N3  UNL     1      39.491  36.359  48.175  1.00  0.00    -0.202 NA
HETATM    7  C15 UNL     1      38.654  35.478  49.000  1.00  0.00     0.138 C 
HETATM    8  C16 UNL     1      40.018  39.389  50.091  1.00  0.00     0.237 C 
HETATM    9  N4  UNL     1      41.279  39.840  49.526  1.00  0.00    -0.060 N 
ATOM     10  H41 UNL     1      41.315  40.412  48.683  1.00  0.00     0.278 HD
ATOM     11  H42 UNL     1      41.924  39.194  49.073  1.00  0.00     0.278 HD
HETATM   12  C17 UNL     1      41.553  40.395  50.835  1.00  0.00     0.218 C 
HETATM   13  C18 UNL     1      42.924  40.058  51.431  1.00  0.00     0.060 C 
HETATM   14  C21 UNL     1      42.897  38.526  51.150  1.00  0.00     0.132 C 
HETATM   15  N5  UNL     1      41.622  38.133  51.102  1.00  0.00    -0.376 N 
HETATM   16  C22 UNL     1      40.758  39.268  51.397  1.00  0.00     0.147 C 
ENDROOT
BRANCH   1  17
HETATM   17  C10 UNL     1      41.238  34.988  47.308  1.00  0.00     0.264 C 
HETATM   18  N1  UNL     1      42.421  34.158  47.236  1.00  0.00    -0.336 N 
ATOM     19  H1  UNL     1      43.101  34.234  47.992  1.00  0.00     0.168 HD
HETATM   20  O1  UNL     1      40.435  34.789  46.309  1.00  0.00    -0.267 OA
BRANCH  18  21
HETATM   21  C9  UNL     1      42.699  33.257  46.197  1.00  0.00     0.064 C 
BRANCH  21  22
HETATM   22  C8  UNL     1      43.718  33.529  45.157  1.00  0.00     0.044 C 
BRANCH  22  23
HETATM   23  C7  UNL     1      42.991  33.454  43.814  1.00  0.00     0.005 C 
BRANCH  23  24
HETATM   24  C6  UNL     1      42.430  34.792  43.471  1.00  0.00     0.000 C 
BRANCH  24  25
HETATM   25  C5  UNL     1      41.086  34.760  42.812  1.00  0.00     0.000 C 
BRANCH  25  26
HETATM   26  C4  UNL     1      41.138  34.966  41.333  1.00  0.00     0.000 C 
BRANCH  26  27
HETATM   27  C3  UNL     1      42.398  35.734  40.926  1.00  0.00    -0.000 C 
BRANCH  27  28
HETATM   28  C2  UNL     1      43.278  34.923  39.987  1.00  0.00    -0.005 C 
HETATM   29  C1  UNL     1      42.544  33.684  39.513  1.00  0.00     0.005 C 
ENDBRANCH  27  28
ENDBRANCH  26  27
ENDBRANCH  25  26
ENDBRANCH  24  25
ENDBRANCH  23  24
ENDBRANCH  22  23
ENDBRANCH  21  22
ENDBRANCH  18  21
ENDBRANCH   1  17
BRANCH  13  30
HETATM   30  C19 UNL     1      42.769  40.366  52.890  1.00  0.00     0.175 C 
BRANCH  30  31
HETATM   31  O2  UNL     1      42.418  41.618  53.271  1.00  0.00    -0.395 OA
HETATM   32  C20 UNL     1      41.742  41.592  54.510  1.00  0.00     0.201 C 
ENDBRANCH  30  31
ENDBRANCH  13  30
TORSDOF 11
ENDMDL
MODEL 3
REMARK VINA RESULT: -8.461363889      1.084      1.592
REMARK  11 active torsions:
REMARK  status: ('A' for Active; 'I' for Inactive)
REMARK    1  A    between atoms: C2_2  and  C3_3 
REMARK    2  A    between atoms: C3_3  and  C4_4 
REMARK    3  A    between atoms: C4_4  and  C5_5 
REMARK    4  A    between atoms: C5_5  and  C6_6 
REMARK    5  A    between atoms: C6_6  and  C7_7 
REMARK    6  A    between atoms: C7_7  and  C8_8 
REMARK    7  A    between atoms: C8_8  and  C9_9 
REMARK    8  A    between atoms: C9_9  and  N1_10 
REMARK       I    between atoms: N1_10  and  C10_12 
REMARK    9  A    between atoms: C10_12  and  C11_14 
REMARK   10  A    between atoms: C18_26  and  C19_27 
REMARK   11  A    between atoms: C19_27  and  O2_28 
ROOT
HETATM    1  C11 UNL     1      40.914  35.799  48.224  1.00  0.00     0.077 C 
HETATM    2  C12 UNL     1      41.471  35.909  49.586  1.00  0.00     0.112 C 
HETATM    3  C13 UNL     1      40.887  37.006  50.406  1.00  0.00     0.013 C 
HETATM    4  C14 UNL     1      39.700  37.716  49.790  1.00  0.00     0.172 C 
HETATM    5  N2  UNL     1      39.379  37.471  48.446  1.00  0.00    -0.147 NA
HETATM    6  N3  UNL     1      39.507  36.181  48.081  1.00  0.00    -0.202 NA
HETATM    7  C15 UNL     1      38.707  35.265  48.903  1.00  0.00     0.138 C 
HETATM    8  C16 UNL     1      39.937  39.213  50.017  1.00  0.00     0.237 C 
HETATM    9  N4  UNL     1      41.177  39.714  49.448  1.00  0.00    -0.060 N 
ATOM     10  H41 UNL     1      41.187  40.293  48.609  1.00  0.00     0.278 HD
ATOM     11  H42 UNL     1      41.843  39.095  48.985  1.00  0.00     0.278 HD
HETATM   12  C17 UNL     1      41.440  40.269  50.760  1.00  0.00     0.218 C 
HETATM   13  C18 UNL     1      42.826  39.977  51.344  1.00  0.00     0.060 C 
HETATM   14  C21 UNL     1      42.852  38.446  51.051  1.00  0.00     0.132 C 
HETATM   15  N5  UNL     1      41.591  38.008  51.008  1.00  0.00    -0.376 N 
HETATM   16  C22 UNL     1      40.689  39.109  51.318  1.00  0.00     0.147 C 
ENDROOT
BRANCH   1  17
HETATM   17  C10 UNL     1      41.296  34.881  47.192  1.00  0.00     0.264 C 
HETATM   18  N1  UNL     1      42.414  33.962  47.189  1.00  0.00    -0.336 N 
ATOM     19  H1  UNL     1      43.019  33.948  48.010  1.00  0.00     0.168 HD
HETATM   20  O1  UNL     1      40.584  34.793  46.112  1.00  0.00    -0.267 OA
BRANCH  18  21
HETATM   21  C9  UNL     1      42.724  33.088  46.135  1.00  0.00     0.064 C 
BRANCH  21  22
HETATM   22  C8  UNL     1      43.964  33.214  45.336  1.00  0.00     0.044 C 
BRANCH  22  23
HETATM   23  C7  UNL     1      43.564  33.898  44.029  1.00  0.00     0.005 C 
BRANCH  23  24
HETATM   24  C6  UNL     1      44.738  33.955  43.112  1.00  0.00     0.000 C 
BRANCH  24  25
HETATM   25  C5  UNL     1      44.671  35.031  42.072  1.00  0.00     0.000 C 
BRANCH  25  26
HETATM   26  C4  UNL     1      43.354  35.735  42.022  1.00  0.00     0.000 C 
BRANCH  26  27
HETATM   27  C3  UNL     1      42.777  35.728  40.605  1.00  0.00    -0.000 C 
BRANCH  27  28
HETATM   28  C2  UNL     1      42.320  34.340  40.185  1.00  0.00    -0.005 C 
HETATM   29  C1  UNL     1      42.997  33.929  38.892  1.00  0.00     0.005 C 
ENDBRANCH  27  28
ENDBRANCH  26  27
ENDBRANCH  25  26
ENDBRANCH  24  25
ENDBRANCH  23  24
ENDBRANCH  22  23
ENDBRANCH  21  22
ENDBRANCH  18  21
ENDBRANCH   1  17
BRANCH  13  30
HETATM   30  C19 UNL     1      42.669  40.267  52.807  1.00  0.00     0.175 C 
BRANCH  30  31
HETATM   31  O2  UNL     1      42.372  41.528  53.204  1.00  0.00    -0.395 OA
HETATM   32  C20 UNL     1      41.636  41.510  54.409  1.00  0.00     0.201 C 
ENDBRANCH  30  31
ENDBRANCH  13  30
TORSDOF 11
ENDMDL
MODEL 4
REMARK VINA RESULT: -8.457602623      0.833      1.557
REMARK  11 active torsions:
REMARK  status: ('A' for Active; 'I' for Inactive)
REMARK    1  A    between atoms: C2_2  and  C3_3 
REMARK    2  A    between atoms: C3_3  and  C4_4 
REMARK    3  A    between atoms: C4_4  and  C5_5 
REMARK    4  A    between atoms: C5_5  and  C6_6 
REMARK    5  A    between atoms: C6_6  and  C7_7 
REMARK    6  A    between atoms: C7_7  and  C8_8 
REMARK    7  A    between atoms: C8_8  and  C9_9 
REMARK    8  A    between atoms: C9_9  and  N1_10 
REMARK       I    between atoms: N1_10  and  C10_12 
REMARK    9  A    between atoms: C10_12  and  C11_14 
REMARK   10  A    between atoms: C18_26  and  C19_27 
REMARK   11  A    between atoms: C19_27  and  O2_28 
ROOT
HETATM    1  C11 UNL     1      41.572  36.349  48.253  1.00  0.00     0.077 C 
HETATM    2  C12 UNL     1      42.129  36.555  49.604  1.00  0.00     0.112 C 
HETATM    3  C13 UNL     1      41.304  37.426  50.485  1.00  0.00     0.013 C 
HETATM    4  C14 UNL     1      39.949  37.815  49.932  1.00  0.00     0.172 C 
HETATM    5  N2  UNL     1      39.657  37.542  48.586  1.00  0.00    -0.147 NA
HETATM    6  N3  UNL     1      40.110  36.347  48.161  1.00  0.00    -0.202 NA
HETATM    7  C15 UNL     1      39.613  35.221  48.962  1.00  0.00     0.138 C 
HETATM    8  C16 UNL     1      39.788  39.312  50.218  1.00  0.00     0.237 C 
HETATM    9  N4  UNL     1      40.829  40.146  49.642  1.00  0.00    -0.060 N 
ATOM     10  H41 UNL     1      40.655  40.736  48.829  1.00  0.00     0.278 HD
ATOM     11  H42 UNL     1      41.618  39.744  49.136  1.00  0.00     0.278 HD
HETATM   12  C17 UNL     1      40.981  40.703  50.970  1.00  0.00     0.218 C 
HETATM   13  C18 UNL     1      42.415  40.771  51.506  1.00  0.00     0.060 C 
HETATM   14  C21 UNL     1      42.837  39.315  51.145  1.00  0.00     0.132 C 
HETATM   15  N5  UNL     1      41.737  38.558  51.114  1.00  0.00    -0.376 N 
HETATM   16  C22 UNL     1      40.586  39.366  51.494  1.00  0.00     0.147 C 
ENDROOT
BRANCH   1  17
HETATM   17  C10 UNL     1      42.148  35.604  47.172  1.00  0.00     0.264 C 
HETATM   18  N1  UNL     1      42.439  34.188  47.124  1.00  0.00    -0.336 N 
ATOM     19  H1  UNL     1      42.219  33.630  47.950  1.00  0.00     0.168 HD
HETATM   20  O1  UNL     1      42.444  36.205  46.061  1.00  0.00    -0.267 OA
BRANCH  18  21
HETATM   21  C9  UNL     1      43.005  33.528  46.022  1.00  0.00     0.064 C 
BRANCH  21  22
HETATM   22  C8  UNL     1      42.183  32.855  44.989  1.00  0.00     0.044 C 
BRANCH  22  23
HETATM   23  C7  UNL     1      43.082  32.697  43.763  1.00  0.00     0.005 C 
BRANCH  23  24
HETATM   24  C6  UNL     1      44.169  33.716  43.803  1.00  0.00     0.000 C 
BRANCH  24  25
HETATM   25  C5  UNL     1      44.254  34.589  42.589  1.00  0.00     0.000 C 
BRANCH  25  26
HETATM   26  C4  UNL     1      43.171  35.616  42.512  1.00  0.00     0.000 C 
BRANCH  26  27
HETATM   27  C3  UNL     1      42.479  35.587  41.147  1.00  0.00    -0.000 C 
BRANCH  27  28
HETATM   28  C2  UNL     1      41.278  34.653  41.140  1.00  0.00    -0.005 C 
HETATM   29  C1  UNL     1      40.406  34.903  42.354  1.00  0.00     0.005 C 
ENDBRANCH  27  28
ENDBRANCH  26  27
ENDBRANCH  25  26
ENDBRANCH  24  25
ENDBRANCH  23  24
ENDBRANCH  22  23
ENDBRANCH  21  22
ENDBRANCH  18  21
ENDBRANCH   1  17
BRANCH  13  30
HETATM   30  C19 UNL     1      42.239  40.956  52.983  1.00  0.00     0.175 C 
BRANCH  30  31
HETATM   31  O2  UNL     1      41.765  42.136  53.452  1.00  0.00    -0.395 OA
HETATM   32  C20 UNL     1      42.546  43.212  52.975  1.00  0.00     0.201 C 
ENDBRANCH  30  31
ENDBRANCH  13  30
TORSDOF 11
ENDMDL
MODEL 5
REMARK VINA RESULT: -8.094656686      4.776      8.501
REMARK  11 active torsions:
REMARK  status: ('A' for Active; 'I' for Inactive)
REMARK    1  A    between atoms: C2_2  and  C3_3 
REMARK    2  A    between atoms: C3_3  and  C4_4 
REMARK    3  A    between atoms: C4_4  and  C5_5 
REMARK    4  A    between atoms: C5_5  and  C6_6 
REMARK    5  A    between atoms: C6_6  and  C7_7 
REMARK    6  A    between atoms: C7_7  and  C8_8 
REMARK    7  A    between atoms: C8_8  and  C9_9 
REMARK    8  A    between atoms: C9_9  and  N1_10 
REMARK       I    between atoms: N1_10  and  C10_12 
REMARK    9  A    between atoms: C10_12  and  C11_14 
REMARK   10  A    between atoms: C18_26  and  C19_27 
REMARK   11  A    between atoms: C19_27  and  O2_28 
ROOT
HETATM    1  C11 UNL     1      42.806  30.855  40.934  1.00  0.00     0.077 C 
HETATM    2  C12 UNL     1      43.552  31.319  42.119  1.00  0.00     0.112 C 
HETATM    3  C13 UNL     1      42.699  31.688  43.281  1.00  0.00     0.013 C 
HETATM    4  C14 UNL     1      41.226  31.363  43.137  1.00  0.00     0.172 C 
HETATM    5  N2  UNL     1      40.735  30.967  41.883  1.00  0.00    -0.147 NA
HETATM    6  N3  UNL     1      41.557  30.140  41.210  1.00  0.00    -0.202 NA
HETATM    7  C15 UNL     1      41.893  28.923  41.960  1.00  0.00     0.138 C 
HETATM    8  C16 UNL     1      40.469  32.595  43.643  1.00  0.00     0.237 C 
HETATM    9  N4  UNL     1      40.787  33.824  42.935  1.00  0.00    -0.060 N 
ATOM     10  H41 UNL     1      40.137  34.246  42.274  1.00  0.00     0.278 HD
ATOM     11  H42 UNL     1      41.495  33.852  42.202  1.00  0.00     0.278 HD
HETATM   12  C17 UNL     1      41.024  34.399  44.243  1.00  0.00     0.218 C 
HETATM   13  C18 UNL     1      42.342  35.162  44.410  1.00  0.00     0.060 C 
HETATM   14  C21 UNL     1      43.279  34.091  43.773  1.00  0.00     0.132 C 
HETATM   15  N5  UNL     1      42.705  32.894  43.921  1.00  0.00    -0.376 N 
HETATM   16  C22 UNL     1      41.468  33.044  44.675  1.00  0.00     0.147 C 
ENDROOT
BRANCH   1  17
HETATM   17  C10 UNL     1      43.335  30.473  39.658  1.00  0.00     0.264 C 
HETATM   18  N1  UNL     1      44.723  30.292  39.290  1.00  0.00    -0.336 N 
ATOM     19  H1  UNL     1      45.429  30.451  40.008  1.00  0.00     0.168 HD
HETATM   20  O1  UNL     1      42.528  30.219  38.675  1.00  0.00    -0.267 OA
BRANCH  18  21
HETATM   21  C9  UNL     1      45.164  29.913  38.013  1.00  0.00     0.064 C 
BRANCH  21  22
HETATM   22  C8  UNL     1      46.565  30.099  37.566  1.00  0.00     0.044 C 
BRANCH  22  23
HETATM   23  C7  UNL     1      47.308  30.733  38.742  1.00  0.00     0.005 C 
BRANCH  23  24
HETATM   24  C6  UNL     1      47.480  32.194  38.498  1.00  0.00     0.000 C 
BRANCH  24  25
HETATM   25  C5  UNL     1      46.798  33.081  39.494  1.00  0.00     0.000 C 
BRANCH  25  26
HETATM   26  C4  UNL     1      45.561  33.733  38.967  1.00  0.00     0.000 C 
BRANCH  26  27
HETATM   27  C3  UNL     1      44.748  34.369  40.096  1.00  0.00    -0.000 C 
BRANCH  27  28
HETATM   28  C2  UNL     1      43.262  34.413  39.771  1.00  0.00    -0.005 C 
HETATM   29  C1  UNL     1      42.998  33.775  38.422  1.00  0.00     0.005 C 
ENDBRANCH  27  28
ENDBRANCH  26  27
ENDBRANCH  25  26
ENDBRANCH  24  25
ENDBRANCH  23  24
ENDBRANCH  22  23
ENDBRANCH  21  22
ENDBRANCH  18  21
ENDBRANCH   1  17
BRANCH  13  30
HETATM   30  C19 UNL     1      42.521  35.254  45.896  1.00  0.00     0.175 C 
BRANCH  30  31
HETATM   31  O2  UNL     1      42.234  36.417  46.527  1.00  0.00    -0.395 OA
HETATM   32  C20 UNL     1      42.013  36.196  47.904  1.00  0.00     0.201 C 
ENDBRANCH  30  31
ENDBRANCH  13  30
TORSDOF 11
ENDMDL
