MODEL 1
REMARK VINA RESULT: -6.345001053      0.000      0.000
REMARK  5 active torsions:
REMARK  status: ('A' for Active; 'I' for Inactive)
REMARK    1  A    between atoms: N1_1  and  N2_4 
REMARK       I    between atoms: N2_4  and  C1_6 
REMARK    2  A    between atoms: C1_6  and  C2_8 
REMARK    3  A    between atoms: C5_13  and  C6_14 
REMARK    4  A    between atoms: N4_15  and  N5_17 
REMARK    5  A    between atoms: N5_17  and  C7_19 
ROOT
HETATM    1  C2  UNL     1      -2.069  -8.730   2.100  1.00  0.00     0.061 A 
HETATM    2  C3  UNL     1      -3.224  -8.698   2.854  1.00  0.00     0.105 A 
HETATM    3  N3  UNL     1      -2.904  -8.736   4.129  1.00  0.00    -0.373 N 
ATOM      4  H3  UNL     1      -3.578  -8.722   4.895  1.00  0.00     0.164 HD
HETATM    5  C4  UNL     1      -1.561  -8.795   4.289  1.00  0.00     0.101 A 
HETATM    6  C5  UNL     1      -1.019  -8.796   3.027  1.00  0.00     0.013 A 
ENDROOT
BRANCH   6   7
HETATM    7  C6  UNL     1       0.391  -8.896   2.666  1.00  0.00     0.121 C 
HETATM    8  N4  UNL     1       1.187  -7.935   2.666  1.00  0.00    -0.297 N 
ATOM      9  H4  UNL     1       2.129  -8.200   2.377  1.00  0.00     0.186 HD
BRANCH   8  10
HETATM   10  N5  UNL     1       1.080  -6.624   2.962  1.00  0.00    -0.130 N 
ATOM     11  H5  UNL     1       1.570  -6.287   3.791  1.00  0.00     0.205 HD
BRANCH  10  12
HETATM   12  C7  UNL     1       0.407  -5.767   2.281  1.00  0.00     0.722 A 
HETATM   13  N6  UNL     1      -0.779  -5.236   2.583  1.00  0.00    -0.115 N 
HETATM   14  N7  UNL     1      -1.068  -4.403   1.574  1.00  0.00     0.006 NA
ATOM     15  H6  UNL     1      -1.348  -5.425   3.408  1.00  0.00     0.202 HD
HETATM   16  N8  UNL     1      -0.108  -4.402   0.667  1.00  0.00     0.006 NA
HETATM   17  N9  UNL     1       0.811  -5.252   1.111  1.00  0.00    -0.115 N 
ATOM     18  H9  UNL     1       1.685  -5.477   0.637  1.00  0.00     0.202 HD
ENDBRANCH  10  12
ENDBRANCH   8  10
ENDBRANCH   6   7
BRANCH   1  19
HETATM   19  C1  UNL     1      -1.979  -8.614   0.654  1.00  0.00     0.271 C 
HETATM   20  N2  UNL     1      -1.583  -7.394   0.016  1.00  0.00    -0.272 N 
ATOM     21  H2  UNL     1      -1.360  -6.588   0.600  1.00  0.00     0.189 HD
HETATM   22  O1  UNL     1      -2.271  -9.636  -0.062  1.00  0.00    -0.266 OA
BRANCH  20  23
HETATM   23  N1  UNL     1      -1.492  -7.263  -1.338  1.00  0.00    -0.342 N 
ATOM     24  H12 UNL     1      -2.103  -7.847  -1.910  1.00  0.00     0.176 HD
ATOM     25  H11 UNL     1      -0.846  -6.615  -1.788  1.00  0.00     0.176 HD
ENDBRANCH  20  23
ENDBRANCH   1  19
TORSDOF 5
ENDMDL
MODEL 2
REMARK VINA RESULT: -6.329160053      2.020      3.422
REMARK  5 active torsions:
REMARK  status: ('A' for Active; 'I' for Inactive)
REMARK    1  A    between atoms: N1_1  and  N2_4 
REMARK       I    between atoms: N2_4  and  C1_6 
REMARK    2  A    between atoms: C1_6  and  C2_8 
REMARK    3  A    between atoms: C5_13  and  C6_14 
REMARK    4  A    between atoms: N4_15  and  N5_17 
REMARK    5  A    between atoms: N5_17  and  C7_19 
ROOT
HETATM    1  C2  UNL     1      -0.410  -8.707   2.951  1.00  0.00     0.061 A 
HETATM    2  C3  UNL     1       0.288  -9.844   2.596  1.00  0.00     0.105 A 
HETATM    3  N3  UNL     1      -0.564 -10.762   2.197  1.00  0.00    -0.373 N 
ATOM      4  H3  UNL     1      -0.302 -11.695   1.880  1.00  0.00     0.164 HD
HETATM    5  C4  UNL     1      -1.837 -10.303   2.265  1.00  0.00     0.101 A 
HETATM    6  C5  UNL     1      -1.761  -9.017   2.740  1.00  0.00     0.013 A 
ENDROOT
BRANCH   6   7
HETATM    7  C6  UNL     1      -2.867  -8.112   3.033  1.00  0.00     0.121 C 
HETATM    8  N4  UNL     1      -3.144  -7.098   2.361  1.00  0.00    -0.297 N 
ATOM      9  H4  UNL     1      -3.948  -6.587   2.727  1.00  0.00     0.186 HD
BRANCH   8  10
HETATM   10  N5  UNL     1      -2.617  -6.526   1.260  1.00  0.00    -0.130 N 
ATOM     11  H5  UNL     1      -2.991  -6.812   0.355  1.00  0.00     0.205 HD
BRANCH  10  12
HETATM   12  C7  UNL     1      -1.679  -5.647   1.262  1.00  0.00     0.722 A 
HETATM   13  N6  UNL     1      -0.737  -5.458   0.337  1.00  0.00    -0.115 N 
HETATM   14  N7  UNL     1       0.004  -4.435   0.782  1.00  0.00     0.006 NA
ATOM     15  H6  UNL     1      -0.608  -5.982  -0.529  1.00  0.00     0.202 HD
HETATM   16  N8  UNL     1      -0.444  -3.990   1.942  1.00  0.00     0.006 NA
HETATM   17  N9  UNL     1      -1.494  -4.747   2.238  1.00  0.00    -0.115 N 
ATOM     18  H9  UNL     1      -2.070  -4.656   3.075  1.00  0.00     0.202 HD
ENDBRANCH  10  12
ENDBRANCH   8  10
ENDBRANCH   6   7
BRANCH   1  19
HETATM   19  C1  UNL     1       0.163  -7.434   3.358  1.00  0.00     0.271 C 
HETATM   20  N2  UNL     1       1.292  -6.864   2.686  1.00  0.00    -0.272 N 
ATOM     21  H2  UNL     1       1.700  -7.371   1.902  1.00  0.00     0.189 HD
HETATM   22  O1  UNL     1      -0.361  -6.817   4.351  1.00  0.00    -0.266 OA
BRANCH  20  23
HETATM   23  N1  UNL     1       1.844  -5.672   3.051  1.00  0.00    -0.342 N 
ATOM     24  H12 UNL     1       1.351  -5.118   3.752  1.00  0.00     0.176 HD
ATOM     25  H11 UNL     1       2.716  -5.322   2.654  1.00  0.00     0.176 HD
ENDBRANCH  20  23
ENDBRANCH   1  19
TORSDOF 5
ENDMDL
MODEL 3
REMARK VINA RESULT: -6.274973459      2.237      3.003
REMARK  5 active torsions:
REMARK  status: ('A' for Active; 'I' for Inactive)
REMARK    1  A    between atoms: N1_1  and  N2_4 
REMARK       I    between atoms: N2_4  and  C1_6 
REMARK    2  A    between atoms: C1_6  and  C2_8 
REMARK    3  A    between atoms: C5_13  and  C6_14 
REMARK    4  A    between atoms: N4_15  and  N5_17 
REMARK    5  A    between atoms: N5_17  and  C7_19 
ROOT
HETATM    1  C2  UNL     1      -2.367  -9.990   1.918  1.00  0.00     0.061 A 
HETATM    2  C3  UNL     1      -1.300 -10.798   2.255  1.00  0.00     0.105 A 
HETATM    3  N3  UNL     1      -0.836 -10.427   3.428  1.00  0.00    -0.373 N 
ATOM      4  H3  UNL     1      -0.048 -10.866   3.903  1.00  0.00     0.164 HD
HETATM    5  C4  UNL     1      -1.545  -9.382   3.921  1.00  0.00     0.101 A 
HETATM    6  C5  UNL     1      -2.508  -9.092   2.985  1.00  0.00     0.013 A 
ENDROOT
BRANCH   6   7
HETATM    7  C6  UNL     1      -3.493  -8.016   3.030  1.00  0.00     0.121 C 
HETATM    8  N4  UNL     1      -3.289  -6.857   2.617  1.00  0.00    -0.297 N 
ATOM      9  H4  UNL     1      -4.096  -6.244   2.741  1.00  0.00     0.186 HD
BRANCH   8  10
HETATM   10  N5  UNL     1      -2.240  -6.233   2.043  1.00  0.00    -0.130 N 
ATOM     11  H5  UNL     1      -2.112  -6.354   1.039  1.00  0.00     0.205 HD
BRANCH  10  12
HETATM   12  C7  UNL     1      -1.390  -5.498   2.666  1.00  0.00     0.722 A 
HETATM   13  N6  UNL     1      -1.111  -4.211   2.449  1.00  0.00    -0.115 N 
HETATM   14  N7  UNL     1      -0.164  -3.893   3.341  1.00  0.00     0.006 NA
ATOM     15  H6  UNL     1      -1.530  -3.599   1.749  1.00  0.00     0.202 HD
HETATM   16  N8  UNL     1       0.149  -4.930   4.096  1.00  0.00     0.006 NA
HETATM   17  N9  UNL     1      -0.618  -5.929   3.674  1.00  0.00    -0.115 N 
ATOM     18  H9  UNL     1      -0.620  -6.875   4.056  1.00  0.00     0.202 HD
ENDBRANCH  10  12
ENDBRANCH   8  10
ENDBRANCH   6   7
BRANCH   1  19
HETATM   19  C1  UNL     1      -3.217 -10.127   0.747  1.00  0.00     0.271 C 
HETATM   20  N2  UNL     1      -4.506 -10.747   0.815  1.00  0.00    -0.272 N 
ATOM     21  H2  UNL     1      -4.830 -11.101   1.715  1.00  0.00     0.189 HD
HETATM   22  O1  UNL     1      -2.788  -9.683  -0.376  1.00  0.00    -0.266 OA
BRANCH  20  23
HETATM   23  N1  UNL     1      -5.318 -10.885  -0.270  1.00  0.00    -0.342 N 
ATOM     24  H12 UNL     1      -5.633 -10.034  -0.736  1.00  0.00     0.176 HD
ATOM     25  H11 UNL     1      -5.616 -11.794  -0.626  1.00  0.00     0.176 HD
ENDBRANCH  20  23
ENDBRANCH   1  19
TORSDOF 5
ENDMDL
MODEL 4
REMARK VINA RESULT: -6.207989814      2.239      4.498
REMARK  5 active torsions:
REMARK  status: ('A' for Active; 'I' for Inactive)
REMARK    1  A    between atoms: N1_1  and  N2_4 
REMARK       I    between atoms: N2_4  and  C1_6 
REMARK    2  A    between atoms: C1_6  and  C2_8 
REMARK    3  A    between atoms: C5_13  and  C6_14 
REMARK    4  A    between atoms: N4_15  and  N5_17 
REMARK    5  A    between atoms: N5_17  and  C7_19 
ROOT
HETATM    1  C2  UNL     1       0.696  -6.865   3.079  1.00  0.00     0.061 A 
HETATM    2  C3  UNL     1       1.857  -7.006   2.346  1.00  0.00     0.105 A 
HETATM    3  N3  UNL     1       2.108  -8.287   2.184  1.00  0.00    -0.373 N 
ATOM      4  H3  UNL     1       2.910  -8.659   1.676  1.00  0.00     0.164 HD
HETATM    5  C4  UNL     1       1.159  -9.046   2.784  1.00  0.00     0.101 A 
HETATM    6  C5  UNL     1       0.267  -8.171   3.354  1.00  0.00     0.013 A 
ENDROOT
BRANCH   6   7
HETATM    7  C6  UNL     1      -0.909  -8.498   4.154  1.00  0.00     0.121 C 
HETATM    8  N4  UNL     1      -2.086  -8.333   3.775  1.00  0.00    -0.297 N 
ATOM      9  H4  UNL     1      -2.771  -8.614   4.477  1.00  0.00     0.186 HD
BRANCH   8  10
HETATM   10  N5  UNL     1      -2.655  -7.867   2.645  1.00  0.00    -0.130 N 
ATOM     11  H5  UNL     1      -3.156  -6.981   2.700  1.00  0.00     0.205 HD
BRANCH  10  12
HETATM   12  C7  UNL     1      -2.613  -8.454   1.502  1.00  0.00     0.722 A 
HETATM   13  N6  UNL     1      -3.055  -9.676   1.198  1.00  0.00    -0.115 N 
HETATM   14  N7  UNL     1      -2.790  -9.840  -0.105  1.00  0.00     0.006 NA
ATOM     15  H6  UNL     1      -3.501 -10.345   1.825  1.00  0.00     0.202 HD
HETATM   16  N8  UNL     1      -2.204  -8.770  -0.611  1.00  0.00     0.006 NA
HETATM   17  N9  UNL     1      -2.096  -7.907   0.393  1.00  0.00    -0.115 N 
ATOM     18  H9  UNL     1      -1.686  -6.976   0.330  1.00  0.00     0.202 HD
ENDBRANCH  10  12
ENDBRANCH   8  10
ENDBRANCH   6   7
BRANCH   1  19
HETATM   19  C1  UNL     1       0.023  -5.616   3.397  1.00  0.00     0.271 C 
HETATM   20  N2  UNL     1      -0.908  -5.008   2.495  1.00  0.00    -0.272 N 
ATOM     21  H2  UNL     1      -1.100  -5.470   1.607  1.00  0.00     0.189 HD
HETATM   22  O1  UNL     1       0.285  -5.048   4.516  1.00  0.00    -0.266 OA
BRANCH  20  23
HETATM   23  N1  UNL     1      -1.550  -3.838   2.774  1.00  0.00    -0.342 N 
ATOM     24  H12 UNL     1      -2.040  -3.770   3.667  1.00  0.00     0.176 HD
ATOM     25  H11 UNL     1      -1.556  -3.044   2.133  1.00  0.00     0.176 HD
ENDBRANCH  20  23
ENDBRANCH   1  19
TORSDOF 5
ENDMDL
MODEL 5
REMARK VINA RESULT: -6.165481242      1.971      4.259
REMARK  5 active torsions:
REMARK  status: ('A' for Active; 'I' for Inactive)
REMARK    1  A    between atoms: N1_1  and  N2_4 
REMARK       I    between atoms: N2_4  and  C1_6 
REMARK    2  A    between atoms: C1_6  and  C2_8 
REMARK    3  A    between atoms: C5_13  and  C6_14 
REMARK    4  A    between atoms: N4_15  and  N5_17 
REMARK    5  A    between atoms: N5_17  and  C7_19 
ROOT
HETATM    1  C2  UNL     1       0.428  -7.656   3.039  1.00  0.00     0.061 A 
HETATM    2  C3  UNL     1       1.536  -8.468   2.906  1.00  0.00     0.105 A 
HETATM    3  N3  UNL     1       2.479  -7.804   2.275  1.00  0.00    -0.373 N 
ATOM      4  H3  UNL     1       3.400  -8.181   2.051  1.00  0.00     0.164 HD
HETATM    5  C4  UNL     1       2.064  -6.553   1.961  1.00  0.00     0.101 A 
HETATM    6  C5  UNL     1       0.777  -6.444   2.430  1.00  0.00     0.013 A 
ENDROOT
BRANCH   6   7
HETATM    7  C6  UNL     1      -0.122  -5.302   2.296  1.00  0.00     0.121 C 
HETATM    8  N4  UNL     1      -0.861  -5.099   1.312  1.00  0.00    -0.297 N 
ATOM      9  H4  UNL     1      -1.411  -4.244   1.399  1.00  0.00     0.186 HD
BRANCH   8  10
HETATM   10  N5  UNL     1      -1.096  -5.759   0.160  1.00  0.00    -0.130 N 
ATOM     11  H5  UNL     1      -0.641  -5.411  -0.684  1.00  0.00     0.205 HD
BRANCH  10  12
HETATM   12  C7  UNL     1      -1.851  -6.793   0.043  1.00  0.00     0.722 A 
HETATM   13  N6  UNL     1      -3.159  -6.879   0.293  1.00  0.00    -0.115 N 
HETATM   14  N7  UNL     1      -3.492  -8.150   0.028  1.00  0.00     0.006 NA
ATOM     15  H6  UNL     1      -3.776  -6.135   0.617  1.00  0.00     0.202 HD
HETATM   16  N8  UNL     1      -2.443  -8.845  -0.373  1.00  0.00     0.006 NA
HETATM   17  N9  UNL     1      -1.422  -7.995  -0.364  1.00  0.00    -0.115 N 
ATOM     18  H9  UNL     1      -0.463  -8.223  -0.625  1.00  0.00     0.202 HD
ENDBRANCH  10  12
ENDBRANCH   8  10
ENDBRANCH   6   7
BRANCH   1  19
HETATM   19  C1  UNL     1      -0.796  -7.977   3.756  1.00  0.00     0.271 C 
HETATM   20  N2  UNL     1      -2.032  -8.214   3.074  1.00  0.00    -0.272 N 
ATOM     21  H2  UNL     1      -2.048  -8.154   2.057  1.00  0.00     0.189 HD
HETATM   22  O1  UNL     1      -0.757  -8.039   5.036  1.00  0.00    -0.266 OA
BRANCH  20  23
HETATM   23  N1  UNL     1      -3.190  -8.516   3.728  1.00  0.00    -0.342 N 
ATOM     24  H12 UNL     1      -3.299  -9.467   4.080  1.00  0.00     0.176 HD
ATOM     25  H11 UNL     1      -3.937  -7.835   3.873  1.00  0.00     0.176 HD
ENDBRANCH  20  23
ENDBRANCH   1  19
TORSDOF 5
ENDMDL
