MODEL 1
REMARK VINA RESULT: -7.078088373      0.000      0.000
REMARK  2 active torsions:
REMARK  status: ('A' for Active; 'I' for Inactive)
REMARK       I    between atoms: N1_1  and  C1_5 
REMARK       I    between atoms: C1_5  and  N2_6 
REMARK       I    between atoms: C1_5  and  N3_10 
REMARK    1  A    between atoms: N3_10  and  N4_11 
REMARK    2  A    between atoms: N3_10  and  C2_14 
ROOT
HETATM    1  C2  UNL     1      -1.173  -6.362   0.886  1.00  0.00     0.126 A 
HETATM    2  C3  UNL     1      -1.627  -5.228   1.494  1.00  0.00     0.052 A 
HETATM    3  C4  UNL     1      -0.881  -4.478   2.374  1.00  0.00     0.036 A 
HETATM    4  C5  UNL     1       0.412  -4.917   2.647  1.00  0.00     0.069 A 
HETATM    5  N5  UNL     1       1.207  -4.249   3.495  1.00  0.00    -0.306 N 
ATOM      6  H5  UNL     1       0.878  -3.400   3.955  1.00  0.00     0.171 HD
HETATM    7  C6  UNL     1       2.464  -4.722   3.730  1.00  0.00     0.327 A 
HETATM    8  O1  UNL     1       3.196  -4.080   4.530  1.00  0.00    -0.247 OA
HETATM    9  N6  UNL     1       2.937  -5.831   3.147  1.00  0.00    -0.274 N 
ATOM     10  H6  UNL     1       3.884  -6.151   3.351  1.00  0.00     0.173 HD
HETATM   11  C7  UNL     1       2.163  -6.526   2.290  1.00  0.00     0.278 A 
HETATM   12  O2  UNL     1       2.570  -7.575   1.723  1.00  0.00    -0.265 OA
HETATM   13  C8  UNL     1       0.872  -6.058   2.036  1.00  0.00     0.130 A 
HETATM   14  N7  UNL     1       0.082  -6.762   1.171  1.00  0.00    -0.335 N 
ATOM     15  H7  UNL     1       0.450  -7.606   0.733  1.00  0.00     0.168 HD
ENDROOT
BRANCH   1  16
HETATM   16  N3  UNL     1      -1.916  -7.155  -0.022  1.00  0.00    -0.228 N 
HETATM   17  C1  UNL     1      -3.131  -7.867   0.284  1.00  0.00     0.502 C 
HETATM   18  N1  UNL     1      -4.115  -7.454  -0.733  1.00  0.00    -0.031 N 
HETATM   19  N2  UNL     1      -2.874  -9.297   0.091  1.00  0.00    -0.031 N 
ATOM     20  H13 UNL     1      -3.824  -7.681  -1.683  1.00  0.00     0.279 HD
ATOM     21  H12 UNL     1      -4.966  -8.017  -0.716  1.00  0.00     0.279 HD
ATOM     22  H11 UNL     1      -4.294  -6.459  -0.598  1.00  0.00     0.279 HD
ATOM     23  H23 UNL     1      -3.725  -9.861   0.108  1.00  0.00     0.279 HD
ATOM     24  H22 UNL     1      -2.583  -9.525  -0.859  1.00  0.00     0.279 HD
ATOM     25  H21 UNL     1      -2.193  -9.583   0.795  1.00  0.00     0.279 HD
BRANCH  16  26
HETATM   26  N4  UNL     1      -1.440  -7.294  -1.357  1.00  0.00    -0.338 N 
ATOM     27  H42 UNL     1      -2.034  -7.760  -2.042  1.00  0.00     0.177 HD
ATOM     28  H41 UNL     1      -0.518  -6.899  -1.541  1.00  0.00     0.177 HD
ENDBRANCH  16  26
ENDBRANCH   1  16
TORSDOF 2
ENDMDL
MODEL 2
REMARK VINA RESULT: -7.062583840      2.923      6.058
REMARK  2 active torsions:
REMARK  status: ('A' for Active; 'I' for Inactive)
REMARK       I    between atoms: N1_1  and  C1_5 
REMARK       I    between atoms: C1_5  and  N2_6 
REMARK       I    between atoms: C1_5  and  N3_10 
REMARK    1  A    between atoms: N3_10  and  N4_11 
REMARK    2  A    between atoms: N3_10  and  C2_14 
ROOT
HETATM    1  C2  UNL     1      -0.018  -6.966   2.269  1.00  0.00     0.126 A 
HETATM    2  C3  UNL     1      -0.483  -7.511   3.430  1.00  0.00     0.052 A 
HETATM    3  C4  UNL     1      -1.536  -8.394   3.495  1.00  0.00     0.036 A 
HETATM    4  C5  UNL     1      -2.150  -8.742   2.294  1.00  0.00     0.069 A 
HETATM    5  N5  UNL     1      -3.185  -9.594   2.265  1.00  0.00    -0.306 N 
ATOM      6  H5  UNL     1      -3.541 -10.007   3.128  1.00  0.00     0.171 HD
HETATM    7  C6  UNL     1      -3.753  -9.899   1.065  1.00  0.00     0.327 A 
HETATM    8  O1  UNL     1      -4.724 -10.702   1.058  1.00  0.00    -0.247 OA
HETATM    9  N6  UNL     1      -3.317  -9.381  -0.091  1.00  0.00    -0.274 N 
ATOM     10  H6  UNL     1      -3.771  -9.636  -0.968  1.00  0.00     0.173 HD
HETATM   11  C7  UNL     1      -2.279  -8.522  -0.096  1.00  0.00     0.278 A 
HETATM   12  O2  UNL     1      -1.841  -8.010  -1.162  1.00  0.00    -0.265 OA
HETATM   13  C8  UNL     1      -1.684  -8.195   1.124  1.00  0.00     0.130 A 
HETATM   14  N7  UNL     1      -0.634  -7.320   1.123  1.00  0.00    -0.335 N 
ATOM     15  H7  UNL     1      -0.309  -6.929   0.239  1.00  0.00     0.168 HD
ENDROOT
BRANCH   1  16
HETATM   16  N3  UNL     1       1.061  -6.054   2.170  1.00  0.00    -0.228 N 
HETATM   17  C1  UNL     1       2.118  -5.896   3.136  1.00  0.00     0.502 C 
HETATM   18  N1  UNL     1       3.381  -6.017   2.385  1.00  0.00    -0.031 N 
HETATM   19  N2  UNL     1       2.048  -4.527   3.658  1.00  0.00    -0.031 N 
ATOM     20  H13 UNL     1       3.481  -5.309   1.659  1.00  0.00     0.279 HD
ATOM     21  H12 UNL     1       4.199  -5.759   2.937  1.00  0.00     0.279 HD
ATOM     22  H11 UNL     1       3.430  -6.969   2.022  1.00  0.00     0.279 HD
ATOM     23  H23 UNL     1       2.866  -4.269   4.210  1.00  0.00     0.279 HD
ATOM     24  H22 UNL     1       2.148  -3.819   2.932  1.00  0.00     0.279 HD
ATOM     25  H21 UNL     1       1.174  -4.443   4.178  1.00  0.00     0.279 HD
BRANCH  16  26
HETATM   26  N4  UNL     1       1.128  -5.195   1.036  1.00  0.00    -0.338 N 
ATOM     27  H42 UNL     1       0.873  -4.214   1.149  1.00  0.00     0.177 HD
ATOM     28  H41 UNL     1       1.445  -5.630   0.169  1.00  0.00     0.177 HD
ENDBRANCH  16  26
ENDBRANCH   1  16
TORSDOF 2
ENDMDL
MODEL 3
REMARK VINA RESULT: -6.682843276      3.201      6.084
REMARK  2 active torsions:
REMARK  status: ('A' for Active; 'I' for Inactive)
REMARK       I    between atoms: N1_1  and  C1_5 
REMARK       I    between atoms: C1_5  and  N2_6 
REMARK       I    between atoms: C1_5  and  N3_10 
REMARK    1  A    between atoms: N3_10  and  N4_11 
REMARK    2  A    between atoms: N3_10  and  C2_14 
ROOT
HETATM    1  C2  UNL     1      -0.511  -7.247   2.424  1.00  0.00     0.126 A 
HETATM    2  C3  UNL     1      -0.822  -7.825   3.619  1.00  0.00     0.052 A 
HETATM    3  C4  UNL     1      -1.758  -8.823   3.769  1.00  0.00     0.036 A 
HETATM    4  C5  UNL     1      -2.416  -9.255   2.620  1.00  0.00     0.069 A 
HETATM    5  N5  UNL     1      -3.345 -10.220   2.675  1.00  0.00    -0.306 N 
ATOM      6  H5  UNL     1      -3.585 -10.660   3.564  1.00  0.00     0.171 HD
HETATM    7  C6  UNL     1      -3.963 -10.605   1.522  1.00  0.00     0.327 A 
HETATM    8  O1  UNL     1      -4.833 -11.514   1.594  1.00  0.00    -0.247 OA
HETATM    9  N6  UNL     1      -3.678 -10.056   0.334  1.00  0.00    -0.274 N 
ATOM     10  H6  UNL     1      -4.165 -10.373  -0.504  1.00  0.00     0.173 HD
HETATM   11  C7  UNL     1      -2.750  -9.083   0.246  1.00  0.00     0.278 A 
HETATM   12  O2  UNL     1      -2.455  -8.540  -0.853  1.00  0.00    -0.265 OA
HETATM   13  C8  UNL     1      -2.106  -8.674   1.415  1.00  0.00     0.130 A 
HETATM   14  N7  UNL     1      -1.166  -7.685   1.330  1.00  0.00    -0.335 N 
ATOM     15  H7  UNL     1      -0.957  -7.271   0.422  1.00  0.00     0.168 HD
ENDROOT
BRANCH   1  16
HETATM   16  N3  UNL     1       0.445  -6.218   2.237  1.00  0.00    -0.228 N 
HETATM   17  C1  UNL     1       0.162  -4.882   1.778  1.00  0.00     0.502 C 
HETATM   18  N1  UNL     1       0.764  -3.972   2.769  1.00  0.00    -0.031 N 
HETATM   19  N2  UNL     1       0.872  -4.683   0.511  1.00  0.00    -0.031 N 
ATOM     20  H13 UNL     1       1.773  -4.091   2.856  1.00  0.00     0.279 HD
ATOM     21  H12 UNL     1       0.770  -2.998   2.465  1.00  0.00     0.279 HD
ATOM     22  H11 UNL     1       0.270  -4.111   3.650  1.00  0.00     0.279 HD
ATOM     23  H23 UNL     1       0.878  -3.709   0.206  1.00  0.00     0.279 HD
ATOM     24  H22 UNL     1       1.881  -4.801   0.598  1.00  0.00     0.279 HD
ATOM     25  H21 UNL     1       0.455  -5.313  -0.175  1.00  0.00     0.279 HD
BRANCH  16  26
HETATM   26  N4  UNL     1       1.814  -6.502   2.504  1.00  0.00    -0.338 N 
ATOM     27  H42 UNL     1       2.235  -7.328   2.079  1.00  0.00     0.177 HD
ATOM     28  H41 UNL     1       2.294  -5.835   3.109  1.00  0.00     0.177 HD
ENDBRANCH  16  26
ENDBRANCH   1  16
TORSDOF 2
ENDMDL
MODEL 4
REMARK VINA RESULT: -6.434072317      2.887      5.980
REMARK  2 active torsions:
REMARK  status: ('A' for Active; 'I' for Inactive)
REMARK       I    between atoms: N1_1  and  C1_5 
REMARK       I    between atoms: C1_5  and  N2_6 
REMARK       I    between atoms: C1_5  and  N3_10 
REMARK    1  A    between atoms: N3_10  and  N4_11 
REMARK    2  A    between atoms: N3_10  and  C2_14 
ROOT
HETATM    1  C2  UNL     1      -0.922  -6.499   1.135  1.00  0.00     0.126 A 
HETATM    2  C3  UNL     1      -1.424  -6.667  -0.122  1.00  0.00     0.052 A 
HETATM    3  C4  UNL     1      -2.316  -7.657  -0.466  1.00  0.00     0.036 A 
HETATM    4  C5  UNL     1      -2.719  -8.529   0.543  1.00  0.00     0.069 A 
HETATM    5  N5  UNL     1      -3.583  -9.524   0.296  1.00  0.00    -0.306 N 
ATOM      6  H5  UNL     1      -3.964  -9.659  -0.641  1.00  0.00     0.171 HD
HETATM    7  C6  UNL     1      -3.944 -10.351   1.317  1.00  0.00     0.327 A 
HETATM    8  O1  UNL     1      -4.756 -11.280   1.065  1.00  0.00    -0.247 OA
HETATM    9  N6  UNL     1      -3.468 -10.209   2.562  1.00  0.00    -0.274 N 
ATOM     10  H6  UNL     1      -3.764 -10.852   3.297  1.00  0.00     0.173 HD
HETATM   11  C7  UNL     1      -2.598  -9.220   2.842  1.00  0.00     0.278 A 
HETATM   12  O2  UNL     1      -2.126  -9.054   3.999  1.00  0.00    -0.265 OA
HETATM   13  C8  UNL     1      -2.215  -8.361   1.810  1.00  0.00     0.130 A 
HETATM   14  N7  UNL     1      -1.330  -7.358   2.090  1.00  0.00    -0.335 N 
ATOM     15  H7  UNL     1      -0.972  -7.259   3.039  1.00  0.00     0.168 HD
ENDROOT
BRANCH   1  16
HETATM   16  N3  UNL     1      -0.003  -5.492   1.519  1.00  0.00    -0.228 N 
HETATM   17  C1  UNL     1       0.271  -5.077   2.873  1.00  0.00     0.502 C 
HETATM   18  N1  UNL     1       1.733  -5.158   3.037  1.00  0.00    -0.031 N 
HETATM   19  N2  UNL     1      -0.108  -3.666   2.994  1.00  0.00    -0.031 N 
ATOM     20  H13 UNL     1       2.240  -4.552   2.392  1.00  0.00     0.279 HD
ATOM     21  H12 UNL     1       2.060  -4.731   3.904  1.00  0.00     0.279 HD
ATOM     22  H11 UNL     1       1.996  -6.139   2.952  1.00  0.00     0.279 HD
ATOM     23  H23 UNL     1       0.219  -3.239   3.862  1.00  0.00     0.279 HD
ATOM     24  H22 UNL     1       0.399  -3.061   2.349  1.00  0.00     0.279 HD
ATOM     25  H21 UNL     1      -1.120  -3.610   2.880  1.00  0.00     0.279 HD
BRANCH  16  26
HETATM   26  N4  UNL     1       0.718  -4.800   0.505  1.00  0.00    -0.338 N 
ATOM     27  H42 UNL     1       0.342  -3.921   0.150  1.00  0.00     0.177 HD
ATOM     28  H41 UNL     1       1.588  -5.239   0.203  1.00  0.00     0.177 HD
ENDBRANCH  16  26
ENDBRANCH   1  16
TORSDOF 2
ENDMDL
MODEL 5
REMARK VINA RESULT: -6.324346717      3.349      6.446
REMARK  2 active torsions:
REMARK  status: ('A' for Active; 'I' for Inactive)
REMARK       I    between atoms: N1_1  and  C1_5 
REMARK       I    between atoms: C1_5  and  N2_6 
REMARK       I    between atoms: C1_5  and  N3_10 
REMARK    1  A    between atoms: N3_10  and  N4_11 
REMARK    2  A    between atoms: N3_10  and  C2_14 
ROOT
HETATM    1  C2  UNL     1      -1.228  -7.073   2.084  1.00  0.00     0.126 A 
HETATM    2  C3  UNL     1      -1.267  -7.254   0.733  1.00  0.00     0.052 A 
HETATM    3  C4  UNL     1      -2.076  -8.172   0.104  1.00  0.00     0.036 A 
HETATM    4  C5  UNL     1      -2.898  -8.954   0.911  1.00  0.00     0.069 A 
HETATM    5  N5  UNL     1      -3.717  -9.875   0.383  1.00  0.00    -0.306 N 
ATOM      6  H5  UNL     1      -3.753 -10.019  -0.626  1.00  0.00     0.171 HD
HETATM    7  C6  UNL     1      -4.499 -10.616   1.217  1.00  0.00     0.327 A 
HETATM    8  O1  UNL     1      -5.261 -11.477   0.702  1.00  0.00    -0.247 OA
HETATM    9  N6  UNL     1      -4.484 -10.460   2.548  1.00  0.00    -0.274 N 
ATOM     10  H6  UNL     1      -5.086 -11.036   3.136  1.00  0.00     0.173 HD
HETATM   11  C7  UNL     1      -3.673  -9.543   3.110  1.00  0.00     0.278 A 
HETATM   12  O2  UNL     1      -3.627  -9.367   4.357  1.00  0.00    -0.265 OA
HETATM   13  C8  UNL     1      -2.862  -8.774   2.273  1.00  0.00     0.130 A 
HETATM   14  N7  UNL     1      -2.035  -7.845   2.839  1.00  0.00    -0.335 N 
ATOM     15  H7  UNL     1      -2.028  -7.734   3.853  1.00  0.00     0.168 HD
ENDROOT
BRANCH   1  16
HETATM   16  N3  UNL     1      -0.407  -6.138   2.760  1.00  0.00    -0.228 N 
HETATM   17  C1  UNL     1       0.663  -5.376   2.166  1.00  0.00     0.502 C 
HETATM   18  N1  UNL     1       0.396  -3.966   2.503  1.00  0.00    -0.031 N 
HETATM   19  N2  UNL     1       1.911  -5.759   2.834  1.00  0.00    -0.031 N 
ATOM     20  H13 UNL     1       0.379  -3.794   3.507  1.00  0.00     0.279 HD
ATOM     21  H12 UNL     1       1.176  -3.348   2.275  1.00  0.00     0.279 HD
ATOM     22  H11 UNL     1      -0.472  -3.700   2.038  1.00  0.00     0.279 HD
ATOM     23  H23 UNL     1       2.690  -5.141   2.606  1.00  0.00     0.279 HD
ATOM     24  H22 UNL     1       1.894  -5.586   3.838  1.00  0.00     0.279 HD
ATOM     25  H21 UNL     1       2.095  -6.735   2.601  1.00  0.00     0.279 HD
BRANCH  16  26
HETATM   26  N4  UNL     1      -0.620  -5.921   4.151  1.00  0.00    -0.338 N 
ATOM     27  H42 UNL     1      -1.413  -6.377   4.602  1.00  0.00     0.177 HD
ATOM     28  H41 UNL     1       0.060  -5.317   4.614  1.00  0.00     0.177 HD
ENDBRANCH  16  26
ENDBRANCH   1  16
TORSDOF 2
ENDMDL
