MODEL 1
REMARK VINA RESULT: -8.697139087      0.000      0.000
REMARK  5 active torsions:
REMARK  status: ('A' for Active; 'I' for Inactive)
REMARK    1  A    between atoms: C3_5  and  N3_6 
REMARK    2  A    between atoms: C4_11  and  C5_12 
REMARK       I    between atoms: C5_12  and  N5_14 
REMARK    3  A    between atoms: N5_14  and  N6_16 
REMARK    4  A    between atoms: N6_16  and  C6_18 
REMARK    5  A    between atoms: C7_27  and  N11_28 
ROOT
HETATM    1  C1  UNL     1       3.488 -81.380-148.990  1.00  0.00     0.159 C 
HETATM    2  N1  UNL     1       3.033 -80.146-148.333  1.00  0.00    -0.321 N 
HETATM    3  C2  UNL     1       3.182 -78.981-148.939  1.00  0.00     0.170 A 
HETATM    4  N2  UNL     1       3.788 -78.933-150.233  1.00  0.00    -0.078 NA
HETATM    5  C3  UNL     1       2.770 -77.794-148.359  1.00  0.00     0.216 A 
HETATM    6  N4  UNL     1       2.207 -77.882-147.147  1.00  0.00    -0.327 N 
ATOM      7  H4  UNL     1       1.893 -77.023-146.696  1.00  0.00     0.168 HD
HETATM    8  C4  UNL     1       2.032 -79.063-146.484  1.00  0.00     0.148 A 
HETATM    9  C7  UNL     1       2.452 -80.204-147.090  1.00  0.00     0.135 A 
ENDROOT
BRANCH   8  10
HETATM   10  C5  UNL     1       1.412 -79.003-145.188  1.00  0.00     0.290 C 
HETATM   11  O3  UNL     1       1.947 -79.452-144.162  1.00  0.00    -0.264 OA
HETATM   12  N5  UNL     1       0.135 -78.412-145.040  1.00  0.00    -0.250 N 
ATOM     13  H5  UNL     1      -0.344 -78.029-145.855  1.00  0.00     0.191 HD
BRANCH  12  14
HETATM   14  N6  UNL     1      -0.466 -78.349-143.796  1.00  0.00    -0.127 N 
ATOM     15  H6  UNL     1      -0.196 -77.627-143.128  1.00  0.00     0.206 HD
BRANCH  14  16
HETATM   16  C6  UNL     1      -1.379 -79.221-143.489  1.00  0.00     0.728 A 
HETATM   17  N7  UNL     1      -1.338 -80.114-142.486  1.00  0.00    -0.114 N 
HETATM   18  N8  UNL     1      -2.469 -80.808-142.524  1.00  0.00    -0.213 N 
ATOM     19  H7  UNL     1      -0.578 -80.237-141.818  1.00  0.00     0.207 HD
HETATM   20  N9  UNL     1      -3.228 -80.390-143.513  1.00  0.00    -0.213 N 
ATOM     21  H8  UNL     1      -2.714 -81.558-141.878  1.00  0.00     0.210 HD
HETATM   22  N10 UNL     1      -2.574 -79.420-144.111  1.00  0.00    -0.114 N 
ATOM     23  H9  UNL     1      -4.147 -80.750-143.767  1.00  0.00     0.210 HD
ATOM     24  H10 UNL     1      -2.910 -78.894-144.918  1.00  0.00     0.207 HD
ENDBRANCH  14  16
ENDBRANCH  12  14
ENDBRANCH   8  10
BRANCH   9  25
HETATM   25  N11 UNL     1       2.353 -81.363-146.594  1.00  0.00    -0.383 N 
ATOM     26 2H11 UNL     1       2.366 -82.230-147.132  1.00  0.00     0.157 HD
ATOM     27 1H11 UNL     1       2.253 -81.396-145.579  1.00  0.00     0.157 HD
ENDBRANCH   9  25
BRANCH   5  28
HETATM   28  N3  UNL     1       2.924 -76.540-148.997  1.00  0.00    -0.094 N 
HETATM   29  O1  UNL     1       3.892 -75.837-148.683  1.00  0.00    -0.530 OA
HETATM   30  O2  UNL     1       2.048 -76.082-149.937  1.00  0.00    -0.530 OA
ENDBRANCH   5  28
TORSDOF 5
ENDMDL
MODEL 2
REMARK VINA RESULT: -8.146735543      3.522      5.165
REMARK  5 active torsions:
REMARK  status: ('A' for Active; 'I' for Inactive)
REMARK    1  A    between atoms: C3_5  and  N3_6 
REMARK    2  A    between atoms: C4_11  and  C5_12 
REMARK       I    between atoms: C5_12  and  N5_14 
REMARK    3  A    between atoms: N5_14  and  N6_16 
REMARK    4  A    between atoms: N6_16  and  C6_18 
REMARK    5  A    between atoms: C7_27  and  N11_28 
ROOT
HETATM    1  C1  UNL     1      -1.364 -78.325-145.259  1.00  0.00     0.159 C 
HETATM    2  N1  UNL     1      -0.205 -79.164-144.920  1.00  0.00    -0.321 N 
HETATM    3  C2  UNL     1       0.840 -79.204-145.726  1.00  0.00     0.170 A 
HETATM    4  N2  UNL     1       0.834 -78.427-146.927  1.00  0.00    -0.078 NA
HETATM    5  C3  UNL     1       1.953 -79.979-145.449  1.00  0.00     0.216 A 
HETATM    6  N4  UNL     1       1.920 -80.691-144.315  1.00  0.00    -0.327 N 
ATOM      7  H4  UNL     1       2.727 -81.271-144.085  1.00  0.00     0.168 HD
HETATM    8  C4  UNL     1       0.862 -80.680-143.452  1.00  0.00     0.148 A 
HETATM    9  C7  UNL     1      -0.209 -79.905-143.763  1.00  0.00     0.135 A 
ENDROOT
BRANCH   8  10
HETATM   10  C5  UNL     1       0.968 -81.496-142.272  1.00  0.00     0.290 C 
HETATM   11  O3  UNL     1       0.888 -81.035-141.123  1.00  0.00    -0.264 OA
HETATM   12  N5  UNL     1       1.173 -82.891-142.392  1.00  0.00    -0.250 N 
ATOM     13  H5  UNL     1       1.246 -83.316-143.316  1.00  0.00     0.191 HD
BRANCH  12  14
HETATM   14  N6  UNL     1       1.275 -83.682-141.262  1.00  0.00    -0.127 N 
ATOM     15  H6  UNL     1       2.097 -83.618-140.660  1.00  0.00     0.206 HD
BRANCH  14  16
HETATM   16  C6  UNL     1       0.314 -84.506-140.976  1.00  0.00     0.728 A 
HETATM   17  N7  UNL     1      -0.908 -84.549-141.534  1.00  0.00    -0.114 N 
HETATM   18  N8  UNL     1      -1.576 -85.538-140.954  1.00  0.00    -0.213 N 
ATOM     19  H7  UNL     1      -1.257 -83.934-142.268  1.00  0.00     0.207 HD
HETATM   20  N9  UNL     1      -0.827 -86.127-140.048  1.00  0.00    -0.213 N 
ATOM     21  H8  UNL     1      -2.535 -85.804-141.179  1.00  0.00     0.210 HD
HETATM   22  N10 UNL     1       0.331 -85.507-140.051  1.00  0.00    -0.114 N 
ATOM     23  H9  UNL     1      -1.093 -86.914-139.457  1.00  0.00     0.210 HD
ATOM     24  H10 UNL     1       1.124 -85.739-139.453  1.00  0.00     0.207 HD
ENDBRANCH  14  16
ENDBRANCH  12  14
ENDBRANCH   8  10
BRANCH   9  25
HETATM   25  N11 UNL     1      -1.253 -79.800-143.058  1.00  0.00    -0.383 N 
ATOM     26 2H11 UNL     1      -2.196 -80.028-143.375  1.00  0.00     0.157 HD
ATOM     27 1H11 UNL     1      -1.105 -79.458-142.108  1.00  0.00     0.157 HD
ENDBRANCH   9  25
BRANCH   5  28
HETATM   28  N3  UNL     1       3.079 -80.031-146.304  1.00  0.00    -0.094 N 
HETATM   29  O1  UNL     1       3.160 -80.963-147.113  1.00  0.00    -0.530 OA
HETATM   30  O2  UNL     1       4.072 -79.096-146.268  1.00  0.00    -0.530 OA
ENDBRANCH   5  28
TORSDOF 5
ENDMDL
MODEL 3
REMARK VINA RESULT: -7.955624015      3.629      4.937
REMARK  5 active torsions:
REMARK  status: ('A' for Active; 'I' for Inactive)
REMARK    1  A    between atoms: C3_5  and  N3_6 
REMARK    2  A    between atoms: C4_11  and  C5_12 
REMARK       I    between atoms: C5_12  and  N5_14 
REMARK    3  A    between atoms: N5_14  and  N6_16 
REMARK    4  A    between atoms: N6_16  and  C6_18 
REMARK    5  A    between atoms: C7_27  and  N11_28 
ROOT
HETATM    1  C1  UNL     1      -0.347 -78.313-144.855  1.00  0.00     0.159 C 
HETATM    2  N1  UNL     1       0.700 -79.341-144.949  1.00  0.00    -0.321 N 
HETATM    3  C2  UNL     1       1.496 -79.379-146.003  1.00  0.00     0.170 A 
HETATM    4  N2  UNL     1       1.329 -78.417-147.047  1.00  0.00    -0.078 NA
HETATM    5  C3  UNL     1       2.495 -80.328-146.134  1.00  0.00     0.216 A 
HETATM    6  N4  UNL     1       2.618 -81.211-145.136  1.00  0.00    -0.327 N 
ATOM      7  H4  UNL     1       3.347 -81.921-145.206  1.00  0.00     0.168 HD
HETATM    8  C4  UNL     1       1.820 -81.209-144.028  1.00  0.00     0.148 A 
HETATM    9  C7  UNL     1       0.852 -80.260-143.939  1.00  0.00     0.135 A 
ENDROOT
BRANCH   8  10
HETATM   10  C5  UNL     1       2.070 -82.220-143.036  1.00  0.00     0.290 C 
HETATM   11  O3  UNL     1       3.186 -82.734-142.862  1.00  0.00    -0.264 OA
HETATM   12  N5  UNL     1       1.019 -82.670-142.202  1.00  0.00    -0.250 N 
ATOM     13  H5  UNL     1       0.084 -82.277-142.308  1.00  0.00     0.191 HD
BRANCH  12  14
HETATM   14  N6  UNL     1       1.253 -83.641-141.245  1.00  0.00    -0.127 N 
ATOM     15  H6  UNL     1       2.154 -83.689-140.769  1.00  0.00     0.206 HD
BRANCH  14  16
HETATM   16  C6  UNL     1       0.313 -84.490-140.960  1.00  0.00     0.728 A 
HETATM   17  N7  UNL     1      -0.908 -84.562-141.516  1.00  0.00    -0.114 N 
HETATM   18  N8  UNL     1      -1.551 -85.569-140.938  1.00  0.00    -0.213 N 
ATOM     19  H7  UNL     1      -1.274 -83.954-142.249  1.00  0.00     0.207 HD
HETATM   20  N9  UNL     1      -0.786 -86.141-140.035  1.00  0.00    -0.213 N 
ATOM     21  H8  UNL     1      -2.503 -85.858-141.163  1.00  0.00     0.210 HD
HETATM   22  N10 UNL     1       0.357 -85.491-140.038  1.00  0.00    -0.114 N 
ATOM     23  H9  UNL     1      -1.032 -86.935-139.445  1.00  0.00     0.210 HD
ATOM     24  H10 UNL     1       1.156 -85.705-139.441  1.00  0.00     0.207 HD
ENDBRANCH  14  16
ENDBRANCH  12  14
ENDBRANCH   8  10
BRANCH   9  25
HETATM   25  N11 UNL     1       0.044 -80.141-142.974  1.00  0.00    -0.383 N 
ATOM     26 2H11 UNL     1      -0.537 -80.894-142.604  1.00  0.00     0.157 HD
ATOM     27 1H11 UNL     1      -0.005 -79.210-142.560  1.00  0.00     0.157 HD
ENDBRANCH   9  25
BRANCH   5  28
HETATM   28  N3  UNL     1       3.353 -80.380-147.258  1.00  0.00    -0.094 N 
HETATM   29  O1  UNL     1       4.423 -79.761-147.210  1.00  0.00    -0.530 OA
HETATM   30  O2  UNL     1       3.044 -81.082-148.386  1.00  0.00    -0.530 OA
ENDBRANCH   5  28
TORSDOF 5
ENDMDL
MODEL 4
REMARK VINA RESULT: -7.822656397      1.920      2.363
REMARK  5 active torsions:
REMARK  status: ('A' for Active; 'I' for Inactive)
REMARK    1  A    between atoms: C3_5  and  N3_6 
REMARK    2  A    between atoms: C4_11  and  C5_12 
REMARK       I    between atoms: C5_12  and  N5_14 
REMARK    3  A    between atoms: N5_14  and  N6_16 
REMARK    4  A    between atoms: N6_16  and  C6_18 
REMARK    5  A    between atoms: C7_27  and  N11_28 
ROOT
HETATM    1  C1  UNL     1       3.404 -81.337-148.986  1.00  0.00     0.159 C 
HETATM    2  N1  UNL     1       2.967 -80.154-148.230  1.00  0.00    -0.321 N 
HETATM    3  C2  UNL     1       3.075 -78.951-148.765  1.00  0.00     0.170 A 
HETATM    4  N2  UNL     1       3.619 -78.811-150.080  1.00  0.00    -0.078 NA
HETATM    5  C3  UNL     1       2.676 -77.810-148.091  1.00  0.00     0.216 A 
HETATM    6  N4  UNL     1       2.172 -77.984-146.863  1.00  0.00    -0.327 N 
ATOM      7  H4  UNL     1       1.870 -77.159-146.344  1.00  0.00     0.168 HD
HETATM    8  C4  UNL     1       2.041 -79.207-146.271  1.00  0.00     0.148 A 
HETATM    9  C7  UNL     1       2.444 -80.301-146.968  1.00  0.00     0.135 A 
ENDROOT
BRANCH   8  10
HETATM   10  C5  UNL     1       1.482 -79.239-144.947  1.00  0.00     0.290 C 
HETATM   11  O3  UNL     1       0.672 -78.394-144.534  1.00  0.00    -0.264 OA
HETATM   12  N5  UNL     1       1.849 -80.268-144.047  1.00  0.00    -0.250 N 
ATOM     13  H5  UNL     1       2.512 -80.986-144.340  1.00  0.00     0.191 HD
BRANCH  12  14
HETATM   14  N6  UNL     1       1.314 -80.306-142.772  1.00  0.00    -0.127 N 
ATOM     15  H6  UNL     1       1.238 -79.452-142.219  1.00  0.00     0.206 HD
BRANCH  14  16
HETATM   16  C6  UNL     1       0.910 -81.441-142.287  1.00  0.00     0.728 A 
HETATM   17  N7  UNL     1      -0.313 -81.727-141.809  1.00  0.00    -0.114 N 
HETATM   18  N8  UNL     1      -0.300 -82.994-141.416  1.00  0.00    -0.213 N 
ATOM     19  H7  UNL     1      -1.105 -81.087-141.758  1.00  0.00     0.207 HD
HETATM   20  N9  UNL     1       0.883 -83.527-141.625  1.00  0.00    -0.213 N 
ATOM     21  H8  UNL     1      -1.096 -83.485-141.008  1.00  0.00     0.210 HD
HETATM   22  N10 UNL     1       1.633 -82.588-142.159  1.00  0.00    -0.114 N 
ATOM     23  H9  UNL     1       1.165 -84.484-141.415  1.00  0.00     0.210 HD
ATOM     24  H10 UNL     1       2.608 -82.701-142.435  1.00  0.00     0.207 HD
ENDBRANCH  14  16
ENDBRANCH  12  14
ENDBRANCH   8  10
BRANCH   9  25
HETATM   25  N11 UNL     1       2.382 -81.490-146.544  1.00  0.00    -0.383 N 
ATOM     26 2H11 UNL     1       2.143 -82.301-147.116  1.00  0.00     0.157 HD
ATOM     27 1H11 UNL     1       2.590 -81.612-145.552  1.00  0.00     0.157 HD
ENDBRANCH   9  25
BRANCH   5  28
HETATM   28  N3  UNL     1       2.787 -76.516-148.653  1.00  0.00    -0.094 N 
HETATM   29  O1  UNL     1       1.770 -75.990-149.122  1.00  0.00    -0.530 OA
HETATM   30  O2  UNL     1       3.968 -75.833-148.697  1.00  0.00    -0.530 OA
ENDBRANCH   5  28
TORSDOF 5
ENDMDL
MODEL 5
REMARK VINA RESULT: -7.806598385      2.588      7.174
REMARK  5 active torsions:
REMARK  status: ('A' for Active; 'I' for Inactive)
REMARK    1  A    between atoms: C3_5  and  N3_6 
REMARK    2  A    between atoms: C4_11  and  C5_12 
REMARK       I    between atoms: C5_12  and  N5_14 
REMARK    3  A    between atoms: N5_14  and  N6_16 
REMARK    4  A    between atoms: N6_16  and  C6_18 
REMARK    5  A    between atoms: C7_27  and  N11_28 
ROOT
HETATM    1  C1  UNL     1      -1.409 -81.275-141.339  1.00  0.00     0.159 C 
HETATM    2  N1  UNL     1      -0.242 -81.185-142.230  1.00  0.00    -0.321 N 
HETATM    3  C2  UNL     1       0.682 -82.129-142.205  1.00  0.00     0.170 A 
HETATM    4  N2  UNL     1       0.537 -83.234-141.309  1.00  0.00    -0.078 NA
HETATM    5  C3  UNL     1       1.797 -82.086-143.024  1.00  0.00     0.216 A 
HETATM    6  N4  UNL     1       1.895 -81.036-143.848  1.00  0.00    -0.327 N 
ATOM      7  H4  UNL     1       2.707 -80.979-144.464  1.00  0.00     0.168 HD
HETATM    8  C4  UNL     1       0.965 -80.038-143.908  1.00  0.00     0.148 A 
HETATM    9  C7  UNL     1      -0.114 -80.119-143.087  1.00  0.00     0.135 A 
ENDROOT
BRANCH   8  10
HETATM   10  C5  UNL     1       1.204 -78.972-144.844  1.00  0.00     0.290 C 
HETATM   11  O3  UNL     1       0.485 -77.963-144.916  1.00  0.00    -0.264 OA
HETATM   12  N5  UNL     1       2.301 -79.044-145.735  1.00  0.00    -0.250 N 
ATOM     13  H5  UNL     1       2.921 -79.854-145.713  1.00  0.00     0.191 HD
BRANCH  12  14
HETATM   14  N6  UNL     1       2.538 -78.022-146.636  1.00  0.00    -0.127 N 
ATOM     15  H6  UNL     1       2.296 -77.060-146.400  1.00  0.00     0.206 HD
BRANCH  14  16
HETATM   16  C6  UNL     1       3.072 -78.302-147.786  1.00  0.00     0.728 A 
HETATM   17  N7  UNL     1       3.660 -77.442-148.635  1.00  0.00    -0.114 N 
HETATM   18  N8  UNL     1       4.070 -78.139-149.688  1.00  0.00    -0.213 N 
ATOM     19  H7  UNL     1       3.772 -76.438-148.496  1.00  0.00     0.207 HD
HETATM   20  N9  UNL     1       3.764 -79.409-149.542  1.00  0.00    -0.213 N 
ATOM     21  H8  UNL     1       4.552 -77.745-150.495  1.00  0.00     0.210 HD
HETATM   22  N10 UNL     1       3.154 -79.523-148.383  1.00  0.00    -0.114 N 
ATOM     23  H9  UNL     1       3.963 -80.162-150.201  1.00  0.00     0.210 HD
ATOM     24  H10 UNL     1       2.797 -80.394-147.990  1.00  0.00     0.207 HD
ENDBRANCH  14  16
ENDBRANCH  12  14
ENDBRANCH   8  10
BRANCH   9  25
HETATM   25  N11 UNL     1      -1.049 -79.270-143.037  1.00  0.00    -0.383 N 
ATOM     26 2H11 UNL     1      -2.016 -79.482-142.791  1.00  0.00     0.157 HD
ATOM     27 1H11 UNL     1      -0.781 -78.312-143.265  1.00  0.00     0.157 HD
ENDBRANCH   9  25
BRANCH   5  28
HETATM   28  N3  UNL     1       2.794 -83.090-143.008  1.00  0.00    -0.094 N 
HETATM   29  O1  UNL     1       3.795 -82.913-142.303  1.00  0.00    -0.530 OA
HETATM   30  O2  UNL     1       2.691 -84.239-143.737  1.00  0.00    -0.530 OA
ENDBRANCH   5  28
TORSDOF 5
ENDMDL
