MODEL 1
REMARK VINA RESULT: -6.066936263      0.000      0.000
REMARK  12 active torsions:
REMARK  status: ('A' for Active; 'I' for Inactive)
REMARK    1  A    between atoms: N1_2  and  C2_4 
REMARK    2  A    between atoms: C2_4  and  C3_5 
REMARK    3  A    between atoms: C3_5  and  N2_6 
REMARK    4  A    between atoms: N2_6  and  C4_7 
REMARK    5  A    between atoms: C5_10  and  N4_11 
REMARK    6  A    between atoms: C6_13  and  C7_14 
REMARK    7  A    between atoms: C7_14  and  C8_15 
REMARK    8  A    between atoms: C11_18  and  C12_19 
REMARK    9  A    between atoms: C12_19  and  O1_21 
REMARK   10  A    between atoms: C15_30  and  C16_31 
REMARK   11  A    between atoms: C16_31  and  C17_32 
REMARK   12  A    between atoms: C19_39  and  O2_40 
ROOT
HETATM    1  C4  UNL     1      39.088  24.437  12.969  1.00  0.00     0.296 A 
HETATM    2  N3  UNL     1      38.725  25.768  12.789  1.00  0.00    -0.147 N 
ATOM      3  H3  UNL     1      37.729  25.988  12.809  1.00  0.00     0.188 HD
HETATM    4  C5  UNL     1      39.556  26.765  12.597  1.00  0.00     0.687 A 
HETATM    5  N7  UNL     1      40.903  26.429  12.575  1.00  0.00    -0.173 N 
ATOM      6  H7  UNL     1      41.594  27.164  12.428  1.00  0.00     0.186 HD
HETATM    7  C14 UNL     1      41.311  25.191  12.738  1.00  0.00     0.158 A 
HETATM    8  C15 UNL     1      42.629  24.661  12.742  1.00  0.00     0.030 A 
HETATM    9  C20 UNL     1      42.455  23.323  12.945  1.00  0.00     0.123 A 
HETATM   10  N10 UNL     1      41.125  23.083  13.055  1.00  0.00    -0.299 N 
ATOM     11  H10 UNL     1      40.711  22.164  13.212  1.00  0.00     0.186 HD
HETATM   12  N11 UNL     1      40.439  24.207  12.931  1.00  0.00    -0.195 N 
ENDROOT
BRANCH   4  13
HETATM   13  N4  UNL     1      39.339  27.968  12.492  1.00  0.00    -0.205 N 
HETATM   14  C6  UNL     1      38.946  29.060  11.810  1.00  0.00     0.085 C 
ATOM     15  H4  UNL     1      39.591  28.337  13.408  1.00  0.00     0.183 HD
BRANCH  14  16
HETATM   16  C7  UNL     1      39.926  30.015  11.194  1.00  0.00     0.103 C 
BRANCH  16  17
HETATM   17  C8  UNL     1      40.928  29.431  10.309  1.00  0.00     0.030 A 
HETATM   18  C9  UNL     1      40.772  28.394   9.443  1.00  0.00     0.029 A 
HETATM   19  C10 UNL     1      41.906  28.006   8.736  1.00  0.00     0.031 A 
HETATM   20  C11 UNL     1      43.123  28.562   8.840  1.00  0.00     0.054 A 
HETATM   21  N5  UNL     1      43.239  29.627   9.744  1.00  0.00    -0.302 N 
HETATM   22  N6  UNL     1      42.175  29.973  10.389  1.00  0.00    -0.304 N 
ATOM     23  H5  UNL     1      44.127  30.109   9.885  1.00  0.00     0.186 HD
ATOM     24  H6  UNL     1      42.283  30.750  11.042  1.00  0.00     0.186 HD
BRANCH  20  25
HETATM   25  C12 UNL     1      44.279  28.121   8.053  1.00  0.00     0.165 C 
HETATM   26  C13 UNL     1      45.097  27.038   8.686  1.00  0.00     0.046 C 
BRANCH  25  27
HETATM   27  O1  UNL     1      45.116  29.178   7.697  1.00  0.00    -0.390 OA
ATOM     28  H1  UNL     1      45.947  28.880   7.344  1.00  0.00     0.210 HD
ENDBRANCH  25  27
ENDBRANCH  20  25
ENDBRANCH  16  17
ENDBRANCH  14  16
ENDBRANCH   4  13
BRANCH   1  29
HETATM   29  N2  UNL     1      38.256  23.637  13.145  1.00  0.00    -0.384 NA
BRANCH  29  30
HETATM   30  C3  UNL     1      37.289  22.701  13.356  1.00  0.00     0.178 C 
BRANCH  30  31
HETATM   31  C2  UNL     1      37.630  21.437  12.576  1.00  0.00     0.173 C 
BRANCH  31  32
HETATM   32  N1  UNL     1      37.517  20.233  13.332  1.00  0.00    -0.420 N 
HETATM   33  C1  UNL     1      36.435  19.366  13.010  1.00  0.00     0.140 C 
ATOM     34  H1  UNL     1      38.182  20.004  14.071  1.00  0.00     0.153 HD
ENDBRANCH  31  32
ENDBRANCH  30  31
ENDBRANCH  29  30
ENDBRANCH   1  29
BRANCH   8  35
HETATM   35  C16 UNL     1      43.690  25.402  12.601  1.00  0.00     0.050 C 
BRANCH  35  36
HETATM   36  C17 UNL     1      43.994  26.705  13.117  1.00  0.00     0.086 A 
HETATM   37  N8  UNL     1      44.396  27.798  12.468  1.00  0.00    -0.330 N 
HETATM   38  C18 UNL     1      44.619  28.794  13.344  1.00  0.00     0.178 A 
ATOM     39  H8  UNL     1      44.518  27.868  11.458  1.00  0.00     0.168 HD
HETATM   40  S1  UNL     1      45.116  30.282  12.983  1.00  0.00    -0.040 SA
HETATM   41  N9  UNL     1      44.352  28.335  14.596  1.00  0.00    -0.312 N 
HETATM   42  C19 UNL     1      43.967  27.052  14.471  1.00  0.00     0.169 A 
ATOM     43  H9  UNL     1      44.430  28.862  15.465  1.00  0.00     0.170 HD
BRANCH  42  44
HETATM   44  O2  UNL     1      43.607  26.209  15.490  1.00  0.00    -0.344 OA
ATOM     45  H2  UNL     1      42.722  25.908  15.660  1.00  0.00     0.219 HD
ENDBRANCH  42  44
ENDBRANCH  35  36
ENDBRANCH   8  35
TORSDOF 12
ENDMDL
MODEL 2
REMARK VINA RESULT: -5.332333934      3.544      7.214
REMARK  12 active torsions:
REMARK  status: ('A' for Active; 'I' for Inactive)
REMARK    1  A    between atoms: N1_2  and  C2_4 
REMARK    2  A    between atoms: C2_4  and  C3_5 
REMARK    3  A    between atoms: C3_5  and  N2_6 
REMARK    4  A    between atoms: N2_6  and  C4_7 
REMARK    5  A    between atoms: C5_10  and  N4_11 
REMARK    6  A    between atoms: C6_13  and  C7_14 
REMARK    7  A    between atoms: C7_14  and  C8_15 
REMARK    8  A    between atoms: C11_18  and  C12_19 
REMARK    9  A    between atoms: C12_19  and  O1_21 
REMARK   10  A    between atoms: C15_30  and  C16_31 
REMARK   11  A    between atoms: C16_31  and  C17_32 
REMARK   12  A    between atoms: C19_39  and  O2_40 
ROOT
HETATM    1  C4  UNL     1      39.801  26.049  12.609  1.00  0.00     0.296 A 
HETATM    2  N3  UNL     1      41.131  25.647  12.666  1.00  0.00    -0.147 N 
ATOM      3  H3  UNL     1      41.843  26.365  12.524  1.00  0.00     0.188 HD
HETATM    4  C5  UNL     1      41.548  24.424  12.887  1.00  0.00     0.687 A 
HETATM    5  N7  UNL     1      40.553  23.474  13.074  1.00  0.00    -0.173 N 
ATOM      6  H7  UNL     1      40.819  22.505  13.249  1.00  0.00     0.186 HD
HETATM    7  C14 UNL     1      39.279  23.790  13.033  1.00  0.00     0.158 A 
HETATM    8  C15 UNL     1      38.132  22.965  13.194  1.00  0.00     0.030 A 
HETATM    9  C20 UNL     1      37.078  23.820  13.046  1.00  0.00     0.123 A 
HETATM   10  N10 UNL     1      37.572  25.060  12.814  1.00  0.00    -0.299 N 
ATOM     11  H10 UNL     1      37.002  25.894  12.665  1.00  0.00     0.186 HD
HETATM   12  N11 UNL     1      38.894  25.041  12.807  1.00  0.00    -0.195 N 
ENDROOT
BRANCH   4  13
HETATM   13  N4  UNL     1      42.687  23.985  13.015  1.00  0.00    -0.205 N 
HETATM   14  C6  UNL     1      43.937  24.023  13.513  1.00  0.00     0.085 C 
ATOM     15  H4  UNL     1      42.686  23.146  12.437  1.00  0.00     0.183 HD
BRANCH  14  16
HETATM   16  C7  UNL     1      45.102  24.530  12.715  1.00  0.00     0.103 C 
BRANCH  16  17
HETATM   17  C8  UNL     1      44.815  25.595  11.758  1.00  0.00     0.030 A 
HETATM   18  C9  UNL     1      44.502  26.891  12.023  1.00  0.00     0.029 A 
HETATM   19  C10 UNL     1      44.236  27.698  10.921  1.00  0.00     0.031 A 
HETATM   20  C11 UNL     1      44.260  27.305   9.638  1.00  0.00     0.054 A 
HETATM   21  N5  UNL     1      44.587  25.961   9.410  1.00  0.00    -0.302 N 
HETATM   22  N6  UNL     1      44.831  25.229  10.446  1.00  0.00    -0.304 N 
ATOM     23  H5  UNL     1      44.630  25.578   8.466  1.00  0.00     0.186 HD
ATOM     24  H6  UNL     1      45.067  24.254  10.257  1.00  0.00     0.186 HD
BRANCH  20  25
HETATM   25  C12 UNL     1      43.988  28.208   8.516  1.00  0.00     0.165 C 
HETATM   26  C13 UNL     1      44.257  29.655   8.790  1.00  0.00     0.046 C 
BRANCH  25  27
HETATM   27  O1  UNL     1      42.691  28.070   8.021  1.00  0.00    -0.390 OA
ATOM     28  H1  UNL     1      42.482  28.722   7.363  1.00  0.00     0.210 HD
ENDBRANCH  25  27
ENDBRANCH  20  25
ENDBRANCH  16  17
ENDBRANCH  14  16
ENDBRANCH   4  13
BRANCH   1  29
HETATM   29  N2  UNL     1      39.551  27.174  12.418  1.00  0.00    -0.384 NA
BRANCH  29  30
HETATM   30  C3  UNL     1      39.262  28.486  12.190  1.00  0.00     0.178 C 
BRANCH  30  31
HETATM   31  C2  UNL     1      40.484  29.178  11.596  1.00  0.00     0.173 C 
BRANCH  31  32
HETATM   32  N1  UNL     1      40.586  29.069  10.178  1.00  0.00    -0.420 N 
HETATM   33  C1  UNL     1      40.570  30.282   9.433  1.00  0.00     0.140 C 
ATOM     34  H1  UNL     1      40.667  28.162   9.717  1.00  0.00     0.153 HD
ENDBRANCH  31  32
ENDBRANCH  30  31
ENDBRANCH  29  30
ENDBRANCH   1  29
BRANCH   8  35
HETATM   35  C16 UNL     1      38.207  21.692  13.454  1.00  0.00     0.050 C 
BRANCH  35  36
HETATM   36  C17 UNL     1      37.403  20.597  12.996  1.00  0.00     0.086 A 
HETATM   37  N8  UNL     1      37.012  19.503  13.651  1.00  0.00    -0.330 N 
HETATM   38  C18 UNL     1      36.309  18.704  12.828  1.00  0.00     0.178 A 
ATOM     39  H8  UNL     1      37.217  19.303  14.629  1.00  0.00     0.168 HD
HETATM   40  S1  UNL     1      35.655  17.285  13.215  1.00  0.00    -0.040 SA
HETATM   41  N9  UNL     1      36.240  19.296  11.607  1.00  0.00    -0.312 N 
HETATM   42  C19 UNL     1      36.908  20.460  11.695  1.00  0.00     0.169 A 
ATOM     43  H9  UNL     1      35.771  18.928  10.780  1.00  0.00     0.170 HD
BRANCH  42  44
HETATM   44  O2  UNL     1      37.087  21.373  10.688  1.00  0.00    -0.344 OA
ATOM     45  H2  UNL     1      37.132  21.161   9.763  1.00  0.00     0.219 HD
ENDBRANCH  42  44
ENDBRANCH  35  36
ENDBRANCH   8  35
TORSDOF 12
ENDMDL
MODEL 3
REMARK VINA RESULT: -5.013666342      1.900      4.741
REMARK  12 active torsions:
REMARK  status: ('A' for Active; 'I' for Inactive)
REMARK    1  A    between atoms: N1_2  and  C2_4 
REMARK    2  A    between atoms: C2_4  and  C3_5 
REMARK    3  A    between atoms: C3_5  and  N2_6 
REMARK    4  A    between atoms: N2_6  and  C4_7 
REMARK    5  A    between atoms: C5_10  and  N4_11 
REMARK    6  A    between atoms: C6_13  and  C7_14 
REMARK    7  A    between atoms: C7_14  and  C8_15 
REMARK    8  A    between atoms: C11_18  and  C12_19 
REMARK    9  A    between atoms: C12_19  and  O1_21 
REMARK   10  A    between atoms: C15_30  and  C16_31 
REMARK   11  A    between atoms: C16_31  and  C17_32 
REMARK   12  A    between atoms: C19_39  and  O2_40 
ROOT
HETATM    1  C4  UNL     1      39.315  24.343  12.905  1.00  0.00     0.296 A 
HETATM    2  N3  UNL     1      40.554  23.742  13.102  1.00  0.00    -0.147 N 
ATOM      3  H3  UNL     1      40.558  22.784  13.453  1.00  0.00     0.188 HD
HETATM    4  C5  UNL     1      41.717  24.302  12.874  1.00  0.00     0.687 A 
HETATM    5  N7  UNL     1      41.674  25.605  12.398  1.00  0.00    -0.173 N 
ATOM      6  H7  UNL     1      42.549  26.092  12.204  1.00  0.00     0.186 HD
HETATM    7  C14 UNL     1      40.537  26.229  12.191  1.00  0.00     0.158 A 
HETATM    8  C15 UNL     1      40.296  27.548  11.718  1.00  0.00     0.030 A 
HETATM    9  C20 UNL     1      38.936  27.660  11.708  1.00  0.00     0.123 A 
HETATM   10  N10 UNL     1      38.414  26.488  12.144  1.00  0.00    -0.299 N 
ATOM     11  H10 UNL     1      37.416  26.295  12.236  1.00  0.00     0.186 HD
HETATM   12  N11 UNL     1      39.376  25.629  12.433  1.00  0.00    -0.195 N 
ENDROOT
BRANCH   4  13
HETATM   13  N4  UNL     1      42.850  23.838  12.957  1.00  0.00    -0.205 N 
HETATM   14  C6  UNL     1      43.907  23.372  13.648  1.00  0.00     0.085 C 
ATOM     15  H4  UNL     1      43.151  23.768  11.985  1.00  0.00     0.183 HD
BRANCH  14  16
HETATM   16  C7  UNL     1      45.116  24.215  13.926  1.00  0.00     0.103 C 
BRANCH  16  17
HETATM   17  C8  UNL     1      44.912  25.661  13.918  1.00  0.00     0.030 A 
HETATM   18  C9  UNL     1      44.542  26.455  14.957  1.00  0.00     0.029 A 
HETATM   19  C10 UNL     1      44.380  27.807  14.671  1.00  0.00     0.031 A 
HETATM   20  C11 UNL     1      44.554  28.381  13.470  1.00  0.00     0.054 A 
HETATM   21  N5  UNL     1      44.935  27.526  12.427  1.00  0.00    -0.302 N 
HETATM   22  N6  UNL     1      45.081  26.274  12.713  1.00  0.00    -0.304 N 
ATOM     23  H5  UNL     1      45.091  27.876  11.483  1.00  0.00     0.186 HD
ATOM     24  H6  UNL     1      45.359  25.670  11.939  1.00  0.00     0.186 HD
BRANCH  20  25
HETATM   25  C12 UNL     1      44.387  29.818  13.234  1.00  0.00     0.165 C 
HETATM   26  C13 UNL     1      42.966  30.282  13.145  1.00  0.00     0.046 C 
BRANCH  25  27
HETATM   27  O1  UNL     1      45.083  30.258  12.108  1.00  0.00    -0.390 OA
ATOM     28  H1  UNL     1      45.970  30.530  12.313  1.00  0.00     0.210 HD
ENDBRANCH  25  27
ENDBRANCH  20  25
ENDBRANCH  16  17
ENDBRANCH  14  16
ENDBRANCH   4  13
BRANCH   1  29
HETATM   29  N2  UNL     1      38.343  23.737  13.131  1.00  0.00    -0.384 NA
BRANCH  29  30
HETATM   30  C3  UNL     1      37.209  23.028  13.390  1.00  0.00     0.178 C 
BRANCH  30  31
HETATM   31  C2  UNL     1      37.228  21.732  12.588  1.00  0.00     0.173 C 
BRANCH  31  32
HETATM   32  N1  UNL     1      37.141  20.550  13.381  1.00  0.00    -0.420 N 
HETATM   33  C1  UNL     1      36.405  19.459  12.838  1.00  0.00     0.140 C 
ATOM     34  H1  UNL     1      37.586  20.489  14.297  1.00  0.00     0.153 HD
ENDBRANCH  31  32
ENDBRANCH  30  31
ENDBRANCH  29  30
ENDBRANCH   1  29
BRANCH   8  35
HETATM   35  C16 UNL     1      41.252  28.362  11.375  1.00  0.00     0.050 C 
BRANCH  35  36
HETATM   36  C17 UNL     1      42.006  28.456  10.159  1.00  0.00     0.086 A 
HETATM   37  N8  UNL     1      43.094  29.180   9.893  1.00  0.00    -0.330 N 
HETATM   38  C18 UNL     1      43.451  29.014   8.608  1.00  0.00     0.178 A 
ATOM     39  H8  UNL     1      43.581  29.773  10.565  1.00  0.00     0.168 HD
HETATM   40  S1  UNL     1      44.706  29.707   7.874  1.00  0.00    -0.040 SA
HETATM   41  N9  UNL     1      42.572  28.158   8.023  1.00  0.00    -0.312 N 
HETATM   42  C19 UNL     1      41.679  27.807   8.965  1.00  0.00     0.169 A 
ATOM     43  H9  UNL     1      42.587  27.842   7.054  1.00  0.00     0.170 HD
BRANCH  42  44
HETATM   44  O2  UNL     1      40.616  26.957   8.800  1.00  0.00    -0.344 OA
ATOM     45  H2  UNL     1      40.664  26.010   8.852  1.00  0.00     0.219 HD
ENDBRANCH  42  44
ENDBRANCH  35  36
ENDBRANCH   8  35
TORSDOF 12
ENDMDL
MODEL 4
REMARK VINA RESULT: -4.939666714      3.543      8.408
REMARK  12 active torsions:
REMARK  status: ('A' for Active; 'I' for Inactive)
REMARK    1  A    between atoms: N1_2  and  C2_4 
REMARK    2  A    between atoms: C2_4  and  C3_5 
REMARK    3  A    between atoms: C3_5  and  N2_6 
REMARK    4  A    between atoms: N2_6  and  C4_7 
REMARK    5  A    between atoms: C5_10  and  N4_11 
REMARK    6  A    between atoms: C6_13  and  C7_14 
REMARK    7  A    between atoms: C7_14  and  C8_15 
REMARK    8  A    between atoms: C11_18  and  C12_19 
REMARK    9  A    between atoms: C12_19  and  O1_21 
REMARK   10  A    between atoms: C15_30  and  C16_31 
REMARK   11  A    between atoms: C16_31  and  C17_32 
REMARK   12  A    between atoms: C19_39  and  O2_40 
ROOT
HETATM    1  C4  UNL     1      40.064  27.013  12.673  1.00  0.00     0.296 A 
HETATM    2  N3  UNL     1      39.375  25.848  12.995  1.00  0.00    -0.147 N 
ATOM      3  H3  UNL     1      38.363  25.919  13.106  1.00  0.00     0.188 HD
HETATM    4  C5  UNL     1      39.916  24.667  13.169  1.00  0.00     0.687 A 
HETATM    5  N7  UNL     1      41.294  24.607  13.011  1.00  0.00    -0.173 N 
ATOM      6  H7  UNL     1      41.769  23.713  13.135  1.00  0.00     0.186 HD
HETATM    7  C14 UNL     1      42.002  25.671  12.707  1.00  0.00     0.158 A 
HETATM    8  C15 UNL     1      43.404  25.805  12.512  1.00  0.00     0.030 A 
HETATM    9  C20 UNL     1      43.580  27.128  12.226  1.00  0.00     0.123 A 
HETATM   10  N10 UNL     1      42.366  27.729  12.250  1.00  0.00    -0.299 N 
ATOM     11  H10 UNL     1      42.205  28.721  12.071  1.00  0.00     0.186 HD
HETATM   12  N11 UNL     1      41.419  26.853  12.538  1.00  0.00    -0.195 N 
ENDROOT
BRANCH   4  13
HETATM   13  N4  UNL     1      39.392  23.580  13.391  1.00  0.00    -0.205 N 
HETATM   14  C6  UNL     1      38.840  22.414  13.007  1.00  0.00     0.085 C 
ATOM     15  H4  UNL     1      39.354  23.537  14.409  1.00  0.00     0.183 HD
BRANCH  14  16
HETATM   16  C7  UNL     1      37.355  22.202  12.978  1.00  0.00     0.103 C 
BRANCH  16  17
HETATM   17  C8  UNL     1      36.894  20.932  12.424  1.00  0.00     0.030 A 
HETATM   18  C9  UNL     1      36.910  20.537  11.123  1.00  0.00     0.029 A 
HETATM   19  C10 UNL     1      36.374  19.282  10.854  1.00  0.00     0.031 A 
HETATM   20  C11 UNL     1      35.847  18.444  11.761  1.00  0.00     0.054 A 
HETATM   21  N5  UNL     1      35.851  18.891  13.090  1.00  0.00    -0.302 N 
HETATM   22  N6  UNL     1      36.354  20.059  13.318  1.00  0.00    -0.304 N 
ATOM     23  H5  UNL     1      35.472  18.319  13.844  1.00  0.00     0.186 HD
ATOM     24  H6  UNL     1      36.347  20.364  14.292  1.00  0.00     0.186 HD
BRANCH  20  25
HETATM   25  C12 UNL     1      35.312  17.122  11.420  1.00  0.00     0.165 C 
HETATM   26  C13 UNL     1      34.691  16.379  12.561  1.00  0.00     0.046 C 
BRANCH  25  27
HETATM   27  O1  UNL     1      36.260  16.306  10.804  1.00  0.00    -0.390 OA
ATOM     28  H1  UNL     1      36.926  16.805  10.345  1.00  0.00     0.210 HD
ENDBRANCH  25  27
ENDBRANCH  20  25
ENDBRANCH  16  17
ENDBRANCH  14  16
ENDBRANCH   4  13
BRANCH   1  29
HETATM   29  N2  UNL     1      39.470  28.008  12.531  1.00  0.00    -0.384 NA
BRANCH  29  30
HETATM   30  C3  UNL     1      38.779  29.171  12.368  1.00  0.00     0.178 C 
BRANCH  30  31
HETATM   31  C2  UNL     1      39.658  30.185  11.644  1.00  0.00     0.173 C 
BRANCH  31  32
HETATM   32  N1  UNL     1      40.062  29.781  10.337  1.00  0.00    -0.420 N 
HETATM   33  C1  UNL     1      41.411  30.045   9.967  1.00  0.00     0.140 C 
ATOM     34  H1  UNL     1      39.413  29.324   9.696  1.00  0.00     0.153 HD
ENDBRANCH  31  32
ENDBRANCH  30  31
ENDBRANCH  29  30
ENDBRANCH   1  29
BRANCH   8  35
HETATM   35  C16 UNL     1      44.228  24.801  12.589  1.00  0.00     0.050 C 
BRANCH  35  36
HETATM   36  C17 UNL     1      44.497  23.741  11.661  1.00  0.00     0.086 A 
HETATM   37  N8  UNL     1      44.465  22.422  11.852  1.00  0.00    -0.330 N 
HETATM   38  C18 UNL     1      44.836  21.787  10.726  1.00  0.00     0.178 A 
ATOM     39  H8  UNL     1      44.199  21.963  12.723  1.00  0.00     0.168 HD
HETATM   40  S1  UNL     1      44.937  20.193  10.525  1.00  0.00    -0.040 SA
HETATM   41  N9  UNL     1      45.116  22.719   9.778  1.00  0.00    -0.312 N 
HETATM   42  C19 UNL     1      44.912  23.925  10.338  1.00  0.00     0.169 A 
ATOM     43  H9  UNL     1      45.423  22.540   8.822  1.00  0.00     0.170 HD
BRANCH  42  44
HETATM   44  O2  UNL     1      45.079  25.142   9.731  1.00  0.00    -0.344 OA
ATOM     45  H2  UNL     1      45.911  25.586   9.622  1.00  0.00     0.219 HD
ENDBRANCH  42  44
ENDBRANCH  35  36
ENDBRANCH   8  35
TORSDOF 12
ENDMDL
MODEL 5
REMARK VINA RESULT: -4.569763648      6.920     12.997
REMARK  12 active torsions:
REMARK  status: ('A' for Active; 'I' for Inactive)
REMARK    1  A    between atoms: N1_2  and  C2_4 
REMARK    2  A    between atoms: C2_4  and  C3_5 
REMARK    3  A    between atoms: C3_5  and  N2_6 
REMARK    4  A    between atoms: N2_6  and  C4_7 
REMARK    5  A    between atoms: C5_10  and  N4_11 
REMARK    6  A    between atoms: C6_13  and  C7_14 
REMARK    7  A    between atoms: C7_14  and  C8_15 
REMARK    8  A    between atoms: C11_18  and  C12_19 
REMARK    9  A    between atoms: C12_19  and  O1_21 
REMARK   10  A    between atoms: C15_30  and  C16_31 
REMARK   11  A    between atoms: C16_31  and  C17_32 
REMARK   12  A    between atoms: C19_39  and  O2_40 
ROOT
HETATM    1  C4  UNL     1      37.063  21.139  12.008  1.00  0.00     0.296 A 
HETATM    2  N3  UNL     1      36.940  20.707  10.691  1.00  0.00    -0.147 N 
ATOM      3  H3  UNL     1      37.078  21.401   9.956  1.00  0.00     0.188 HD
HETATM    4  C5  UNL     1      36.662  19.481  10.315  1.00  0.00     0.687 A 
HETATM    5  N7  UNL     1      36.479  18.565  11.341  1.00  0.00    -0.173 N 
ATOM      6  H7  UNL     1      36.260  17.596  11.108  1.00  0.00     0.186 HD
HETATM    7  C14 UNL     1      36.582  18.910  12.605  1.00  0.00     0.158 A 
HETATM    8  C15 UNL     1      36.426  18.123  13.778  1.00  0.00     0.030 A 
HETATM    9  C20 UNL     1      36.635  19.000  14.803  1.00  0.00     0.123 A 
HETATM   10  N10 UNL     1      36.897  20.217  14.268  1.00  0.00    -0.299 N 
ATOM     11  H10 UNL     1      37.092  21.060  14.810  1.00  0.00     0.186 HD
HETATM   12  N11 UNL     1      36.865  20.162  12.948  1.00  0.00    -0.195 N 
ENDROOT
BRANCH   4  13
HETATM   13  N4  UNL     1      36.594  18.993   9.191  1.00  0.00    -0.205 N 
HETATM   14  C6  UNL     1      35.964  18.312   8.217  1.00  0.00     0.085 C 
ATOM     15  H4  UNL     1      37.494  19.230   8.774  1.00  0.00     0.183 HD
BRANCH  14  16
HETATM   16  C7  UNL     1      36.254  16.867   7.935  1.00  0.00     0.103 C 
BRANCH  16  17
HETATM   17  C8  UNL     1      35.503  15.892   8.721  1.00  0.00     0.030 A 
HETATM   18  C9  UNL     1      35.993  14.955   9.575  1.00  0.00     0.029 A 
HETATM   19  C10 UNL     1      35.057  14.119  10.176  1.00  0.00     0.031 A 
HETATM   20  C11 UNL     1      33.730  14.160   9.981  1.00  0.00     0.054 A 
HETATM   21  N5  UNL     1      33.267  15.141   9.093  1.00  0.00    -0.302 N 
HETATM   22  N6  UNL     1      34.152  15.908   8.546  1.00  0.00    -0.304 N 
ATOM     23  H5  UNL     1      32.274  15.245   8.886  1.00  0.00     0.186 HD
ATOM     24  H6  UNL     1      33.793  16.615   7.903  1.00  0.00     0.186 HD
BRANCH  20  25
HETATM   25  C12 UNL     1      32.789  13.263  10.658  1.00  0.00     0.165 C 
HETATM   26  C13 UNL     1      33.385  12.431  11.750  1.00  0.00     0.046 C 
BRANCH  25  27
HETATM   27  O1  UNL     1      32.111  12.430   9.767  1.00  0.00    -0.390 OA
ATOM     28  H1  UNL     1      31.173  12.585   9.768  1.00  0.00     0.210 HD
ENDBRANCH  25  27
ENDBRANCH  20  25
ENDBRANCH  16  17
ENDBRANCH  14  16
ENDBRANCH   4  13
BRANCH   1  29
HETATM   29  N2  UNL     1      37.328  22.257  12.219  1.00  0.00    -0.384 NA
BRANCH  29  30
HETATM   30  C3  UNL     1      37.633  23.561  12.470  1.00  0.00     0.178 C 
BRANCH  30  31
HETATM   31  C2  UNL     1      38.409  23.656  13.779  1.00  0.00     0.173 C 
BRANCH  31  32
HETATM   32  N1  UNL     1      39.667  24.318  13.666  1.00  0.00    -0.420 N 
HETATM   33  C1  UNL     1      39.656  25.647  13.156  1.00  0.00     0.140 C 
ATOM     34  H1  UNL     1      40.537  23.860  13.940  1.00  0.00     0.153 HD
ENDBRANCH  31  32
ENDBRANCH  30  31
ENDBRANCH  29  30
ENDBRANCH   1  29
BRANCH   8  35
HETATM   35  C16 UNL     1      36.169  16.848  13.746  1.00  0.00     0.050 C 
BRANCH  35  36
HETATM   36  C17 UNL     1      34.925  16.143  13.856  1.00  0.00     0.086 A 
HETATM   37  N8  UNL     1      34.504  15.315  14.813  1.00  0.00    -0.330 N 
HETATM   38  C18 UNL     1      33.290  14.830  14.498  1.00  0.00     0.178 A 
ATOM     39  H8  UNL     1      35.026  15.084  15.658  1.00  0.00     0.168 HD
HETATM   40  S1  UNL     1      32.423  13.798  15.378  1.00  0.00    -0.040 SA
HETATM   41  N9  UNL     1      32.912  15.358  13.304  1.00  0.00    -0.312 N 
HETATM   42  C19 UNL     1      33.907  16.167  12.898  1.00  0.00     0.169 A 
ATOM     43  H9  UNL     1      32.039  15.176  12.809  1.00  0.00     0.170 HD
BRANCH  42  44
HETATM   44  O2  UNL     1      33.937  16.900  11.740  1.00  0.00    -0.344 OA
ATOM     45  H2  UNL     1      33.391  16.738  10.979  1.00  0.00     0.219 HD
ENDBRANCH  42  44
ENDBRANCH  35  36
ENDBRANCH   8  35
TORSDOF 12
ENDMDL
