MODEL 1
REMARK VINA RESULT: -8.483362727      0.000      0.000
REMARK  1 active torsions:
REMARK  status: ('A' for Active; 'I' for Inactive)
REMARK    1  A    between atoms: O1_1  and  C1_3 
ROOT
HETATM    1  C1  UNL     1      14.038 -47.933 -14.480  1.00  0.00     0.151 C 
HETATM    2  C2  UNL     1      12.681 -48.225 -13.949  1.00  0.00     0.151 C 
HETATM    3  C3  UNL     1      12.645 -48.298 -12.417  1.00  0.00     0.037 C 
HETATM    4  C4  UNL     1      12.435 -46.828 -12.077  1.00  0.00     0.035 C 
HETATM    5  C5  UNL     1      12.330 -46.119 -13.438  1.00  0.00     0.128 C 
HETATM    6  O2  UNL     1      11.810 -47.199 -14.195  1.00  0.00    -0.378 OA
HETATM    7  C6  UNL     1      13.661 -45.659 -13.868  1.00  0.00     0.041 C 
HETATM    8  C7  UNL     1      14.161 -46.496 -15.042  1.00  0.00     0.025 C 
HETATM    9  C8  UNL     1      13.579 -46.459 -16.345  1.00  0.00     0.009 C 
HETATM   10  C9  UNL     1      14.060 -45.506 -17.448  1.00  0.00     0.012 C 
HETATM   11  C10 UNL     1      13.922 -44.012 -17.006  1.00  0.00     0.081 C 
HETATM   12  C11 UNL     1      13.822 -44.022 -15.598  1.00  0.00    -0.173 C 
HETATM   13  C12 UNL     1      13.710 -44.134 -14.201  1.00  0.00     0.018 C 
HETATM   14  C13 UNL     1      14.876 -43.493 -13.414  1.00  0.00     0.022 C 
HETATM   15  C14 UNL     1      15.185 -42.211 -14.172  1.00  0.00     0.002 C 
HETATM   16  C15 UNL     1      13.909 -41.456 -14.327  1.00  0.00     0.000 C 
HETATM   17  C16 UNL     1      12.793 -41.944 -13.448  1.00  0.00     0.002 C 
HETATM   18  C17 UNL     1      12.505 -43.419 -13.611  1.00  0.00     0.022 C 
ENDROOT
BRANCH   1  19
HETATM   19  O1  UNL     1      14.909 -47.908 -13.363  1.00  0.00    -0.393 OA
ATOM     20  H1  UNL     1      14.986 -46.997 -13.102  1.00  0.00     0.210 HD
ENDBRANCH   1  19
TORSDOF 1
ENDMDL
MODEL 2
REMARK VINA RESULT: -8.310941419      2.025      5.191
REMARK  1 active torsions:
REMARK  status: ('A' for Active; 'I' for Inactive)
REMARK    1  A    between atoms: O1_1  and  C1_3 
ROOT
HETATM    1  C1  UNL     1      13.497 -42.372 -13.802  1.00  0.00     0.151 C 
HETATM    2  C2  UNL     1      12.584 -41.892 -14.872  1.00  0.00     0.151 C 
HETATM    3  C3  UNL     1      13.318 -41.570 -16.180  1.00  0.00     0.037 C 
HETATM    4  C4  UNL     1      13.324 -42.945 -16.837  1.00  0.00     0.035 C 
HETATM    5  C5  UNL     1      12.562 -43.854 -15.858  1.00  0.00     0.128 C 
HETATM    6  O2  UNL     1      11.720 -42.871 -15.276  1.00  0.00    -0.378 OA
HETATM    7  C6  UNL     1      13.505 -44.480 -14.917  1.00  0.00     0.041 C 
HETATM    8  C7  UNL     1      13.340 -43.887 -13.521  1.00  0.00     0.025 C 
HETATM    9  C8  UNL     1      12.185 -44.087 -12.706  1.00  0.00     0.009 C 
HETATM   10  C9  UNL     1      12.062 -45.241 -11.702  1.00  0.00     0.012 C 
HETATM   11  C10 UNL     1      12.181 -46.628 -12.414  1.00  0.00     0.081 C 
HETATM   12  C11 UNL     1      12.799 -46.383 -13.659  1.00  0.00    -0.173 C 
HETATM   13  C12 UNL     1      13.399 -46.039 -14.883  1.00  0.00     0.018 C 
HETATM   14  C13 UNL     1      14.811 -46.635 -15.092  1.00  0.00     0.022 C 
HETATM   15  C14 UNL     1      14.715 -48.043 -14.524  1.00  0.00     0.002 C 
HETATM   16  C15 UNL     1      13.542 -48.709 -15.159  1.00  0.00     0.000 C 
HETATM   17  C16 UNL     1      13.009 -47.998 -16.370  1.00  0.00     0.002 C 
HETATM   18  C17 UNL     1      12.659 -46.551 -16.109  1.00  0.00     0.022 C 
ENDROOT
BRANCH   1  19
HETATM   19  O1  UNL     1      14.810 -42.286 -14.327  1.00  0.00    -0.393 OA
ATOM     20  H1  UNL     1      15.341 -42.895 -13.827  1.00  0.00     0.210 HD
ENDBRANCH   1  19
TORSDOF 1
ENDMDL
MODEL 3
REMARK VINA RESULT: -8.025641007      1.880      4.682
REMARK  1 active torsions:
REMARK  status: ('A' for Active; 'I' for Inactive)
REMARK    1  A    between atoms: O1_1  and  C1_3 
ROOT
HETATM    1  C1  UNL     1      12.731 -42.979 -15.843  1.00  0.00     0.151 C 
HETATM    2  C2  UNL     1      13.805 -42.161 -15.222  1.00  0.00     0.151 C 
HETATM    3  C3  UNL     1      13.310 -41.338 -14.025  1.00  0.00     0.037 C 
HETATM    4  C4  UNL     1      13.473 -42.358 -12.905  1.00  0.00     0.035 C 
HETATM    5  C5  UNL     1      14.077 -43.598 -13.585  1.00  0.00     0.128 C 
HETATM    6  O2  UNL     1      14.763 -42.943 -14.639  1.00  0.00    -0.378 OA
HETATM    7  C6  UNL     1      13.002 -44.502 -14.028  1.00  0.00     0.041 C 
HETATM    8  C7  UNL     1      12.889 -44.491 -15.549  1.00  0.00     0.025 C 
HETATM    9  C8  UNL     1      13.883 -45.028 -16.421  1.00  0.00     0.009 C 
HETATM   10  C9  UNL     1      13.863 -46.481 -16.915  1.00  0.00     0.012 C 
HETATM   11  C10 UNL     1      13.926 -47.487 -15.719  1.00  0.00     0.081 C 
HETATM   12  C11 UNL     1      13.536 -46.764 -14.571  1.00  0.00    -0.173 C 
HETATM   13  C12 UNL     1      13.156 -45.958 -13.484  1.00  0.00     0.018 C 
HETATM   14  C13 UNL     1      11.829 -46.378 -12.811  1.00  0.00     0.022 C 
HETATM   15  C14 UNL     1      11.871 -47.899 -12.807  1.00  0.00     0.002 C 
HETATM   16  C15 UNL     1      13.163 -48.315 -12.191  1.00  0.00     0.000 C 
HETATM   17  C16 UNL     1      13.881 -47.216 -11.461  1.00  0.00     0.002 C 
HETATM   18  C17 UNL     1      14.125 -45.991 -12.312  1.00  0.00     0.022 C 
ENDROOT
BRANCH   1  19
HETATM   19  O1  UNL     1      11.532 -42.651 -15.161  1.00  0.00    -0.393 OA
ATOM     20  H1  UNL     1      11.465 -43.255 -14.430  1.00  0.00     0.210 HD
ENDBRANCH   1  19
TORSDOF 1
ENDMDL
MODEL 4
REMARK VINA RESULT: -7.611652627      1.254      3.205
REMARK  1 active torsions:
REMARK  status: ('A' for Active; 'I' for Inactive)
REMARK    1  A    between atoms: O1_1  and  C1_3 
ROOT
HETATM    1  C1  UNL     1      12.063 -47.871 -14.069  1.00  0.00     0.151 C 
HETATM    2  C2  UNL     1      13.411 -48.435 -13.800  1.00  0.00     0.151 C 
HETATM    3  C3  UNL     1      14.225 -48.669 -15.080  1.00  0.00     0.037 C 
HETATM    4  C4  UNL     1      14.862 -47.295 -15.254  1.00  0.00     0.035 C 
HETATM    5  C5  UNL     1      14.378 -46.479 -14.043  1.00  0.00     0.128 C 
HETATM    6  O2  UNL     1      14.206 -47.549 -13.127  1.00  0.00    -0.378 OA
HETATM    7  C6  UNL     1      13.137 -45.764 -14.383  1.00  0.00     0.041 C 
HETATM    8  C7  UNL     1      11.948 -46.383 -13.655  1.00  0.00     0.025 C 
HETATM    9  C8  UNL     1      11.760 -46.312 -12.241  1.00  0.00     0.009 C 
HETATM   10  C9  UNL     1      10.972 -45.185 -11.560  1.00  0.00     0.012 C 
HETATM   11  C10 UNL     1      11.608 -43.788 -11.857  1.00  0.00     0.081 C 
HETATM   12  C11 UNL     1      12.421 -43.956 -12.998  1.00  0.00    -0.173 C 
HETATM   13  C12 UNL     1      13.219 -44.226 -14.123  1.00  0.00     0.018 C 
HETATM   14  C13 UNL     1      12.785 -43.484 -15.408  1.00  0.00     0.022 C 
HETATM   15  C14 UNL     1      12.382 -42.098 -14.926  1.00  0.00     0.002 C 
HETATM   16  C15 UNL     1      13.509 -41.554 -14.117  1.00  0.00     0.000 C 
HETATM   17  C16 UNL     1      14.799 -42.307 -14.271  1.00  0.00     0.002 C 
HETATM   18  C17 UNL     1      14.668 -43.785 -13.983  1.00  0.00     0.022 C 
ENDROOT
BRANCH   1  19
HETATM   19  O1  UNL     1      11.926 -47.814 -15.478  1.00  0.00    -0.393 OA
ATOM     20  H1  UNL     1      12.544 -48.442 -15.834  1.00  0.00     0.210 HD
ENDBRANCH   1  19
TORSDOF 1
ENDMDL
MODEL 5
REMARK VINA RESULT: -7.290230688      1.602      2.119
REMARK  1 active torsions:
REMARK  status: ('A' for Active; 'I' for Inactive)
REMARK    1  A    between atoms: O1_1  and  C1_3 
ROOT
HETATM    1  C1  UNL     1      12.893 -49.158 -15.579  1.00  0.00     0.151 C 
HETATM    2  C2  UNL     1      11.428 -49.360 -15.433  1.00  0.00     0.151 C 
HETATM    3  C3  UNL     1      11.051 -50.053 -14.117  1.00  0.00     0.037 C 
HETATM    4  C4  UNL     1      10.952 -48.847 -13.191  1.00  0.00     0.035 C 
HETATM    5  C5  UNL     1      11.233 -47.632 -14.092  1.00  0.00     0.128 C 
HETATM    6  O2  UNL     1      10.763 -48.171 -15.317  1.00  0.00    -0.378 OA
HETATM    7  C6  UNL     1      12.671 -47.318 -14.078  1.00  0.00     0.041 C 
HETATM    8  C7  UNL     1      13.309 -47.675 -15.417  1.00  0.00     0.025 C 
HETATM    9  C8  UNL     1      13.033 -46.984 -16.635  1.00  0.00     0.009 C 
HETATM   10  C9  UNL     1      13.854 -45.779 -17.115  1.00  0.00     0.012 C 
HETATM   11  C10 UNL     1      13.805 -44.610 -16.079  1.00  0.00     0.081 C 
HETATM   12  C11 UNL     1      13.402 -45.182 -14.854  1.00  0.00    -0.173 C 
HETATM   13  C12 UNL     1      12.976 -45.837 -13.685  1.00  0.00     0.018 C 
HETATM   14  C13 UNL     1      14.011 -45.833 -12.537  1.00  0.00     0.022 C 
HETATM   15  C14 UNL     1      14.632 -44.445 -12.592  1.00  0.00     0.002 C 
HETATM   16  C15 UNL     1      13.520 -43.451 -12.574  1.00  0.00     0.000 C 
HETATM   17  C16 UNL     1      12.190 -44.021 -12.174  1.00  0.00     0.002 C 
HETATM   18  C17 UNL     1      11.767 -45.202 -13.017  1.00  0.00     0.022 C 
ENDROOT
BRANCH   1  19
HETATM   19  O1  UNL     1      13.497 -49.776 -14.456  1.00  0.00    -0.393 OA
ATOM     20  H1  UNL     1      14.409 -49.507 -14.458  1.00  0.00     0.210 HD
ENDBRANCH   1  19
TORSDOF 1
ENDMDL
