MODEL 1
REMARK VINA RESULT: -8.339812780      0.000      0.000
REMARK  1 active torsions:
REMARK  status: ('A' for Active; 'I' for Inactive)
REMARK    1  A    between atoms: O1_1  and  C1_3 
ROOT
HETATM    1  C1  UNL     1      12.430 -47.434 -14.533  1.00  0.00     0.091 C 
HETATM    2  C2  UNL     1      11.609 -47.734 -15.717  1.00  0.00     0.043 C 
HETATM    3  C3  UNL     1      10.739 -48.942 -15.412  1.00  0.00     0.029 C 
HETATM    4  C4  UNL     1      10.688 -49.316 -13.979  1.00  0.00     0.168 C 
HETATM    5  O2  UNL     1      10.712 -48.300 -13.074  1.00  0.00    -0.383 OA
HETATM    6  C5  UNL     1      11.474 -47.219 -13.353  1.00  0.00     0.156 C 
HETATM    7  C6  UNL     1      12.456 -46.811 -12.298  1.00  0.00     0.036 C 
HETATM    8  C7  UNL     1      13.354 -45.855 -13.041  1.00  0.00     0.015 C 
HETATM    9  C8  UNL     1      13.230 -46.208 -14.525  1.00  0.00    -0.006 C 
HETATM   10  C9  UNL     1      14.644 -46.514 -15.027  1.00  0.00     0.013 C 
HETATM   11  C10 UNL     1      14.950 -45.516 -16.090  1.00  0.00     0.010 C 
HETATM   12  C11 UNL     1      13.970 -44.365 -15.905  1.00  0.00    -0.040 C 
HETATM   13  C12 UNL     1      13.686 -43.788 -17.246  1.00  0.00     0.009 C 
HETATM   14  C13 UNL     1      12.946 -42.509 -17.254  1.00  0.00     0.001 C 
HETATM   15  C14 UNL     1      13.199 -41.580 -16.138  1.00  0.00     0.000 C 
HETATM   16  C15 UNL     1      13.646 -42.189 -14.860  1.00  0.00     0.001 C 
HETATM   17  C16 UNL     1      14.573 -43.349 -14.998  1.00  0.00     0.009 C 
HETATM   18  C17 UNL     1      12.755 -45.052 -15.297  1.00  0.00     0.022 C 
ENDROOT
BRANCH   1  19
HETATM   19  O1  UNL     1      13.268 -48.508 -14.194  1.00  0.00    -0.386 OA
ATOM     20  H1  UNL     1      14.130 -48.420 -14.585  1.00  0.00     0.210 HD
ENDBRANCH   1  19
TORSDOF 1
ENDMDL
MODEL 2
REMARK VINA RESULT: -7.864876056      1.753      2.223
REMARK  1 active torsions:
REMARK  status: ('A' for Active; 'I' for Inactive)
REMARK    1  A    between atoms: O1_1  and  C1_3 
ROOT
HETATM    1  C1  UNL     1      13.225 -46.374 -12.796  1.00  0.00     0.091 C 
HETATM    2  C2  UNL     1      13.801 -47.311 -13.775  1.00  0.00     0.043 C 
HETATM    3  C3  UNL     1      13.593 -48.729 -13.271  1.00  0.00     0.029 C 
HETATM    4  C4  UNL     1      12.638 -48.847 -12.144  1.00  0.00     0.168 C 
HETATM    5  O2  UNL     1      11.567 -48.007 -12.152  1.00  0.00    -0.383 OA
HETATM    6  C5  UNL     1      11.749 -46.750 -12.615  1.00  0.00     0.156 C 
HETATM    7  C6  UNL     1      11.312 -45.641 -11.708  1.00  0.00     0.036 C 
HETATM    8  C7  UNL     1      11.964 -44.433 -12.331  1.00  0.00     0.015 C 
HETATM    9  C8  UNL     1      13.154 -44.953 -13.141  1.00  0.00    -0.006 C 
HETATM   10  C9  UNL     1      14.398 -44.234 -12.613  1.00  0.00     0.013 C 
HETATM   11  C10 UNL     1      14.963 -43.455 -13.750  1.00  0.00     0.010 C 
HETATM   12  C11 UNL     1      13.850 -43.318 -14.781  1.00  0.00    -0.040 C 
HETATM   13  C12 UNL     1      14.479 -43.283 -16.129  1.00  0.00     0.009 C 
HETATM   14  C13 UNL     1      13.588 -42.912 -17.247  1.00  0.00     0.001 C 
HETATM   15  C14 UNL     1      12.515 -41.945 -16.957  1.00  0.00     0.000 C 
HETATM   16  C15 UNL     1      12.031 -41.895 -15.554  1.00  0.00     0.001 C 
HETATM   17  C16 UNL     1      13.083 -42.069 -14.512  1.00  0.00     0.009 C 
HETATM   18  C17 UNL     1      13.026 -44.578 -14.556  1.00  0.00     0.022 C 
ENDROOT
BRANCH   1  19
HETATM   19  O1  UNL     1      13.839 -46.491 -11.539  1.00  0.00    -0.386 OA
ATOM     20  H1  UNL     1      14.557 -47.113 -11.553  1.00  0.00     0.210 HD
ENDBRANCH   1  19
TORSDOF 1
ENDMDL
MODEL 3
REMARK VINA RESULT: -7.719578724      2.228      5.565
REMARK  1 active torsions:
REMARK  status: ('A' for Active; 'I' for Inactive)
REMARK    1  A    between atoms: O1_1  and  C1_3 
ROOT
HETATM    1  C1  UNL     1      13.394 -43.941 -15.078  1.00  0.00     0.091 C 
HETATM    2  C2  UNL     1      12.104 -43.346 -14.688  1.00  0.00     0.043 C 
HETATM    3  C3  UNL     1      12.017 -41.948 -15.275  1.00  0.00     0.029 C 
HETATM    4  C4  UNL     1      13.041 -41.648 -16.302  1.00  0.00     0.168 C 
HETATM    5  O2  UNL     1      13.405 -42.667 -17.129  1.00  0.00    -0.383 OA
HETATM    6  C5  UNL     1      13.468 -43.913 -16.610  1.00  0.00     0.156 C 
HETATM    7  C6  UNL     1      14.753 -44.653 -16.818  1.00  0.00     0.036 C 
HETATM    8  C7  UNL     1      14.632 -45.798 -15.845  1.00  0.00     0.015 C 
HETATM    9  C8  UNL     1      13.639 -45.351 -14.770  1.00  0.00    -0.006 C 
HETATM   10  C9  UNL     1      14.362 -45.465 -13.425  1.00  0.00     0.013 C 
HETATM   11  C10 UNL     1      13.602 -46.454 -12.609  1.00  0.00     0.010 C 
HETATM   12  C11 UNL     1      12.751 -47.260 -13.581  1.00  0.00    -0.040 C 
HETATM   13  C12 UNL     1      11.504 -47.656 -12.874  1.00  0.00     0.009 C 
HETATM   14  C13 UNL     1      10.655 -48.647 -13.568  1.00  0.00     0.001 C 
HETATM   15  C14 UNL     1      11.343 -49.663 -14.385  1.00  0.00     0.000 C 
HETATM   16  C15 UNL     1      12.669 -49.284 -14.934  1.00  0.00     0.001 C 
HETATM   17  C16 UNL     1      13.518 -48.456 -14.030  1.00  0.00     0.009 C 
HETATM   18  C17 UNL     1      12.492 -46.267 -14.706  1.00  0.00     0.022 C 
ENDROOT
BRANCH   1  19
HETATM   19  O1  UNL     1      14.480 -43.191 -14.598  1.00  0.00    -0.386 OA
ATOM     20  H1  UNL     1      15.269 -43.352 -15.101  1.00  0.00     0.210 HD
ENDBRANCH   1  19
TORSDOF 1
ENDMDL
MODEL 4
REMARK VINA RESULT: -7.641231018      2.157      5.591
REMARK  1 active torsions:
REMARK  status: ('A' for Active; 'I' for Inactive)
REMARK    1  A    between atoms: O1_1  and  C1_3 
ROOT
HETATM    1  C1  UNL     1      13.446 -44.323 -15.383  1.00  0.00     0.091 C 
HETATM    2  C2  UNL     1      12.690 -43.634 -14.324  1.00  0.00     0.043 C 
HETATM    3  C3  UNL     1      12.778 -42.136 -14.561  1.00  0.00     0.029 C 
HETATM    4  C4  UNL     1      13.300 -41.755 -15.895  1.00  0.00     0.168 C 
HETATM    5  O2  UNL     1      12.953 -42.549 -16.944  1.00  0.00    -0.383 OA
HETATM    6  C5  UNL     1      12.859 -43.881 -16.729  1.00  0.00     0.156 C 
HETATM    7  C6  UNL     1      13.647 -44.758 -17.653  1.00  0.00     0.036 C 
HETATM    8  C7  UNL     1      13.621 -46.087 -16.943  1.00  0.00     0.015 C 
HETATM    9  C8  UNL     1      13.369 -45.783 -15.464  1.00  0.00    -0.006 C 
HETATM   10  C9  UNL     1      14.529 -46.404 -14.681  1.00  0.00     0.013 C 
HETATM   11  C10 UNL     1      13.939 -47.423 -13.769  1.00  0.00     0.010 C 
HETATM   12  C11 UNL     1      12.556 -47.750 -14.316  1.00  0.00    -0.040 C 
HETATM   13  C12 UNL     1      11.678 -48.090 -13.164  1.00  0.00     0.009 C 
HETATM   14  C13 UNL     1      10.363 -48.670 -13.504  1.00  0.00     0.001 C 
HETATM   15  C14 UNL     1      10.297 -49.525 -14.703  1.00  0.00     0.000 C 
HETATM   16  C15 UNL     1      11.304 -49.259 -15.761  1.00  0.00     0.001 C 
HETATM   17  C16 UNL     1      12.662 -48.892 -15.267  1.00  0.00     0.009 C 
HETATM   18  C17 UNL     1      12.147 -46.451 -14.996  1.00  0.00     0.022 C 
ENDROOT
BRANCH   1  19
HETATM   19  O1  UNL     1      14.801 -43.955 -15.381  1.00  0.00    -0.386 OA
ATOM     20  H1  UNL     1      14.958 -43.186 -15.917  1.00  0.00     0.210 HD
ENDBRANCH   1  19
TORSDOF 1
ENDMDL
MODEL 5
REMARK VINA RESULT: -7.536108653      2.150      5.543
REMARK  1 active torsions:
REMARK  status: ('A' for Active; 'I' for Inactive)
REMARK    1  A    between atoms: O1_1  and  C1_3 
ROOT
HETATM    1  C1  UNL     1      13.668 -44.320 -14.104  1.00  0.00     0.091 C 
HETATM    2  C2  UNL     1      12.560 -43.707 -13.354  1.00  0.00     0.043 C 
HETATM    3  C3  UNL     1      12.706 -42.196 -13.420  1.00  0.00     0.029 C 
HETATM    4  C4  UNL     1      13.682 -41.717 -14.425  1.00  0.00     0.168 C 
HETATM    5  O2  UNL     1      13.768 -42.418 -15.588  1.00  0.00    -0.383 OA
HETATM    6  C5  UNL     1      13.622 -43.761 -15.531  1.00  0.00     0.156 C 
HETATM    7  C6  UNL     1      14.713 -44.572 -16.160  1.00  0.00     0.036 C 
HETATM    8  C7  UNL     1      14.445 -45.954 -15.620  1.00  0.00     0.015 C 
HETATM    9  C8  UNL     1      13.651 -45.767 -14.325  1.00  0.00    -0.006 C 
HETATM   10  C9  UNL     1      14.443 -46.466 -13.216  1.00  0.00     0.013 C 
HETATM   11  C10 UNL     1      13.571 -47.547 -12.677  1.00  0.00     0.010 C 
HETATM   12  C11 UNL     1      12.500 -47.808 -13.728  1.00  0.00    -0.040 C 
HETATM   13  C12 UNL     1      11.260 -48.226 -13.021  1.00  0.00     0.009 C 
HETATM   14  C13 UNL     1      10.178 -48.757 -13.875  1.00  0.00     0.001 C 
HETATM   15  C14 UNL     1      10.580 -49.512 -15.075  1.00  0.00     0.000 C 
HETATM   16  C15 UNL     1      11.906 -49.177 -15.653  1.00  0.00     0.001 C 
HETATM   17  C16 UNL     1      12.974 -48.871 -14.658  1.00  0.00     0.009 C 
HETATM   18  C17 UNL     1      12.354 -46.452 -14.405  1.00  0.00     0.022 C 
ENDROOT
BRANCH   1  19
HETATM   19  O1  UNL     1      14.917 -43.973 -13.564  1.00  0.00    -0.386 OA
ATOM     20  H1  UNL     1      15.315 -44.699 -13.100  1.00  0.00     0.210 HD
ENDBRANCH   1  19
TORSDOF 1
ENDMDL
