MODEL 1
REMARK VINA RESULT: -5.858756604      0.000      0.000
REMARK  1 active torsions:
REMARK  status: ('A' for Active; 'I' for Inactive)
REMARK    1  A    between atoms: C2_3  and  N2_4 
ROOT
HETATM    1  N2  UNL     1      -1.148  10.247  10.041  1.00  0.00    -0.212 N 
HETATM    2  N3  UNL     1       0.079  10.691  10.253  1.00  0.00    -0.241 N 
ATOM      3  H3  UNL     1       0.731  10.335  10.952  1.00  0.00     0.192 HD
HETATM    4  C3  UNL     1       0.324  11.707   9.378  1.00  0.00     0.343 A 
HETATM    5  O1  UNL     1       1.411  12.317   9.353  1.00  0.00    -0.245 OA
HETATM    6  N4  UNL     1      -0.781  11.874   8.626  1.00  0.00    -0.258 N 
ATOM      7  H4  UNL     1      -0.902  12.561   7.882  1.00  0.00     0.175 HD
HETATM    8  C4  UNL     1      -1.692  10.978   9.028  1.00  0.00     0.349 A 
HETATM    9  O2  UNL     1      -2.847  10.830   8.561  1.00  0.00    -0.245 OA
ENDROOT
BRANCH   1  10
HETATM   10  C2  UNL     1      -1.777   9.190  10.752  1.00  0.00     0.136 C 
HETATM   11  C1  UNL     1      -1.331   8.853  11.947  1.00  0.00     0.119 C 
HETATM   12  N1  UNL     1      -1.935   7.792  12.703  1.00  0.00    -0.114 NA
ENDBRANCH   1  10
TORSDOF 1
ENDMDL
MODEL 2
REMARK VINA RESULT: -5.545806647      1.443      1.491
REMARK  1 active torsions:
REMARK  status: ('A' for Active; 'I' for Inactive)
REMARK    1  A    between atoms: C2_3  and  N2_4 
ROOT
HETATM    1  N2  UNL     1      -0.806   9.898   9.354  1.00  0.00    -0.212 N 
HETATM    2  N3  UNL     1       0.326  10.448   9.759  1.00  0.00    -0.241 N 
ATOM      3  H3  UNL     1       1.069   9.977  10.276  1.00  0.00     0.192 HD
HETATM    4  C3  UNL     1       0.329  11.755   9.370  1.00  0.00     0.343 A 
HETATM    5  O1  UNL     1       1.280  12.522   9.620  1.00  0.00    -0.245 OA
HETATM    6  N4  UNL     1      -0.824  11.990   8.717  1.00  0.00    -0.258 N 
ATOM      7  H4  UNL     1      -1.110  12.878   8.306  1.00  0.00     0.175 HD
HETATM    8  C4  UNL     1      -1.530  10.851   8.702  1.00  0.00     0.349 A 
HETATM    9  O2  UNL     1      -2.659  10.681   8.183  1.00  0.00    -0.245 OA
ENDROOT
BRANCH   1  10
HETATM   10  C2  UNL     1      -1.187   8.546   9.566  1.00  0.00     0.136 C 
HETATM   11  C1  UNL     1      -0.261   7.638   9.807  1.00  0.00     0.119 C 
HETATM   12  N1  UNL     1      -0.600   6.260  10.028  1.00  0.00    -0.114 NA
ENDBRANCH   1  10
TORSDOF 1
ENDMDL
MODEL 3
REMARK VINA RESULT: -5.272232302      2.073      3.167
REMARK  1 active torsions:
REMARK  status: ('A' for Active; 'I' for Inactive)
REMARK    1  A    between atoms: C2_3  and  N2_4 
ROOT
HETATM    1  N2  UNL     1      -0.650   9.514   9.086  1.00  0.00    -0.212 N 
HETATM    2  N3  UNL     1      -1.877   9.183   8.721  1.00  0.00    -0.241 N 
ATOM      3  H3  UNL     1      -2.208   8.239   8.525  1.00  0.00     0.192 HD
HETATM    4  C3  UNL     1      -2.624  10.321   8.652  1.00  0.00     0.343 A 
HETATM    5  O1  UNL     1      -3.829  10.308   8.330  1.00  0.00    -0.245 OA
HETATM    6  N4  UNL     1      -1.827  11.354   8.983  1.00  0.00    -0.258 N 
ATOM      7  H4  UNL     1      -2.102  12.336   9.022  1.00  0.00     0.175 HD
HETATM    8  C4  UNL     1      -0.609  10.866   9.251  1.00  0.00     0.349 A 
HETATM    9  O2  UNL     1       0.400  11.528   9.596  1.00  0.00    -0.245 OA
ENDROOT
BRANCH   1  10
HETATM   10  C2  UNL     1       0.428   8.607   9.269  1.00  0.00     0.136 C 
HETATM   11  C1  UNL     1       0.591   8.016  10.436  1.00  0.00     0.119 C 
HETATM   12  N1  UNL     1       1.666   7.092  10.668  1.00  0.00    -0.114 NA
ENDBRANCH   1  10
TORSDOF 1
ENDMDL
MODEL 4
REMARK VINA RESULT: -5.240807431      1.775      1.878
REMARK  1 active torsions:
REMARK  status: ('A' for Active; 'I' for Inactive)
REMARK    1  A    between atoms: C2_3  and  N2_4 
ROOT
HETATM    1  N2  UNL     1      -1.391   9.851   9.826  1.00  0.00    -0.212 N 
HETATM    2  N3  UNL     1      -0.462  10.401   9.063  1.00  0.00    -0.241 N 
ATOM      3  H3  UNL     1       0.475  10.672   9.364  1.00  0.00     0.192 HD
HETATM    4  C3  UNL     1      -0.969  10.543   7.806  1.00  0.00     0.343 A 
HETATM    5  O1  UNL     1      -0.306  11.038   6.873  1.00  0.00    -0.245 OA
HETATM    6  N4  UNL     1      -2.228  10.068   7.817  1.00  0.00    -0.258 N 
ATOM      7  H4  UNL     1      -2.865  10.039   7.021  1.00  0.00     0.175 HD
HETATM    8  C4  UNL     1      -2.497   9.639   9.057  1.00  0.00     0.349 A 
HETATM    9  O2  UNL     1      -3.573   9.131   9.453  1.00  0.00    -0.245 OA
ENDROOT
BRANCH   1  10
HETATM   10  C2  UNL     1      -1.249   9.539  11.204  1.00  0.00     0.136 C 
HETATM   11  C1  UNL     1      -0.501   8.515  11.568  1.00  0.00     0.119 C 
HETATM   12  N1  UNL     1      -0.328   8.164  12.949  1.00  0.00    -0.114 NA
ENDBRANCH   1  10
TORSDOF 1
ENDMDL
MODEL 5
REMARK VINA RESULT: -5.206219265      1.648      1.673
REMARK  1 active torsions:
REMARK  status: ('A' for Active; 'I' for Inactive)
REMARK    1  A    between atoms: C2_3  and  N2_4 
ROOT
HETATM    1  N2  UNL     1      -0.740   9.839  10.410  1.00  0.00    -0.212 N 
HETATM    2  N3  UNL     1      -0.479  11.129  10.542  1.00  0.00    -0.241 N 
ATOM      3  H3  UNL     1      -0.893  11.755  11.233  1.00  0.00     0.192 HD
HETATM    4  C3  UNL     1       0.439  11.478   9.596  1.00  0.00     0.343 A 
HETATM    5  O1  UNL     1       0.872  12.642   9.487  1.00  0.00    -0.245 OA
HETATM    6  N4  UNL     1       0.732  10.374   8.884  1.00  0.00    -0.258 N 
ATOM      7  H4  UNL     1       1.389  10.320   8.105  1.00  0.00     0.175 HD
HETATM    8  C4  UNL     1       0.011   9.360   9.378  1.00  0.00     0.349 A 
HETATM    9  O2  UNL     1       0.017   8.173   8.972  1.00  0.00    -0.245 OA
ENDROOT
BRANCH   1  10
HETATM   10  C2  UNL     1      -1.647   9.096  11.211  1.00  0.00     0.136 C 
HETATM   11  C1  UNL     1      -1.215   8.506  12.309  1.00  0.00     0.119 C 
HETATM   12  N1  UNL     1      -2.096   7.744  13.150  1.00  0.00    -0.114 NA
ENDBRANCH   1  10
TORSDOF 1
ENDMDL
