MODEL 1
REMARK VINA RESULT: -6.050023755      0.000      0.000
REMARK  5 active torsions:
REMARK  status: ('A' for Active; 'I' for Inactive)
REMARK    1  A    between atoms: C6_6  and  C7_7 
REMARK    2  A    between atoms: C7_7  and  O1_8 
REMARK    3  A    between atoms: N2_18  and  C15_19 
REMARK    4  A    between atoms: C15_19  and  C16_20 
REMARK    5  A    between atoms: C16_20  and  N3_21 
ROOT
HETATM    1  C1  UNL     1      22.783   4.823  20.310  1.00  0.00     0.021 C 
HETATM    2  C2  UNL     1      23.175   3.393  20.771  1.00  0.00    -0.010 C 
HETATM    3  C3  UNL     1      22.127   2.495  20.228  1.00  0.00     0.020 C 
HETATM    4  C4  UNL     1      21.781   1.361  21.118  1.00  0.00    -0.003 C 
HETATM    5  C5  UNL     1      21.072   2.068  22.305  1.00  0.00     0.018 C 
HETATM    6  C6  UNL     1      22.347   2.534  23.025  1.00  0.00    -0.001 C 
HETATM    7  C8  UNL     1      23.186   3.473  22.274  1.00  0.00     0.027 C 
HETATM    8  C9  UNL     1      22.950   1.160  23.239  1.00  0.00     0.112 C 
HETATM    9  C10 UNL     1      24.259   1.160  23.779  1.00  0.00     0.065 C 
HETATM   10  N1  UNL     1      25.315   1.161  24.237  1.00  0.00    -0.197 NA
HETATM   11  C11 UNL     1      22.809   0.595  21.827  1.00  0.00    -0.019 C 
HETATM   12  C12 UNL     1      22.214  -0.815  22.039  1.00  0.00     0.017 C 
HETATM   13  C13 UNL     1      24.136   0.426  21.254  1.00  0.00     0.056 C 
HETATM   14  C14 UNL     1      24.269   0.679  19.775  1.00  0.00     0.069 C 
HETATM   15  N2  UNL     1      24.746   1.953  19.451  1.00  0.00    -0.352 N 
HETATM   16  C17 UNL     1      24.534   3.086  20.200  1.00  0.00     0.077 C 
ENDROOT
BRANCH   6  17
HETATM   17  C7  UNL     1      21.971   3.078  24.390  1.00  0.00     0.175 C 
BRANCH  17  18
HETATM   18  O1  UNL     1      21.336   4.304  24.295  1.00  0.00    -0.400 OA
ATOM     19  H1  UNL     1      20.539   4.327  24.813  1.00  0.00     0.209 HD
ENDBRANCH  17  18
ENDBRANCH   6  17
BRANCH  15  20
HETATM   20  C15 UNL     1      25.540   1.959  18.289  1.00  0.00     0.095 C 
BRANCH  20  21
HETATM   21  C16 UNL     1      26.528   3.098  18.156  1.00  0.00     0.274 C 
BRANCH  21  22
HETATM   22  N3  UNL     1      26.479   3.708  16.871  1.00  0.00    -0.075 N 
ATOM     23  H33 UNL     1      26.533   3.011  16.129  1.00  0.00     0.274 HD
ATOM     24  H32 UNL     1      25.549   4.081  16.675  1.00  0.00     0.274 HD
ATOM     25  H31 UNL     1      27.195   4.426  16.756  1.00  0.00     0.274 HD
ENDBRANCH  21  22
ENDBRANCH  20  21
ENDBRANCH  15  20
TORSDOF 5
ENDMDL
MODEL 2
REMARK VINA RESULT: -5.973704327      0.972      1.092
REMARK  5 active torsions:
REMARK  status: ('A' for Active; 'I' for Inactive)
REMARK    1  A    between atoms: C6_6  and  C7_7 
REMARK    2  A    between atoms: C7_7  and  O1_8 
REMARK    3  A    between atoms: N2_18  and  C15_19 
REMARK    4  A    between atoms: C15_19  and  C16_20 
REMARK    5  A    between atoms: C16_20  and  N3_21 
ROOT
HETATM    1  C1  UNL     1      22.511   4.625  20.414  1.00  0.00     0.021 C 
HETATM    2  C2  UNL     1      22.961   3.211  20.874  1.00  0.00    -0.010 C 
HETATM    3  C3  UNL     1      21.891   2.286  20.427  1.00  0.00     0.020 C 
HETATM    4  C4  UNL     1      21.630   1.166  21.362  1.00  0.00    -0.003 C 
HETATM    5  C5  UNL     1      20.999   1.886  22.584  1.00  0.00     0.018 C 
HETATM    6  C6  UNL     1      22.314   2.387  23.199  1.00  0.00    -0.001 C 
HETATM    7  C8  UNL     1      23.080   3.323  22.370  1.00  0.00     0.027 C 
HETATM    8  C9  UNL     1      22.955   1.027  23.395  1.00  0.00     0.112 C 
HETATM    9  C10 UNL     1      24.300   1.060  23.838  1.00  0.00     0.065 C 
HETATM   10  N1  UNL     1      25.387   1.087  24.217  1.00  0.00    -0.197 NA
HETATM   11  C11 UNL     1      22.721   0.431  22.009  1.00  0.00    -0.019 C 
HETATM   12  C12 UNL     1      22.168  -0.984  22.292  1.00  0.00     0.017 C 
HETATM   13  C13 UNL     1      24.005   0.271  21.343  1.00  0.00     0.056 C 
HETATM   14  C14 UNL     1      24.025   0.495  19.854  1.00  0.00     0.069 C 
HETATM   15  N2  UNL     1      24.455   1.769  19.470  1.00  0.00    -0.352 N 
HETATM   16  C17 UNL     1      24.278   2.914  20.210  1.00  0.00     0.077 C 
ENDROOT
BRANCH   6  17
HETATM   17  C7  UNL     1      22.030   2.954  24.577  1.00  0.00     0.175 C 
BRANCH  17  18
HETATM   18  O1  UNL     1      21.336   4.149  24.505  1.00  0.00    -0.400 OA
ATOM     19  H1  UNL     1      20.438   4.052  24.801  1.00  0.00     0.209 HD
ENDBRANCH  17  18
ENDBRANCH   6  17
BRANCH  15  20
HETATM   20  C15 UNL     1      25.161   1.762  18.253  1.00  0.00     0.095 C 
BRANCH  20  21
HETATM   21  C16 UNL     1      25.392   0.407  17.619  1.00  0.00     0.274 C 
BRANCH  21  22
HETATM   22  N3  UNL     1      24.807   0.310  16.325  1.00  0.00    -0.075 N 
ATOM     23  H33 UNL     1      24.398   1.200  16.037  1.00  0.00     0.274 HD
ATOM     24  H32 UNL     1      25.523   0.220  15.603  1.00  0.00     0.274 HD
ATOM     25  H31 UNL     1      24.125  -0.446  16.264  1.00  0.00     0.274 HD
ENDBRANCH  21  22
ENDBRANCH  20  21
ENDBRANCH  15  20
TORSDOF 5
ENDMDL
MODEL 3
REMARK VINA RESULT: -5.968217569      2.730      4.255
REMARK  5 active torsions:
REMARK  status: ('A' for Active; 'I' for Inactive)
REMARK    1  A    between atoms: C6_6  and  C7_7 
REMARK    2  A    between atoms: C7_7  and  O1_8 
REMARK    3  A    between atoms: N2_18  and  C15_19 
REMARK    4  A    between atoms: C15_19  and  C16_20 
REMARK    5  A    between atoms: C16_20  and  N3_21 
ROOT
HETATM    1  C1  UNL     1      24.137   1.415  19.653  1.00  0.00     0.021 C 
HETATM    2  C2  UNL     1      23.141   1.979  20.704  1.00  0.00    -0.010 C 
HETATM    3  C3  UNL     1      23.967   2.349  21.880  1.00  0.00     0.020 C 
HETATM    4  C4  UNL     1      23.304   2.111  23.184  1.00  0.00    -0.003 C 
HETATM    5  C5  UNL     1      23.246   0.561  23.255  1.00  0.00     0.018 C 
HETATM    6  C6  UNL     1      22.020   0.384  22.347  1.00  0.00    -0.001 C 
HETATM    7  C8  UNL     1      22.188   0.843  20.966  1.00  0.00     0.027 C 
HETATM    8  C9  UNL     1      21.052   1.197  23.184  1.00  0.00     0.112 C 
HETATM    9  C10 UNL     1      19.781   1.401  22.595  1.00  0.00     0.065 C 
HETATM   10  N1  UNL     1      18.740   1.549  22.125  1.00  0.00    -0.197 NA
HETATM   11  C11 UNL     1      21.895   2.450  23.406  1.00  0.00    -0.019 C 
HETATM   12  C12 UNL     1      21.763   2.734  24.919  1.00  0.00     0.017 C 
HETATM   13  C13 UNL     1      21.280   3.563  22.699  1.00  0.00     0.056 C 
HETATM   14  C14 UNL     1      22.214   4.578  22.096  1.00  0.00     0.069 C 
HETATM   15  N2  UNL     1      22.462   4.391  20.732  1.00  0.00    -0.352 N 
HETATM   16  C17 UNL     1      22.462   3.174  20.092  1.00  0.00     0.077 C 
ENDROOT
BRANCH   6  17
HETATM   17  C7  UNL     1      21.565  -1.062  22.411  1.00  0.00     0.175 C 
BRANCH  17  18
HETATM   18  O1  UNL     1      21.452  -1.506  23.717  1.00  0.00    -0.400 OA
ATOM     19  H1  UNL     1      21.631  -0.812  24.340  1.00  0.00     0.209 HD
ENDBRANCH  17  18
ENDBRANCH   6  17
BRANCH  15  20
HETATM   20  C15 UNL     1      22.652   5.602  20.041  1.00  0.00     0.095 C 
BRANCH  20  21
HETATM   21  C16 UNL     1      22.498   6.870  20.855  1.00  0.00     0.274 C 
BRANCH  21  22
HETATM   22  N3  UNL     1      22.072   7.972  20.062  1.00  0.00    -0.075 N 
ATOM     23  H33 UNL     1      21.694   7.658  19.167  1.00  0.00     0.274 HD
ATOM     24  H32 UNL     1      21.232   8.403  20.450  1.00  0.00     0.274 HD
ATOM     25  H31 UNL     1      22.811   8.662  19.928  1.00  0.00     0.274 HD
ENDBRANCH  21  22
ENDBRANCH  20  21
ENDBRANCH  15  20
TORSDOF 5
ENDMDL
MODEL 4
REMARK VINA RESULT: -5.959576877      1.446      1.533
REMARK  5 active torsions:
REMARK  status: ('A' for Active; 'I' for Inactive)
REMARK    1  A    between atoms: C6_6  and  C7_7 
REMARK    2  A    between atoms: C7_7  and  O1_8 
REMARK    3  A    between atoms: N2_18  and  C15_19 
REMARK    4  A    between atoms: C15_19  and  C16_20 
REMARK    5  A    between atoms: C16_20  and  N3_21 
ROOT
HETATM    1  C1  UNL     1      22.591   4.573  21.722  1.00  0.00     0.021 C 
HETATM    2  C2  UNL     1      22.721   3.033  21.879  1.00  0.00    -0.010 C 
HETATM    3  C3  UNL     1      21.531   2.460  21.203  1.00  0.00     0.020 C 
HETATM    4  C4  UNL     1      20.985   1.250  21.861  1.00  0.00    -0.003 C 
HETATM    5  C5  UNL     1      20.410   1.817  23.187  1.00  0.00     0.018 C 
HETATM    6  C6  UNL     1      21.745   1.898  23.943  1.00  0.00    -0.001 C 
HETATM    7  C8  UNL     1      22.740   2.807  23.366  1.00  0.00     0.027 C 
HETATM    8  C9  UNL     1      22.092   0.425  23.861  1.00  0.00     0.112 C 
HETATM    9  C10 UNL     1      23.378   0.088  24.348  1.00  0.00     0.065 C 
HETATM   10  N1  UNL     1      24.416  -0.189  24.763  1.00  0.00    -0.197 NA
HETATM   11  C11 UNL     1      21.858   0.188  22.371  1.00  0.00    -0.019 C 
HETATM   12  C12 UNL     1      21.020  -1.109  22.319  1.00  0.00     0.017 C 
HETATM   13  C13 UNL     1      23.135  -0.092  21.733  1.00  0.00     0.056 C 
HETATM   14  C14 UNL     1      23.316   0.425  20.330  1.00  0.00     0.069 C 
HETATM   15  N2  UNL     1      24.013   1.635  20.249  1.00  0.00    -0.352 N 
HETATM   16  C17 UNL     1      24.004   2.614  21.214  1.00  0.00     0.077 C 
ENDROOT
BRANCH   6  17
HETATM   17  C7  UNL     1      21.467   2.215  25.401  1.00  0.00     0.175 C 
BRANCH  17  18
HETATM   18  O1  UNL     1      22.125   3.362  25.809  1.00  0.00    -0.400 OA
ATOM     19  H1  UNL     1      22.234   3.387  26.753  1.00  0.00     0.209 HD
ENDBRANCH  17  18
ENDBRANCH   6  17
BRANCH  15  20
HETATM   20  C15 UNL     1      24.799   1.733  19.086  1.00  0.00     0.095 C 
BRANCH  20  21
HETATM   21  C16 UNL     1      24.103   2.256  17.848  1.00  0.00     0.274 C 
BRANCH  21  22
HETATM   22  N3  UNL     1      24.392   1.474  16.694  1.00  0.00    -0.075 N 
ATOM     23  H33 UNL     1      25.205   0.877  16.848  1.00  0.00     0.274 HD
ATOM     24  H32 UNL     1      23.686   0.752  16.552  1.00  0.00     0.274 HD
ATOM     25  H31 UNL     1      24.508   2.046  15.857  1.00  0.00     0.274 HD
ENDBRANCH  21  22
ENDBRANCH  20  21
ENDBRANCH  15  20
TORSDOF 5
ENDMDL
MODEL 5
REMARK VINA RESULT: -5.753175140      2.711      4.267
REMARK  5 active torsions:
REMARK  status: ('A' for Active; 'I' for Inactive)
REMARK    1  A    between atoms: C6_6  and  C7_7 
REMARK    2  A    between atoms: C7_7  and  O1_8 
REMARK    3  A    between atoms: N2_18  and  C15_19 
REMARK    4  A    between atoms: C15_19  and  C16_20 
REMARK    5  A    between atoms: C16_20  and  N3_21 
ROOT
HETATM    1  C1  UNL     1      19.729   2.509  24.368  1.00  0.00     0.021 C 
HETATM    2  C2  UNL     1      21.022   2.365  23.518  1.00  0.00    -0.010 C 
HETATM    3  C3  UNL     1      20.565   2.009  22.153  1.00  0.00     0.020 C 
HETATM    4  C4  UNL     1      21.461   1.065  21.442  1.00  0.00    -0.003 C 
HETATM    5  C5  UNL     1      21.268  -0.251  22.244  1.00  0.00     0.018 C 
HETATM    6  C6  UNL     1      22.203   0.108  23.409  1.00  0.00    -0.001 C 
HETATM    7  C8  UNL     1      21.801   1.274  24.201  1.00  0.00     0.027 C 
HETATM    8  C9  UNL     1      23.461   0.291  22.585  1.00  0.00     0.112 C 
HETATM    9  C10 UNL     1      24.578   0.782  23.303  1.00  0.00     0.065 C 
HETATM   10  N1  UNL     1      25.492   1.162  23.893  1.00  0.00    -0.197 NA
HETATM   11  C11 UNL     1      22.919   1.203  21.487  1.00  0.00    -0.019 C 
HETATM   12  C12 UNL     1      23.443   0.575  20.176  1.00  0.00     0.017 C 
HETATM   13  C13 UNL     1      23.536   2.515  21.617  1.00  0.00     0.056 C 
HETATM   14  C14 UNL     1      22.675   3.702  21.275  1.00  0.00     0.069 C 
HETATM   15  N2  UNL     1      22.091   4.327  22.382  1.00  0.00    -0.352 N 
HETATM   16  C17 UNL     1      21.736   3.690  23.547  1.00  0.00     0.077 C 
ENDROOT
BRANCH   6  17
HETATM   17  C7  UNL     1      22.406  -1.121  24.274  1.00  0.00     0.175 C 
BRANCH  17  18
HETATM   18  O1  UNL     1      21.783  -0.990  25.503  1.00  0.00    -0.400 OA
ATOM     19  H1  UNL     1      20.837  -1.030  25.423  1.00  0.00     0.209 HD
ENDBRANCH  17  18
ENDBRANCH   6  17
BRANCH  15  20
HETATM   20  C15 UNL     1      21.956   5.718  22.214  1.00  0.00     0.095 C 
BRANCH  20  21
HETATM   21  C16 UNL     1      20.969   6.411  23.128  1.00  0.00     0.274 C 
BRANCH  21  22
HETATM   22  N3  UNL     1      20.622   7.710  22.662  1.00  0.00    -0.075 N 
ATOM     23  H33 UNL     1      21.436   8.324  22.642  1.00  0.00     0.274 HD
ATOM     24  H32 UNL     1      20.403   7.698  21.665  1.00  0.00     0.274 HD
ATOM     25  H31 UNL     1      19.861   8.125  23.201  1.00  0.00     0.274 HD
ENDBRANCH  21  22
ENDBRANCH  20  21
ENDBRANCH  15  20
TORSDOF 5
ENDMDL
