MODEL 1
REMARK VINA RESULT: -8.587861396      0.000      0.000
REMARK  5 active torsions:
REMARK  status: ('A' for Active; 'I' for Inactive)
REMARK    1  A    between atoms: C4_4  and  C5_5 
REMARK    2  A    between atoms: C5_5  and  C6_6 
REMARK    3  A    between atoms: C6_6  and  C7_7 
REMARK    4  A    between atoms: C7_7  and  S1_8 
REMARK    5  A    between atoms: S1_8  and  C8_9 
ROOT
HETATM    1  C8  UNL     1     -14.141  60.627  34.291  1.00  0.00     0.011 A 
HETATM    2  C9  UNL     1     -14.822  59.429  34.229  1.00  0.00     0.019 A 
HETATM    3  C10 UNL     1     -15.326  58.922  35.410  1.00  0.00     0.002 A 
HETATM    4  C11 UNL     1     -15.142  59.606  36.605  1.00  0.00     0.012 A 
HETATM    5  C12 UNL     1     -14.453  60.803  36.622  1.00  0.00    -0.025 A 
HETATM    6  C13 UNL     1     -14.254  61.505  37.792  1.00  0.00     0.012 A 
HETATM    7  C14 UNL     1     -13.559  62.709  37.807  1.00  0.00     0.001 A 
HETATM    8  C15 UNL     1     -13.042  63.245  36.645  1.00  0.00     0.001 A 
HETATM    9  C16 UNL     1     -13.244  62.541  35.474  1.00  0.00     0.013 A 
HETATM   10  C17 UNL     1     -13.941  61.332  35.456  1.00  0.00    -0.009 A 
ENDROOT
BRANCH   1  11
HETATM   11  S1  UNL     1     -13.470  61.330  32.790  1.00  0.00    -0.129 SA
BRANCH  11  12
HETATM   12  C7  UNL     1     -11.687  60.935  32.806  1.00  0.00     0.080 C 
BRANCH  12  13
HETATM   13  C6  UNL     1     -11.466  59.523  33.327  1.00  0.00     0.015 C 
BRANCH  13  14
HETATM   14  C5  UNL     1     -10.495  59.546  34.467  1.00  0.00     0.039 C 
BRANCH  14  15
HETATM   15  C4  UNL     1     -10.704  58.340  35.332  1.00  0.00    -0.058 A 
HETATM   16  C3  UNL     1      -9.964  57.201  35.145  1.00  0.00     0.007 A 
HETATM   17  C2  UNL     1     -10.185  56.116  35.967  1.00  0.00     0.001 A 
HETATM   18  C1  UNL     1     -11.132  56.142  36.977  1.00  0.00     0.000 A 
HETATM   19  C19 UNL     1     -11.853  57.304  37.131  1.00  0.00     0.001 A 
HETATM   20  C18 UNL     1     -11.651  58.400  36.323  1.00  0.00     0.007 A 
ENDBRANCH  14  15
ENDBRANCH  13  14
ENDBRANCH  12  13
ENDBRANCH  11  12
ENDBRANCH   1  11
TORSDOF 5
ENDMDL
MODEL 2
REMARK VINA RESULT: -8.574226274      0.671      2.615
REMARK  5 active torsions:
REMARK  status: ('A' for Active; 'I' for Inactive)
REMARK    1  A    between atoms: C4_4  and  C5_5 
REMARK    2  A    between atoms: C5_5  and  C6_6 
REMARK    3  A    between atoms: C6_6  and  C7_7 
REMARK    4  A    between atoms: C7_7  and  S1_8 
REMARK    5  A    between atoms: S1_8  and  C8_9 
ROOT
HETATM    1  C8  UNL     1     -13.659  61.853  35.065  1.00  0.00     0.011 A 
HETATM    2  C9  UNL     1     -13.149  63.012  35.610  1.00  0.00     0.019 A 
HETATM    3  C10 UNL     1     -13.230  63.161  36.980  1.00  0.00     0.002 A 
HETATM    4  C11 UNL     1     -13.811  62.170  37.762  1.00  0.00     0.012 A 
HETATM    5  C12 UNL     1     -14.310  61.025  37.175  1.00  0.00    -0.025 A 
HETATM    6  C13 UNL     1     -14.892  60.024  37.925  1.00  0.00     0.012 A 
HETATM    7  C14 UNL     1     -15.396  58.872  37.332  1.00  0.00     0.001 A 
HETATM    8  C15 UNL     1     -15.330  58.691  35.965  1.00  0.00     0.001 A 
HETATM    9  C16 UNL     1     -14.746  59.693  35.216  1.00  0.00     0.013 A 
HETATM   10  C17 UNL     1     -14.240  60.850  35.809  1.00  0.00    -0.009 A 
ENDROOT
BRANCH   1  11
HETATM   11  S1  UNL     1     -13.577  61.608  33.295  1.00  0.00    -0.129 SA
BRANCH  11  12
HETATM   12  C7  UNL     1     -11.837  61.196  32.928  1.00  0.00     0.080 C 
BRANCH  12  13
HETATM   13  C6  UNL     1     -11.512  59.795  33.423  1.00  0.00     0.015 C 
BRANCH  13  14
HETATM   14  C5  UNL     1     -10.762  59.872  34.717  1.00  0.00     0.039 C 
BRANCH  14  15
HETATM   15  C4  UNL     1     -10.741  58.523  35.369  1.00  0.00    -0.058 A 
HETATM   16  C3  UNL     1     -11.558  58.241  36.435  1.00  0.00     0.007 A 
HETATM   17  C2  UNL     1     -11.510  56.985  37.001  1.00  0.00     0.001 A 
HETATM   18  C1  UNL     1     -10.663  55.998  36.526  1.00  0.00     0.000 A 
HETATM   19  C19 UNL     1      -9.860  56.321  35.456  1.00  0.00     0.001 A 
HETATM   20  C18 UNL     1      -9.889  57.568  34.873  1.00  0.00     0.007 A 
ENDBRANCH  14  15
ENDBRANCH  13  14
ENDBRANCH  12  13
ENDBRANCH  11  12
ENDBRANCH   1  11
TORSDOF 5
ENDMDL
MODEL 3
REMARK VINA RESULT: -8.557878710      0.100      1.064
REMARK  5 active torsions:
REMARK  status: ('A' for Active; 'I' for Inactive)
REMARK    1  A    between atoms: C4_4  and  C5_5 
REMARK    2  A    between atoms: C5_5  and  C6_6 
REMARK    3  A    between atoms: C6_6  and  C7_7 
REMARK    4  A    between atoms: C7_7  and  S1_8 
REMARK    5  A    between atoms: S1_8  and  C8_9 
ROOT
HETATM    1  C8  UNL     1     -14.194  60.615  34.298  1.00  0.00     0.011 A 
HETATM    2  C9  UNL     1     -14.866  59.412  34.245  1.00  0.00     0.019 A 
HETATM    3  C10 UNL     1     -15.353  58.902  35.432  1.00  0.00     0.002 A 
HETATM    4  C11 UNL     1     -15.160  59.588  36.624  1.00  0.00     0.012 A 
HETATM    5  C12 UNL     1     -14.480  60.790  36.632  1.00  0.00    -0.025 A 
HETATM    6  C13 UNL     1     -14.273  61.494  37.800  1.00  0.00     0.012 A 
HETATM    7  C14 UNL     1     -13.587  62.703  37.807  1.00  0.00     0.001 A 
HETATM    8  C15 UNL     1     -13.088  63.242  36.638  1.00  0.00     0.001 A 
HETATM    9  C16 UNL     1     -13.298  62.536  35.470  1.00  0.00     0.013 A 
HETATM   10  C17 UNL     1     -13.985  61.322  35.461  1.00  0.00    -0.009 A 
ENDROOT
BRANCH   1  11
HETATM   11  S1  UNL     1     -13.545  61.322  32.789  1.00  0.00    -0.129 SA
BRANCH  11  12
HETATM   12  C7  UNL     1     -11.749  60.995  32.815  1.00  0.00     0.080 C 
BRANCH  12  13
HETATM   13  C6  UNL     1     -11.483  59.556  33.231  1.00  0.00     0.015 C 
BRANCH  13  14
HETATM   14  C5  UNL     1     -10.399  59.515  34.264  1.00  0.00     0.039 C 
BRANCH  14  15
HETATM   15  C4  UNL     1     -10.662  58.397  35.227  1.00  0.00    -0.058 A 
HETATM   16  C3  UNL     1     -11.620  58.516  36.202  1.00  0.00     0.007 A 
HETATM   17  C2  UNL     1     -11.833  57.460  37.063  1.00  0.00     0.001 A 
HETATM   18  C1  UNL     1     -11.109  56.283  36.975  1.00  0.00     0.000 A 
HETATM   19  C19 UNL     1     -10.157  56.205  35.983  1.00  0.00     0.001 A 
HETATM   20  C18 UNL     1      -9.926  57.245  35.111  1.00  0.00     0.007 A 
ENDBRANCH  14  15
ENDBRANCH  13  14
ENDBRANCH  12  13
ENDBRANCH  11  12
ENDBRANCH   1  11
TORSDOF 5
ENDMDL
MODEL 4
REMARK VINA RESULT: -8.262377528      4.570      7.048
REMARK  5 active torsions:
REMARK  status: ('A' for Active; 'I' for Inactive)
REMARK    1  A    between atoms: C4_4  and  C5_5 
REMARK    2  A    between atoms: C5_5  and  C6_6 
REMARK    3  A    between atoms: C6_6  and  C7_7 
REMARK    4  A    between atoms: C7_7  and  S1_8 
REMARK    5  A    between atoms: S1_8  and  C8_9 
ROOT
HETATM    1  C8  UNL     1     -11.277  56.667  37.038  1.00  0.00     0.011 A 
HETATM    2  C9  UNL     1     -10.481  55.600  36.678  1.00  0.00     0.019 A 
HETATM    3  C10 UNL     1      -9.681  55.752  35.562  1.00  0.00     0.002 A 
HETATM    4  C11 UNL     1      -9.694  56.941  34.844  1.00  0.00     0.012 A 
HETATM    5  C12 UNL     1     -10.507  57.984  35.240  1.00  0.00    -0.025 A 
HETATM    6  C13 UNL     1     -10.541  59.176  34.547  1.00  0.00     0.012 A 
HETATM    7  C14 UNL     1     -11.361  60.225  34.946  1.00  0.00     0.001 A 
HETATM    8  C15 UNL     1     -12.173  60.108  36.057  1.00  0.00     0.001 A 
HETATM    9  C16 UNL     1     -12.136  58.914  36.750  1.00  0.00     0.013 A 
HETATM   10  C17 UNL     1     -11.314  57.860  36.351  1.00  0.00    -0.009 A 
ENDROOT
BRANCH   1  11
HETATM   11  S1  UNL     1     -12.330  56.526  38.477  1.00  0.00    -0.129 SA
BRANCH  11  12
HETATM   12  C7  UNL     1     -11.731  55.066  39.394  1.00  0.00     0.080 C 
BRANCH  12  13
HETATM   13  C6  UNL     1     -12.685  53.896  39.201  1.00  0.00     0.015 C 
BRANCH  13  14
HETATM   14  C5  UNL     1     -12.081  52.647  39.765  1.00  0.00     0.039 C 
BRANCH  14  15
HETATM   15  C4  UNL     1     -12.764  52.291  41.051  1.00  0.00    -0.058 A 
HETATM   16  C3  UNL     1     -12.164  52.535  42.260  1.00  0.00     0.007 A 
HETATM   17  C2  UNL     1     -12.830  52.197  43.418  1.00  0.00     0.001 A 
HETATM   18  C1  UNL     1     -14.089  51.619  43.399  1.00  0.00     0.000 A 
HETATM   19  C19 UNL     1     -14.655  51.391  42.165  1.00  0.00     0.001 A 
HETATM   20  C18 UNL     1     -14.010  51.719  40.994  1.00  0.00     0.007 A 
ENDBRANCH  14  15
ENDBRANCH  13  14
ENDBRANCH  12  13
ENDBRANCH  11  12
ENDBRANCH   1  11
TORSDOF 5
ENDMDL
MODEL 5
REMARK VINA RESULT: -8.245313419      4.953      7.491
REMARK  5 active torsions:
REMARK  status: ('A' for Active; 'I' for Inactive)
REMARK    1  A    between atoms: C4_4  and  C5_5 
REMARK    2  A    between atoms: C5_5  and  C6_6 
REMARK    3  A    between atoms: C6_6  and  C7_7 
REMARK    4  A    between atoms: C7_7  and  S1_8 
REMARK    5  A    between atoms: S1_8  and  C8_9 
ROOT
HETATM    1  C8  UNL     1     -11.736  55.549  37.635  1.00  0.00     0.011 A 
HETATM    2  C9  UNL     1     -12.919  55.737  38.318  1.00  0.00     0.019 A 
HETATM    3  C10 UNL     1     -13.563  56.948  38.154  1.00  0.00     0.002 A 
HETATM    4  C11 UNL     1     -13.022  57.926  37.330  1.00  0.00     0.012 A 
HETATM    5  C12 UNL     1     -11.834  57.696  36.664  1.00  0.00    -0.025 A 
HETATM    6  C13 UNL     1     -11.273  58.648  35.839  1.00  0.00     0.012 A 
HETATM    7  C14 UNL     1     -10.076  58.415  35.171  1.00  0.00     0.001 A 
HETATM    8  C15 UNL     1      -9.407  57.215  35.312  1.00  0.00     0.001 A 
HETATM    9  C16 UNL     1      -9.971  56.263  36.138  1.00  0.00     0.013 A 
HETATM   10  C17 UNL     1     -11.172  56.495  36.809  1.00  0.00    -0.009 A 
ENDROOT
BRANCH   1  11
HETATM   11  S1  UNL     1     -10.862  53.998  37.810  1.00  0.00    -0.129 SA
BRANCH  11  12
HETATM   12  C7  UNL     1     -12.135  52.693  37.708  1.00  0.00     0.080 C 
BRANCH  12  13
HETATM   13  C6  UNL     1     -12.123  51.848  38.974  1.00  0.00     0.015 C 
BRANCH  13  14
HETATM   14  C5  UNL     1     -11.939  52.728  40.172  1.00  0.00     0.039 C 
BRANCH  14  15
HETATM   15  C4  UNL     1     -12.819  52.250  41.288  1.00  0.00    -0.058 A 
HETATM   16  C3  UNL     1     -12.438  52.392  42.598  1.00  0.00     0.007 A 
HETATM   17  C2  UNL     1     -13.280  51.944  43.592  1.00  0.00     0.001 A 
HETATM   18  C1  UNL     1     -14.501  51.353  43.310  1.00  0.00     0.000 A 
HETATM   19  C19 UNL     1     -14.845  51.229  41.983  1.00  0.00     0.001 A 
HETATM   20  C18 UNL     1     -14.021  51.669  40.971  1.00  0.00     0.007 A 
ENDBRANCH  14  15
ENDBRANCH  13  14
ENDBRANCH  12  13
ENDBRANCH  11  12
ENDBRANCH   1  11
TORSDOF 5
ENDMDL
