MODEL 1
REMARK VINA RESULT: -8.123843258      0.000      0.000
REMARK  3 active torsions:
REMARK  status: ('A' for Active; 'I' for Inactive)
REMARK    1  A    between atoms: C4_5  and  C5_6 
REMARK    2  A    between atoms: C5_6  and  C6_8 
REMARK    3  A    between atoms: C8_10  and  N1_11 
ROOT
HETATM    1  C1  UNL     1      19.264   8.416  14.013  1.00  0.00     0.051 C 
HETATM    2  C2  UNL     1      18.584   7.163  13.687  1.00  0.00    -0.026 A 
HETATM    3  C3  UNL     1      17.375   6.812  14.307  1.00  0.00     0.056 A 
HETATM    4 CL1  UNL     1      16.711   7.943  15.494  1.00  0.00    -0.083 Cl
HETATM    5  C4  UNL     1      16.658   5.688  14.089  1.00  0.00     0.055 A 
HETATM    6  C9  UNL     1      17.158   4.794  13.168  1.00  0.00     0.062 A 
HETATM    7 CL2  UNL     1      16.332   3.301  12.791  1.00  0.00    -0.082 Cl
HETATM    8  C10 UNL     1      18.341   5.046  12.504  1.00  0.00     0.015 A 
HETATM    9  C11 UNL     1      18.855   4.167  11.582  1.00  0.00     0.105 A 
HETATM   10  N2  UNL     1      19.999   4.396  10.929  1.00  0.00    -0.331 N 
ATOM     11  H2  UNL     1      20.348   3.718  10.252  1.00  0.00     0.168 HD
HETATM   12  C12 UNL     1      20.680   5.516  11.169  1.00  0.00     0.268 A 
HETATM   13  O4  UNL     1      21.762   5.793  10.590  1.00  0.00    -0.266 OA
HETATM   14  C13 UNL     1      20.223   6.453  12.088  1.00  0.00     0.113 A 
HETATM   15 CL3  UNL     1      21.122   7.908  12.390  1.00  0.00    -0.077 Cl
HETATM   16  C14 UNL     1      19.051   6.226  12.762  1.00  0.00     0.012 A 
ENDROOT
BRANCH   5  17
HETATM   17  C5  UNL     1      15.403   5.336  14.740  1.00  0.00     0.169 C 
HETATM   18  O1  UNL     1      14.382   5.335  14.012  1.00  0.00    -0.292 OA
BRANCH  17  19
HETATM   19  C6  UNL     1      15.296   4.994  16.164  1.00  0.00     0.092 A 
HETATM   20  C7  UNL     1      14.497   3.746  16.487  1.00  0.00     0.047 A 
HETATM   21  C8  UNL     1      15.942   3.867  16.818  1.00  0.00     0.168 A 
BRANCH  21  22
HETATM   22  N1  UNL     1      16.814   2.913  16.211  1.00  0.00    -0.150 N 
HETATM   23  O2  UNL     1      18.050   3.195  16.169  1.00  0.00    -0.536 OA
HETATM   24  O3  UNL     1      16.446   1.709  15.661  1.00  0.00    -0.536 OA
ENDBRANCH  21  22
ENDBRANCH  17  19
ENDBRANCH   5  17
TORSDOF 3
ENDMDL
MODEL 2
REMARK VINA RESULT: -8.052741371      2.449      5.538
REMARK  3 active torsions:
REMARK  status: ('A' for Active; 'I' for Inactive)
REMARK    1  A    between atoms: C4_5  and  C5_6 
REMARK    2  A    between atoms: C5_6  and  C6_8 
REMARK    3  A    between atoms: C8_10  and  N1_11 
ROOT
HETATM    1  C1  UNL     1      14.876   6.590  15.555  1.00  0.00     0.051 C 
HETATM    2  C2  UNL     1      15.639   5.666  14.715  1.00  0.00    -0.026 A 
HETATM    3  C3  UNL     1      16.130   6.064  13.462  1.00  0.00     0.056 A 
HETATM    4 CL1  UNL     1      15.791   7.721  12.943  1.00  0.00    -0.083 Cl
HETATM    5  C4  UNL     1      16.844   5.305  12.602  1.00  0.00     0.055 A 
HETATM    6  C9  UNL     1      17.119   4.011  12.988  1.00  0.00     0.062 A 
HETATM    7 CL2  UNL     1      18.033   2.922  11.972  1.00  0.00    -0.082 Cl
HETATM    8  C10 UNL     1      16.680   3.523  14.202  1.00  0.00     0.015 A 
HETATM    9  C11 UNL     1      16.946   2.237  14.604  1.00  0.00     0.105 A 
HETATM   10  N2  UNL     1      16.528   1.749  15.776  1.00  0.00    -0.331 N 
ATOM     11  H2  UNL     1      16.745   0.788  16.039  1.00  0.00     0.168 HD
HETATM   12  C12 UNL     1      15.826   2.527  16.600  1.00  0.00     0.268 A 
HETATM   13  O4  UNL     1      15.404   2.131  17.717  1.00  0.00    -0.266 OA
HETATM   14  C13 UNL     1      15.519   3.839  16.262  1.00  0.00     0.113 A 
HETATM   15 CL3  UNL     1      14.604   4.841  17.347  1.00  0.00    -0.077 Cl
HETATM   16  C14 UNL     1      15.944   4.348  15.062  1.00  0.00     0.012 A 
ENDROOT
BRANCH   5  17
HETATM   17  C5  UNL     1      17.349   5.731  11.303  1.00  0.00     0.169 C 
HETATM   18  O1  UNL     1      16.503   5.824  10.383  1.00  0.00    -0.292 OA
BRANCH  17  19
HETATM   19  C6  UNL     1      18.760   6.044  11.045  1.00  0.00     0.092 A 
HETATM   20  C7  UNL     1      19.109   7.518  10.978  1.00  0.00     0.047 A 
HETATM   21  C8  UNL     1      19.693   6.615  12.004  1.00  0.00     0.168 A 
BRANCH  21  22
HETATM   22  N1  UNL     1      19.422   6.942  13.367  1.00  0.00    -0.150 N 
HETATM   23  O2  UNL     1      19.071   8.134  13.623  1.00  0.00    -0.536 OA
HETATM   24  O3  UNL     1      19.506   6.089  14.441  1.00  0.00    -0.536 OA
ENDBRANCH  21  22
ENDBRANCH  17  19
ENDBRANCH   5  17
TORSDOF 3
ENDMDL
MODEL 3
REMARK VINA RESULT: -7.856521543      1.289      2.714
REMARK  3 active torsions:
REMARK  status: ('A' for Active; 'I' for Inactive)
REMARK    1  A    between atoms: C4_5  and  C5_6 
REMARK    2  A    between atoms: C5_6  and  C6_8 
REMARK    3  A    between atoms: C8_10  and  N1_11 
ROOT
HETATM    1  C1  UNL     1      18.916   3.610  11.349  1.00  0.00     0.051 C 
HETATM    2  C2  UNL     1      18.471   4.676  12.247  1.00  0.00    -0.026 A 
HETATM    3  C3  UNL     1      17.291   4.546  12.996  1.00  0.00     0.056 A 
HETATM    4 CL1  UNL     1      16.368   3.049  12.810  1.00  0.00    -0.083 Cl
HETATM    5  C4  UNL     1      16.781   5.457  13.853  1.00  0.00     0.055 A 
HETATM    6  C9  UNL     1      17.485   6.631  14.012  1.00  0.00     0.062 A 
HETATM    7 CL2  UNL     1      16.939   7.894  15.090  1.00  0.00    -0.082 Cl
HETATM    8  C10 UNL     1      18.658   6.855  13.321  1.00  0.00     0.015 A 
HETATM    9  C11 UNL     1      19.373   8.019  13.467  1.00  0.00     0.105 A 
HETATM   10  N2  UNL     1      20.511   8.252  12.805  1.00  0.00    -0.331 N 
ATOM     11  H2  UNL     1      21.013   9.129  12.940  1.00  0.00     0.168 HD
HETATM   12  C12 UNL     1      20.985   7.330  11.966  1.00  0.00     0.268 A 
HETATM   13  O4  UNL     1      22.048   7.486  11.313  1.00  0.00    -0.266 OA
HETATM   14  C13 UNL     1      20.316   6.128  11.767  1.00  0.00     0.113 A 
HETATM   15 CL3  UNL     1      20.947   4.936  10.671  1.00  0.00    -0.077 Cl
HETATM   16  C14 UNL     1      19.149   5.881  12.442  1.00  0.00     0.012 A 
ENDROOT
BRANCH   5  17
HETATM   17  C5  UNL     1      15.554   5.310  14.625  1.00  0.00     0.169 C 
HETATM   18  O1  UNL     1      14.482   5.351  13.976  1.00  0.00    -0.292 OA
BRANCH  17  19
HETATM   19  C6  UNL     1      15.530   5.122  16.081  1.00  0.00     0.092 A 
HETATM   20  C7  UNL     1      14.583   4.054  16.594  1.00  0.00     0.047 A 
HETATM   21  C8  UNL     1      16.053   3.968  16.797  1.00  0.00     0.168 A 
BRANCH  21  22
HETATM   22  N1  UNL     1      16.708   2.835  16.228  1.00  0.00    -0.150 N 
HETATM   23  O2  UNL     1      17.959   2.916  16.038  1.00  0.00    -0.536 OA
HETATM   24  O3  UNL     1      16.112   1.652  15.858  1.00  0.00    -0.536 OA
ENDBRANCH  21  22
ENDBRANCH  17  19
ENDBRANCH   5  17
TORSDOF 3
ENDMDL
MODEL 4
REMARK VINA RESULT: -7.801388655      2.192      5.651
REMARK  3 active torsions:
REMARK  status: ('A' for Active; 'I' for Inactive)
REMARK    1  A    between atoms: C4_5  and  C5_6 
REMARK    2  A    between atoms: C5_6  and  C6_8 
REMARK    3  A    between atoms: C8_10  and  N1_11 
ROOT
HETATM    1  C1  UNL     1      14.826   6.683  15.579  1.00  0.00     0.051 C 
HETATM    2  C2  UNL     1      15.564   5.767  14.709  1.00  0.00    -0.026 A 
HETATM    3  C3  UNL     1      15.996   6.169  13.436  1.00  0.00     0.056 A 
HETATM    4 CL1  UNL     1      15.614   7.819  12.928  1.00  0.00    -0.083 Cl
HETATM    5  C4  UNL     1      16.682   5.416  12.548  1.00  0.00     0.055 A 
HETATM    6  C9  UNL     1      16.990   4.127  12.924  1.00  0.00     0.062 A 
HETATM    7 CL2  UNL     1      17.873   3.047  11.872  1.00  0.00    -0.082 Cl
HETATM    8  C10 UNL     1      16.610   3.637  14.156  1.00  0.00     0.015 A 
HETATM    9  C11 UNL     1      16.909   2.355  14.549  1.00  0.00     0.105 A 
HETATM   10  N2  UNL     1      16.548   1.864  15.739  1.00  0.00    -0.331 N 
ATOM     11  H2  UNL     1      16.788   0.907  15.994  1.00  0.00     0.168 HD
HETATM   12  C12 UNL     1      15.872   2.635  16.590  1.00  0.00     0.268 A 
HETATM   13  O4  UNL     1      15.503   2.236  17.725  1.00  0.00    -0.266 OA
HETATM   14  C13 UNL     1      15.534   3.943  16.263  1.00  0.00     0.113 A 
HETATM   15 CL3  UNL     1      14.653   4.936  17.385  1.00  0.00    -0.077 Cl
HETATM   16  C14 UNL     1      15.900   4.454  15.045  1.00  0.00     0.012 A 
ENDROOT
BRANCH   5  17
HETATM   17  C5  UNL     1      17.126   5.846  11.228  1.00  0.00     0.169 C 
HETATM   18  O1  UNL     1      16.519   5.347  10.250  1.00  0.00    -0.292 OA
BRANCH  17  19
HETATM   19  C6  UNL     1      18.215   6.806  11.011  1.00  0.00     0.092 A 
HETATM   20  C7  UNL     1      19.165   7.002  12.177  1.00  0.00     0.047 A 
HETATM   21  C8  UNL     1      19.624   6.473  10.865  1.00  0.00     0.168 A 
BRANCH  21  22
HETATM   22  N1  UNL     1      20.198   5.166  10.874  1.00  0.00    -0.150 N 
HETATM   23  O2  UNL     1      20.178   4.512   9.788  1.00  0.00    -0.536 OA
HETATM   24  O3  UNL     1      20.776   4.539  11.951  1.00  0.00    -0.536 OA
ENDBRANCH  21  22
ENDBRANCH  17  19
ENDBRANCH   5  17
TORSDOF 3
ENDMDL
MODEL 5
REMARK VINA RESULT: -7.554818650      2.587      6.228
REMARK  3 active torsions:
REMARK  status: ('A' for Active; 'I' for Inactive)
REMARK    1  A    between atoms: C4_5  and  C5_6 
REMARK    2  A    between atoms: C5_6  and  C6_8 
REMARK    3  A    between atoms: C8_10  and  N1_11 
ROOT
HETATM    1  C1  UNL     1      14.847   6.632  15.589  1.00  0.00     0.051 C 
HETATM    2  C2  UNL     1      15.620   5.729  14.736  1.00  0.00    -0.026 A 
HETATM    3  C3  UNL     1      16.102   6.149  13.486  1.00  0.00     0.056 A 
HETATM    4 CL1  UNL     1      15.738   7.806  12.988  1.00  0.00    -0.083 Cl
HETATM    5  C4  UNL     1      16.823   5.409  12.616  1.00  0.00     0.055 A 
HETATM    6  C9  UNL     1      17.117   4.115  12.985  1.00  0.00     0.062 A 
HETATM    7 CL2  UNL     1      18.042   3.050  11.954  1.00  0.00    -0.082 Cl
HETATM    8  C10 UNL     1      16.688   3.607  14.194  1.00  0.00     0.015 A 
HETATM    9  C11 UNL     1      16.972   2.319  14.580  1.00  0.00     0.105 A 
HETATM   10  N2  UNL     1      16.565   1.812  15.748  1.00  0.00    -0.331 N 
ATOM     11  H2  UNL     1      16.795   0.850  15.998  1.00  0.00     0.168 HD
HETATM   12  C12 UNL     1      15.855   2.570  16.583  1.00  0.00     0.268 A 
HETATM   13  O4  UNL     1      15.441   2.155  17.696  1.00  0.00    -0.266 OA
HETATM   14  C13 UNL     1      15.529   3.882  16.261  1.00  0.00     0.113 A 
HETATM   15 CL3  UNL     1      14.604   4.859  17.361  1.00  0.00    -0.077 Cl
HETATM   16  C14 UNL     1      15.943   4.411  15.066  1.00  0.00     0.012 A 
ENDROOT
BRANCH   5  17
HETATM   17  C5  UNL     1      17.319   5.857  11.321  1.00  0.00     0.169 C 
HETATM   18  O1  UNL     1      16.567   5.651  10.338  1.00  0.00    -0.292 OA
BRANCH  17  19
HETATM   19  C6  UNL     1      18.616   6.518  11.133  1.00  0.00     0.092 A 
HETATM   20  C7  UNL     1      19.579   5.828  10.186  1.00  0.00     0.047 A 
HETATM   21  C8  UNL     1      19.057   7.196   9.924  1.00  0.00     0.168 A 
BRANCH  21  22
HETATM   22  N1  UNL     1      18.308   7.370   8.722  1.00  0.00    -0.150 N 
HETATM   23  O2  UNL     1      18.530   6.559   7.772  1.00  0.00    -0.536 OA
HETATM   24  O3  UNL     1      17.363   8.339   8.485  1.00  0.00    -0.536 OA
ENDBRANCH  21  22
ENDBRANCH  17  19
ENDBRANCH   5  17
TORSDOF 3
ENDMDL
