MODEL 1
REMARK VINA RESULT: -7.524831679      0.000      0.000
REMARK  4 active torsions:
REMARK  status: ('A' for Active; 'I' for Inactive)
REMARK    1  A    between atoms: N2_4  and  C3_5 
REMARK    2  A    between atoms: C7_13  and  N5_14 
REMARK    3  A    between atoms: N5_14  and  C8_16 
REMARK    4  A    between atoms: C8_16  and  C9_17 
ROOT
HETATM    1  N1  UNL     1      13.968   9.197  11.666  1.00  0.00    -0.195 NA
HETATM    2  C1  UNL     1      14.770   8.993  10.865  1.00  0.00     0.088 C 
HETATM    3  C2  UNL     1      15.794   8.710   9.853  1.00  0.00     0.231 C 
HETATM    4  N2  UNL     1      16.976   8.093  10.424  1.00  0.00    -0.358 N 
HETATM    5  C15 UNL     1      18.144   8.858  10.052  1.00  0.00     0.128 C 
HETATM    6  C16 UNL     1      17.679   9.708   8.858  1.00  0.00     0.065 C 
HETATM    7  C17 UNL     1      16.259  10.015   9.245  1.00  0.00     0.147 C 
HETATM    8 CL1  UNL     1      16.172  11.327  10.453  1.00  0.00    -0.098 Cl
HETATM    9 CL2  UNL     1      15.273  10.469   7.838  1.00  0.00    -0.098 Cl
ENDROOT
BRANCH   4  10
HETATM   10  C3  UNL     1      16.989   6.909  11.210  1.00  0.00     0.072 A 
HETATM   11  C4  UNL     1      16.782   5.668  10.618  1.00  0.00     0.063 A 
HETATM   12  C5  UNL     1      16.800   4.473  11.327  1.00  0.00     0.049 A 
HETATM   13  N3  UNL     1      16.588   3.292  10.671  1.00  0.00    -0.351 N 
HETATM   14  C12 UNL     1      17.031   4.513  12.671  1.00  0.00     0.037 A 
HETATM   15  C6  UNL     1      16.617   2.178  11.404  1.00  0.00     0.182 A 
ATOM     16  H3  UNL     1      16.415   3.265   9.667  1.00  0.00     0.166 HD
HETATM   17  N4  UNL     1      16.841   2.185  12.721  1.00  0.00    -0.338 N 
HETATM   18  C7  UNL     1      17.052   3.333  13.382  1.00  0.00     0.114 A 
ATOM     19  H4  UNL     1      16.854   1.303  13.232  1.00  0.00     0.168 HD
HETATM   20  C13 UNL     1      17.243   5.705  13.314  1.00  0.00     0.062 A 
HETATM   21  C14 UNL     1      17.217   6.876  12.569  1.00  0.00     0.143 A 
HETATM   22  F1  UNL     1      17.417   8.036  13.230  1.00  0.00    -0.204 F 
BRANCH  18  23
HETATM   23  N5  UNL     1      17.274   3.376  14.673  1.00  0.00    -0.375 N 
ATOM     24  H5  UNL     1      17.998   3.970  15.077  1.00  0.00     0.161 HD
BRANCH  23  25
HETATM   25  C8  UNL     1      16.431   2.530  15.493  1.00  0.00     0.126 C 
BRANCH  25  26
HETATM   26  C9  UNL     1      15.766   3.260  16.605  1.00  0.00     0.003 A 
HETATM   27  C10 UNL     1      14.340   3.055  16.948  1.00  0.00     0.007 A 
HETATM   28  C11 UNL     1      14.741   4.308  16.141  1.00  0.00     0.007 A 
ENDBRANCH  25  26
ENDBRANCH  23  25
ENDBRANCH  18  23
ENDBRANCH   4  10
TORSDOF 4
ENDMDL
MODEL 2
REMARK VINA RESULT: -7.520765572      1.994      2.879
REMARK  4 active torsions:
REMARK  status: ('A' for Active; 'I' for Inactive)
REMARK    1  A    between atoms: N2_4  and  C3_5 
REMARK    2  A    between atoms: C7_13  and  N5_14 
REMARK    3  A    between atoms: N5_14  and  C8_16 
REMARK    4  A    between atoms: C8_16  and  C9_17 
ROOT
HETATM    1  N1  UNL     1      20.891   7.968  12.451  1.00  0.00    -0.195 NA
HETATM    2  C1  UNL     1      19.852   8.466  12.484  1.00  0.00     0.088 C 
HETATM    3  C2  UNL     1      18.521   9.080  12.542  1.00  0.00     0.231 C 
HETATM    4  N2  UNL     1      17.463   8.126  12.277  1.00  0.00    -0.358 N 
HETATM    5  C15 UNL     1      16.626   8.620  11.207  1.00  0.00     0.128 C 
HETATM    6  C16 UNL     1      16.947  10.123  11.135  1.00  0.00     0.065 C 
HETATM    7  C17 UNL     1      18.417  10.129  11.456  1.00  0.00     0.147 C 
HETATM    8 CL1  UNL     1      19.404   9.659  10.044  1.00  0.00    -0.098 Cl
HETATM    9 CL2  UNL     1      18.961  11.721  12.029  1.00  0.00    -0.098 Cl
ENDROOT
BRANCH   4  10
HETATM   10  C3  UNL     1      17.263   6.902  12.972  1.00  0.00     0.072 A 
HETATM   11  C4  UNL     1      17.280   5.692  12.286  1.00  0.00     0.063 A 
HETATM   12  C5  UNL     1      17.109   4.461  12.909  1.00  0.00     0.049 A 
HETATM   13  N3  UNL     1      17.139   3.315  12.165  1.00  0.00    -0.351 N 
HETATM   14  C12 UNL     1      16.914   4.432  14.259  1.00  0.00     0.037 A 
HETATM   15  C6  UNL     1      16.969   2.164  12.817  1.00  0.00     0.182 A 
ATOM     16  H3  UNL     1      17.284   3.339  11.156  1.00  0.00     0.166 HD
HETATM   17  N4  UNL     1      16.776   2.104  14.138  1.00  0.00    -0.338 N 
HETATM   18  C7  UNL     1      16.744   3.218  14.885  1.00  0.00     0.114 A 
ATOM     19  H4  UNL     1      16.653   1.196  14.586  1.00  0.00     0.168 HD
HETATM   20  C13 UNL     1      16.887   5.591  14.991  1.00  0.00     0.062 A 
HETATM   21  C14 UNL     1      17.062   6.799  14.331  1.00  0.00     0.143 A 
HETATM   22  F1  UNL     1      17.019   7.925  15.076  1.00  0.00    -0.204 F 
BRANCH  18  23
HETATM   23  N5  UNL     1      16.556   3.194  16.182  1.00  0.00    -0.375 N 
ATOM     24  H5  UNL     1      17.106   3.773  16.818  1.00  0.00     0.161 HD
BRANCH  23  25
HETATM   25  C8  UNL     1      15.523   2.298  16.660  1.00  0.00     0.126 C 
BRANCH  25  26
HETATM   26  C9  UNL     1      14.388   3.003  17.315  1.00  0.00     0.003 A 
HETATM   27  C10 UNL     1      14.094   4.433  17.070  1.00  0.00     0.007 A 
HETATM   28  C11 UNL     1      14.818   4.033  18.372  1.00  0.00     0.007 A 
ENDBRANCH  25  26
ENDBRANCH  23  25
ENDBRANCH  18  23
ENDBRANCH   4  10
TORSDOF 4
ENDMDL
MODEL 3
REMARK VINA RESULT: -7.493344016      1.367      2.305
REMARK  4 active torsions:
REMARK  status: ('A' for Active; 'I' for Inactive)
REMARK    1  A    between atoms: N2_4  and  C3_5 
REMARK    2  A    between atoms: C7_13  and  N5_14 
REMARK    3  A    between atoms: N5_14  and  C8_16 
REMARK    4  A    between atoms: C8_16  and  C9_17 
ROOT
HETATM    1  N1  UNL     1      19.386   6.577   7.909  1.00  0.00    -0.195 NA
HETATM    2  C1  UNL     1      18.653   7.306   8.419  1.00  0.00     0.088 C 
HETATM    3  C2  UNL     1      17.721   8.218   9.089  1.00  0.00     0.231 C 
HETATM    4  N2  UNL     1      16.604   7.518   9.694  1.00  0.00    -0.358 N 
HETATM    5  C15 UNL     1      15.364   8.087   9.217  1.00  0.00     0.128 C 
HETATM    6  C16 UNL     1      15.768   9.456   8.646  1.00  0.00     0.065 C 
HETATM    7  C17 UNL     1      17.119   9.149   8.060  1.00  0.00     0.147 C 
HETATM    8 CL1  UNL     1      16.982   8.323   6.483  1.00  0.00    -0.098 Cl
HETATM    9 CL2  UNL     1      18.099  10.617   7.852  1.00  0.00    -0.098 Cl
ENDROOT
BRANCH   4  10
HETATM   10  C3  UNL     1      16.709   6.451  10.627  1.00  0.00     0.072 A 
HETATM   11  C4  UNL     1      16.579   5.132  10.206  1.00  0.00     0.063 A 
HETATM   12  C5  UNL     1      16.688   4.043  11.064  1.00  0.00     0.049 A 
HETATM   13  N3  UNL     1      16.548   2.776  10.572  1.00  0.00    -0.351 N 
HETATM   14  C12 UNL     1      16.934   4.274  12.386  1.00  0.00     0.037 A 
HETATM   15  C6  UNL     1      16.663   1.772  11.443  1.00  0.00     0.182 A 
ATOM     16  H3  UNL     1      16.364   2.606   9.584  1.00  0.00     0.166 HD
HETATM   17  N4  UNL     1      16.904   1.966  12.742  1.00  0.00    -0.338 N 
HETATM   18  C7  UNL     1      17.044   3.203  13.244  1.00  0.00     0.114 A 
ATOM     19  H4  UNL     1      16.983   1.161  13.364  1.00  0.00     0.168 HD
HETATM   20  C13 UNL     1      17.072   5.552  12.863  1.00  0.00     0.062 A 
HETATM   21  C14 UNL     1      16.956   6.611  11.973  1.00  0.00     0.143 A 
HETATM   22  F1  UNL     1      17.086   7.859  12.474  1.00  0.00    -0.204 F 
BRANCH  18  23
HETATM   23  N5  UNL     1      17.280   3.429  14.513  1.00  0.00    -0.375 N 
ATOM     24  H5  UNL     1      17.994   4.090  14.820  1.00  0.00     0.161 HD
BRANCH  23  25
HETATM   25  C8  UNL     1      16.468   2.685  15.454  1.00  0.00     0.126 C 
BRANCH  25  26
HETATM   26  C9  UNL     1      15.863   3.536  16.513  1.00  0.00     0.003 A 
HETATM   27  C10 UNL     1      14.455   3.386  16.945  1.00  0.00     0.007 A 
HETATM   28  C11 UNL     1      14.824   4.541  15.990  1.00  0.00     0.007 A 
ENDBRANCH  25  26
ENDBRANCH  23  25
ENDBRANCH  18  23
ENDBRANCH   4  10
TORSDOF 4
ENDMDL
MODEL 4
REMARK VINA RESULT: -7.460159145      1.451      1.587
REMARK  4 active torsions:
REMARK  status: ('A' for Active; 'I' for Inactive)
REMARK    1  A    between atoms: N2_4  and  C3_5 
REMARK    2  A    between atoms: C7_13  and  N5_14 
REMARK    3  A    between atoms: N5_14  and  C8_16 
REMARK    4  A    between atoms: C8_16  and  C9_17 
ROOT
HETATM    1  N1  UNL     1      14.148   6.875   8.615  1.00  0.00    -0.195 NA
HETATM    2  C1  UNL     1      15.284   7.074   8.609  1.00  0.00     0.088 C 
HETATM    3  C2  UNL     1      16.731   7.307   8.619  1.00  0.00     0.231 C 
HETATM    4  N2  UNL     1      17.258   7.437   9.964  1.00  0.00    -0.358 N 
HETATM    5  C15 UNL     1      17.994   8.677  10.074  1.00  0.00     0.128 C 
HETATM    6  C16 UNL     1      18.278   9.082   8.618  1.00  0.00     0.065 C 
HETATM    7  C17 UNL     1      17.022   8.622   7.930  1.00  0.00     0.147 C 
HETATM    8 CL1  UNL     1      15.674   9.765   8.182  1.00  0.00    -0.098 Cl
HETATM    9 CL2  UNL     1      17.267   8.404   6.183  1.00  0.00    -0.098 Cl
ENDROOT
BRANCH   4  10
HETATM   10  C3  UNL     1      17.096   6.487  11.009  1.00  0.00     0.072 A 
HETATM   11  C4  UNL     1      17.223   5.127  10.749  1.00  0.00     0.063 A 
HETATM   12  C5  UNL     1      17.094   4.149  11.728  1.00  0.00     0.049 A 
HETATM   13  N3  UNL     1      17.234   2.831  11.393  1.00  0.00    -0.351 N 
HETATM   14  C12 UNL     1      16.828   4.536  13.009  1.00  0.00     0.037 A 
HETATM   15  C6  UNL     1      17.099   1.938  12.374  1.00  0.00     0.182 A 
ATOM     16  H3  UNL     1      17.432   2.544  10.435  1.00  0.00     0.166 HD
HETATM   17  N4  UNL     1      16.839   2.287  13.638  1.00  0.00    -0.338 N 
HETATM   18  C7  UNL     1      16.699   3.574  13.986  1.00  0.00     0.114 A 
ATOM     19  H4  UNL     1      16.747   1.562  14.349  1.00  0.00     0.168 HD
HETATM   20  C13 UNL     1      16.691   5.862  13.329  1.00  0.00     0.062 A 
HETATM   21  C14 UNL     1      16.828   6.807  12.322  1.00  0.00     0.143 A 
HETATM   22  F1  UNL     1      16.677   8.105  12.664  1.00  0.00    -0.204 F 
BRANCH  18  23
HETATM   23  N5  UNL     1      16.443   3.951  15.215  1.00  0.00    -0.375 N 
ATOM     24  H5  UNL     1      16.396   4.935  15.481  1.00  0.00     0.161 HD
BRANCH  23  25
HETATM   25  C8  UNL     1      16.231   2.887  16.176  1.00  0.00     0.126 C 
BRANCH  25  26
HETATM   26  C9  UNL     1      15.203   3.214  17.201  1.00  0.00     0.003 A 
HETATM   27  C10 UNL     1      13.752   3.090  16.937  1.00  0.00     0.007 A 
HETATM   28  C11 UNL     1      14.400   4.490  16.897  1.00  0.00     0.007 A 
ENDBRANCH  25  26
ENDBRANCH  23  25
ENDBRANCH  18  23
ENDBRANCH   4  10
TORSDOF 4
ENDMDL
MODEL 5
REMARK VINA RESULT: -7.274956131      3.217      3.992
REMARK  4 active torsions:
REMARK  status: ('A' for Active; 'I' for Inactive)
REMARK    1  A    between atoms: N2_4  and  C3_5 
REMARK    2  A    between atoms: C7_13  and  N5_14 
REMARK    3  A    between atoms: N5_14  and  C8_16 
REMARK    4  A    between atoms: C8_16  and  C9_17 
ROOT
HETATM    1  N1  UNL     1      18.137  10.747  11.247  1.00  0.00    -0.195 NA
HETATM    2  C1  UNL     1      18.910  10.601  12.089  1.00  0.00     0.088 C 
HETATM    3  C2  UNL     1      19.888  10.389  13.161  1.00  0.00     0.231 C 
HETATM    4  N2  UNL     1      19.337   9.631  14.267  1.00  0.00    -0.358 N 
HETATM    5  C15 UNL     1      19.533  10.363  15.497  1.00  0.00     0.128 C 
HETATM    6  C16 UNL     1      20.627  11.390  15.160  1.00  0.00     0.065 C 
HETATM    7  C17 UNL     1      20.287  11.732  13.735  1.00  0.00     0.147 C 
HETATM    8 CL1  UNL     1      18.920  12.876  13.638  1.00  0.00    -0.098 Cl
HETATM    9 CL2  UNL     1      21.676  12.426  12.872  1.00  0.00    -0.098 Cl
ENDROOT
BRANCH   4  10
HETATM   10  C3  UNL     1      18.718   8.355  14.164  1.00  0.00     0.072 A 
HETATM   11  C4  UNL     1      19.203   7.408  13.269  1.00  0.00     0.063 A 
HETATM   12  C5  UNL     1      18.654   6.138  13.133  1.00  0.00     0.049 A 
HETATM   13  N3  UNL     1      19.188   5.262  12.230  1.00  0.00    -0.351 N 
HETATM   14  C12 UNL     1      17.587   5.799  13.912  1.00  0.00     0.037 A 
HETATM   15  C6  UNL     1      18.620   4.058  12.143  1.00  0.00     0.182 A 
ATOM     16  H3  UNL     1      19.986   5.517  11.648  1.00  0.00     0.166 HD
HETATM   17  N4  UNL     1      17.575   3.697  12.893  1.00  0.00    -0.338 N 
HETATM   18  C7  UNL     1      17.036   4.543  13.784  1.00  0.00     0.114 A 
ATOM     19  H4  UNL     1      17.180   2.763  12.786  1.00  0.00     0.168 HD
HETATM   20  C13 UNL     1      17.063   6.689  14.813  1.00  0.00     0.062 A 
HETATM   21  C14 UNL     1      17.640   7.947  14.919  1.00  0.00     0.143 A 
HETATM   22  F1  UNL     1      17.096   8.807  15.807  1.00  0.00    -0.204 F 
BRANCH  18  23
HETATM   23  N5  UNL     1      16.011   4.221  14.535  1.00  0.00    -0.375 N 
ATOM     24  H5  UNL     1      15.104   4.677  14.434  1.00  0.00     0.161 HD
BRANCH  23  25
HETATM   25  C8  UNL     1      16.242   3.180  15.516  1.00  0.00     0.126 C 
BRANCH  25  26
HETATM   26  C9  UNL     1      15.519   3.407  16.797  1.00  0.00     0.003 A 
HETATM   27  C10 UNL     1      14.095   3.047  16.978  1.00  0.00     0.007 A 
HETATM   28  C11 UNL     1      14.466   4.525  16.732  1.00  0.00     0.007 A 
ENDBRANCH  25  26
ENDBRANCH  23  25
ENDBRANCH  18  23
ENDBRANCH   4  10
TORSDOF 4
ENDMDL
