MODEL 1
REMARK VINA RESULT: -6.350241912      0.000      0.000
REMARK  5 active torsions:
REMARK  status: ('A' for Active; 'I' for Inactive)
REMARK    1  A    between atoms: C2_2  and  C4_4 
REMARK    2  A    between atoms: C11_22  and  C12_23 
REMARK    3  A    between atoms: C12_23  and  O3_24 
REMARK    4  A    between atoms: O3_24  and  C13_25 
REMARK    5  A    between atoms: C19_40  and  C20_41 
ROOT
HETATM    1  C4  UNL     1      20.820  36.765  33.772  1.00  0.00     0.180 C 
HETATM    2  N1  UNL     1      21.299  36.012  34.912  1.00  0.00    -0.346 N 
ATOM      3  H1  UNL     1      20.607  35.760  35.618  1.00  0.00     0.163 HD
HETATM    4  C5  UNL     1      22.628  35.589  35.150  1.00  0.00     0.236 C 
HETATM    5  O1  UNL     1      22.844  34.401  35.544  1.00  0.00    -0.272 OA
HETATM    6  C6  UNL     1      23.848  36.412  34.980  1.00  0.00     0.227 C 
HETATM    7  N2  UNL     1      24.382  36.234  33.654  1.00  0.00    -0.334 N 
ATOM      8  H2  UNL     1      23.835  35.667  33.006  1.00  0.00     0.164 HD
HETATM    9  C7  UNL     1      25.594  36.773  33.170  1.00  0.00     0.316 C 
HETATM   10  O2  UNL     1      26.310  36.032  32.414  1.00  0.00    -0.247 OA
HETATM   11  N3  UNL     1      26.095  38.067  33.445  1.00  0.00    -0.342 N 
ATOM     12  H3  UNL     1      27.078  38.147  33.705  1.00  0.00     0.164 HD
HETATM   13  C8  UNL     1      25.313  39.291  33.385  1.00  0.00     0.152 C 
HETATM   14  C9  UNL     1      26.198  40.504  33.154  1.00  0.00     0.252 C 
HETATM   15  N4  UNL     1      25.467  41.700  33.563  1.00  0.00    -0.072 N 
ATOM     16  H41 UNL     1      26.099  42.485  33.722  1.00  0.00     0.277 HD
ATOM     17  H42 UNL     1      25.092  41.602  34.506  1.00  0.00     0.277 HD
HETATM   18  C10 UNL     1      24.441  42.039  32.629  1.00  0.00     0.259 C 
HETATM   19  C11 UNL     1      23.283  42.800  33.236  1.00  0.00     0.134 C 
HETATM   20  N7  UNL     1      23.090  42.494  34.638  1.00  0.00    -0.353 N 
ATOM     21  H7  UNL     1      23.922  42.388  35.218  1.00  0.00     0.163 HD
HETATM   22  C16 UNL     1      21.825  42.331  35.264  1.00  0.00     0.218 C 
HETATM   23  O6  UNL     1      21.662  42.750  36.445  1.00  0.00    -0.274 OA
HETATM   24  C17 UNL     1      20.648  41.688  34.618  1.00  0.00     0.105 C 
HETATM   25  C18 UNL     1      19.878  40.962  35.671  1.00  0.00     0.041 C 
HETATM   26  C19 UNL     1      19.971  39.447  35.576  1.00  0.00     0.146 C 
HETATM   27  N8  UNL     1      21.159  39.102  34.829  1.00  0.00    -0.348 N 
ATOM     28  H8  UNL     1      22.017  39.584  35.098  1.00  0.00     0.163 HD
HETATM   29  C21 UNL     1      21.267  38.173  33.769  1.00  0.00     0.241 C 
HETATM   30  O8  UNL     1      21.803  38.539  32.657  1.00  0.00    -0.271 OA
ENDROOT
BRANCH  19  31
HETATM   31  C12 UNL     1      23.653  44.278  33.157  1.00  0.00     0.198 C 
BRANCH  31  32
HETATM   32  O3  UNL     1      24.467  44.453  32.053  1.00  0.00    -0.355 OA
BRANCH  32  33
HETATM   33  C13 UNL     1      25.417  45.452  32.241  1.00  0.00     0.306 C 
HETATM   34  C14 UNL     1      26.776  44.907  32.554  1.00  0.00     0.187 C 
HETATM   35  N5  UNL     1      27.833  45.478  31.759  1.00  0.00    -0.337 N 
HETATM   36  C15 UNL     1      27.666  46.823  31.312  1.00  0.00     0.340 C 
ATOM     37  H5  UNL     1      28.669  44.943  31.524  1.00  0.00     0.164 HD
HETATM   38  O4  UNL     1      28.635  47.559  31.035  1.00  0.00    -0.245 OA
HETATM   39  N6  UNL     1      26.309  47.268  31.203  1.00  0.00    -0.214 N 
HETATM   40  O5  UNL     1      25.372  46.292  31.154  1.00  0.00    -0.242 OA
ATOM     41  H6  UNL     1      26.064  48.258  31.165  1.00  0.00     0.199 HD
ENDBRANCH  32  33
ENDBRANCH  31  32
ENDBRANCH  19  31
BRANCH  26  42
HETATM   42  C20 UNL     1      20.044  38.986  37.001  1.00  0.00     0.256 C 
HETATM   43  O7  UNL     1      20.115  37.829  37.337  1.00  0.00    -0.305 OA
ENDBRANCH  26  42
BRANCH   1  44
HETATM   44  C2  UNL     1      19.324  36.611  33.644  1.00  0.00     0.009 C 
HETATM   45  C1  UNL     1      18.922  36.459  32.192  1.00  0.00     0.012 C 
HETATM   46  C3  UNL     1      18.992  35.258  34.300  1.00  0.00     0.012 C 
ENDBRANCH   1  44
TORSDOF 5
ENDMDL
MODEL 2
REMARK VINA RESULT: -6.047665440      4.693     11.152
REMARK  5 active torsions:
REMARK  status: ('A' for Active; 'I' for Inactive)
REMARK    1  A    between atoms: C2_2  and  C4_4 
REMARK    2  A    between atoms: C11_22  and  C12_23 
REMARK    3  A    between atoms: C12_23  and  O3_24 
REMARK    4  A    between atoms: O3_24  and  C13_25 
REMARK    5  A    between atoms: C19_40  and  C20_41 
ROOT
HETATM    1  C4  UNL     1      21.255  38.973  35.815  1.00  0.00     0.180 C 
HETATM    2  N1  UNL     1      22.700  38.920  35.747  1.00  0.00    -0.346 N 
ATOM      3  H1  UNL     1      23.153  39.584  35.120  1.00  0.00     0.163 HD
HETATM    4  C5  UNL     1      23.550  38.043  36.462  1.00  0.00     0.236 C 
HETATM    5  O1  UNL     1      24.595  38.501  37.019  1.00  0.00    -0.272 OA
HETATM    6  C6  UNL     1      23.346  36.586  36.640  1.00  0.00     0.227 C 
HETATM    7  N2  UNL     1      22.618  36.337  37.858  1.00  0.00    -0.334 N 
ATOM      8  H2  UNL     1      22.275  37.150  38.368  1.00  0.00     0.164 HD
HETATM    9  C7  UNL     1      22.337  35.067  38.409  1.00  0.00     0.316 C 
HETATM   10  O2  UNL     1      22.418  34.942  39.679  1.00  0.00    -0.247 OA
HETATM   11  N3  UNL     1      21.969  33.911  37.683  1.00  0.00    -0.342 N 
ATOM     12  H3  UNL     1      22.438  33.036  37.920  1.00  0.00     0.164 HD
HETATM   13  C8  UNL     1      20.974  33.876  36.624  1.00  0.00     0.152 C 
HETATM   14  C9  UNL     1      20.394  32.482  36.453  1.00  0.00     0.252 C 
HETATM   15  N4  UNL     1      19.786  32.388  35.129  1.00  0.00    -0.072 N 
ATOM     16  H41 UNL     1      19.663  31.416  34.845  1.00  0.00     0.277 HD
ATOM     17  H42 UNL     1      20.434  32.687  34.401  1.00  0.00     0.277 HD
HETATM   18  C10 UNL     1      18.555  33.110  35.059  1.00  0.00     0.259 C 
HETATM   19  C11 UNL     1      18.207  33.598  33.670  1.00  0.00     0.134 C 
HETATM   20  N7  UNL     1      19.379  33.832  32.852  1.00  0.00    -0.353 N 
ATOM     21  H7  UNL     1      20.146  33.164  32.922  1.00  0.00     0.163 HD
HETATM   22  C16 UNL     1      19.536  34.925  31.958  1.00  0.00     0.218 C 
HETATM   23  O6  UNL     1      20.137  34.743  30.861  1.00  0.00    -0.274 OA
HETATM   24  C17 UNL     1      19.034  36.301  32.222  1.00  0.00     0.105 C 
HETATM   25  C18 UNL     1      19.995  37.271  31.617  1.00  0.00     0.041 C 
HETATM   26  C19 UNL     1      20.816  38.049  32.634  1.00  0.00     0.146 C 
HETATM   27  N8  UNL     1      20.832  37.312  33.877  1.00  0.00    -0.348 N 
ATOM     28  H8  UNL     1      21.038  36.315  33.808  1.00  0.00     0.163 HD
HETATM   29  C21 UNL     1      20.595  37.816  35.176  1.00  0.00     0.241 C 
HETATM   30  O8  UNL     1      19.719  37.245  35.927  1.00  0.00    -0.271 OA
ENDROOT
BRANCH  19  31
HETATM   31  C12 UNL     1      17.425  32.471  33.004  1.00  0.00     0.198 C 
BRANCH  31  32
HETATM   32  O3  UNL     1      16.078  32.722  33.188  1.00  0.00    -0.355 OA
BRANCH  32  33
HETATM   33  C13 UNL     1      15.276  31.657  32.791  1.00  0.00     0.306 C 
HETATM   34  C14 UNL     1      16.038  30.604  32.047  1.00  0.00     0.187 C 
HETATM   35  N5  UNL     1      15.805  29.265  32.524  1.00  0.00    -0.337 N 
HETATM   36  C15 UNL     1      14.527  28.982  33.092  1.00  0.00     0.340 C 
ATOM     37  H5  UNL     1      16.526  28.545  32.458  1.00  0.00     0.164 HD
HETATM   38  O4  UNL     1      14.047  27.831  33.114  1.00  0.00    -0.245 OA
HETATM   39  N6  UNL     1      13.835  30.112  33.634  1.00  0.00    -0.214 N 
HETATM   40  O5  UNL     1      14.598  31.200  33.896  1.00  0.00    -0.242 OA
ATOM     41  H6  UNL     1      12.830  30.099  33.812  1.00  0.00     0.199 HD
ENDBRANCH  32  33
ENDBRANCH  31  32
ENDBRANCH  19  31
BRANCH  26  42
HETATM   42  C20 UNL     1      22.180  38.147  32.017  1.00  0.00     0.256 C 
HETATM   43  O7  UNL     1      23.181  38.435  32.627  1.00  0.00    -0.305 OA
ENDBRANCH  26  42
BRANCH   1  44
HETATM   44  C2  UNL     1      20.763  40.303  35.299  1.00  0.00     0.009 C 
HETATM   45  C1  UNL     1      20.369  41.211  36.445  1.00  0.00     0.012 C 
HETATM   46  C3  UNL     1      21.990  40.974  34.654  1.00  0.00     0.012 C 
ENDBRANCH   1  44
TORSDOF 5
ENDMDL
MODEL 3
REMARK VINA RESULT: -5.268998178      3.377     10.138
REMARK  5 active torsions:
REMARK  status: ('A' for Active; 'I' for Inactive)
REMARK    1  A    between atoms: C2_2  and  C4_4 
REMARK    2  A    between atoms: C11_22  and  C12_23 
REMARK    3  A    between atoms: C12_23  and  O3_24 
REMARK    4  A    between atoms: O3_24  and  C13_25 
REMARK    5  A    between atoms: C19_40  and  C20_41 
ROOT
HETATM    1  C4  UNL     1      23.666  40.865  33.701  1.00  0.00     0.180 C 
HETATM    2  N1  UNL     1      24.479  41.268  34.829  1.00  0.00    -0.346 N 
ATOM      3  H1  UNL     1      25.480  41.362  34.661  1.00  0.00     0.163 HD
HETATM    4  C5  UNL     1      24.029  41.546  36.141  1.00  0.00     0.236 C 
HETATM    5  O1  UNL     1      24.460  42.576  36.745  1.00  0.00    -0.272 OA
HETATM    6  C6  UNL     1      23.066  40.733  36.921  1.00  0.00     0.227 C 
HETATM    7  N2  UNL     1      21.728  41.224  36.716  1.00  0.00    -0.334 N 
ATOM      8  H2  UNL     1      21.607  41.968  36.029  1.00  0.00     0.164 HD
HETATM    9  C7  UNL     1      20.568  40.769  37.381  1.00  0.00     0.316 C 
HETATM   10  O2  UNL     1      19.702  41.644  37.726  1.00  0.00    -0.247 OA
HETATM   11  N3  UNL     1      20.270  39.424  37.702  1.00  0.00    -0.342 N 
ATOM     12  H3  UNL     1      19.930  39.229  38.644  1.00  0.00     0.164 HD
HETATM   13  C8  UNL     1      20.413  38.301  36.791  1.00  0.00     0.152 C 
HETATM   14  C9  UNL     1      19.508  37.146  37.187  1.00  0.00     0.252 C 
HETATM   15  N4  UNL     1      20.010  35.924  36.566  1.00  0.00    -0.072 N 
ATOM     16  H41 UNL     1      19.644  35.093  37.032  1.00  0.00     0.277 HD
ATOM     17  H42 UNL     1      21.003  35.791  36.758  1.00  0.00     0.277 HD
HETATM   18  C10 UNL     1      19.744  35.894  35.164  1.00  0.00     0.259 C 
HETATM   19  C11 UNL     1      20.725  35.062  34.368  1.00  0.00     0.134 C 
HETATM   20  N7  UNL     1      22.033  35.000  34.987  1.00  0.00    -0.353 N 
ATOM     21  H7  UNL     1      22.072  34.907  36.002  1.00  0.00     0.163 HD
HETATM   22  C16 UNL     1      23.264  35.059  34.283  1.00  0.00     0.218 C 
HETATM   23  O6  UNL     1      24.236  34.354  34.678  1.00  0.00    -0.274 OA
HETATM   24  C17 UNL     1      23.504  35.908  33.084  1.00  0.00     0.105 C 
HETATM   25  C18 UNL     1      24.923  36.372  33.118  1.00  0.00     0.041 C 
HETATM   26  C19 UNL     1      25.085  37.853  33.426  1.00  0.00     0.146 C 
HETATM   27  N8  UNL     1      23.894  38.319  34.098  1.00  0.00    -0.348 N 
ATOM     28  H8  UNL     1      23.553  37.740  34.865  1.00  0.00     0.163 HD
HETATM   29  C21 UNL     1      23.149  39.486  33.813  1.00  0.00     0.241 C 
HETATM   30  O8  UNL     1      21.879  39.396  33.619  1.00  0.00    -0.271 OA
ENDROOT
BRANCH  19  31
HETATM   31  C12 UNL     1      20.174  33.639  34.364  1.00  0.00     0.198 C 
BRANCH  31  32
HETATM   32  O3  UNL     1      19.351  33.506  33.261  1.00  0.00    -0.355 OA
BRANCH  32  33
HETATM   33  C13 UNL     1      18.170  32.831  33.553  1.00  0.00     0.306 C 
HETATM   34  C14 UNL     1      17.151  33.708  34.213  1.00  0.00     0.187 C 
HETATM   35  N5  UNL     1      15.840  33.631  33.619  1.00  0.00    -0.337 N 
HETATM   36  C15 UNL     1      15.464  32.396  33.012  1.00  0.00     0.340 C 
ATOM     37  H5  UNL     1      15.205  34.430  33.631  1.00  0.00     0.164 HD
HETATM   38  O4  UNL     1      14.272  32.052  32.884  1.00  0.00    -0.245 OA
HETATM   39  N6  UNL     1      16.550  31.579  32.561  1.00  0.00    -0.214 N 
HETATM   40  O5  UNL     1      17.737  32.213  32.405  1.00  0.00    -0.242 OA
ATOM     41  H6  UNL     1      16.438  30.584  32.370  1.00  0.00     0.199 HD
ENDBRANCH  32  33
ENDBRANCH  31  32
ENDBRANCH  19  31
BRANCH  26  42
HETATM   42  C20 UNL     1      26.296  37.920  34.309  1.00  0.00     0.256 C 
HETATM   43  O7  UNL     1      26.445  38.725  35.195  1.00  0.00    -0.305 OA
ENDBRANCH  26  42
BRANCH   1  44
HETATM   44  C2  UNL     1      24.408  41.124  32.412  1.00  0.00     0.009 C 
HETATM   45  C1  UNL     1      23.935  42.411  31.769  1.00  0.00     0.012 C 
HETATM   46  C3  UNL     1      25.868  41.390  32.824  1.00  0.00     0.012 C 
ENDBRANCH   1  44
TORSDOF 5
ENDMDL
MODEL 4
REMARK VINA RESULT: -4.819073202      3.272      9.433
REMARK  5 active torsions:
REMARK  status: ('A' for Active; 'I' for Inactive)
REMARK    1  A    between atoms: C2_2  and  C4_4 
REMARK    2  A    between atoms: C11_22  and  C12_23 
REMARK    3  A    between atoms: C12_23  and  O3_24 
REMARK    4  A    between atoms: O3_24  and  C13_25 
REMARK    5  A    between atoms: C19_40  and  C20_41 
ROOT
HETATM    1  C4  UNL     1      23.582  41.048  33.533  1.00  0.00     0.180 C 
HETATM    2  N1  UNL     1      24.430  41.499  34.616  1.00  0.00    -0.346 N 
ATOM      3  H1  UNL     1      25.427  41.579  34.413  1.00  0.00     0.163 HD
HETATM    4  C5  UNL     1      24.021  41.840  35.926  1.00  0.00     0.236 C 
HETATM    5  O1  UNL     1      24.476  42.895  36.468  1.00  0.00    -0.272 OA
HETATM    6  C6  UNL     1      23.079  41.071  36.772  1.00  0.00     0.227 C 
HETATM    7  N2  UNL     1      21.737  41.560  36.585  1.00  0.00    -0.334 N 
ATOM      8  H2  UNL     1      21.599  42.272  35.867  1.00  0.00     0.164 HD
HETATM    9  C7  UNL     1      20.596  41.143  37.304  1.00  0.00     0.316 C 
HETATM   10  O2  UNL     1      19.745  42.039  37.634  1.00  0.00    -0.247 OA
HETATM   11  N3  UNL     1      20.302  39.817  37.698  1.00  0.00    -0.342 N 
ATOM     12  H3  UNL     1      19.989  39.667  38.657  1.00  0.00     0.164 HD
HETATM   13  C8  UNL     1      20.412  38.651  36.837  1.00  0.00     0.152 C 
HETATM   14  C9  UNL     1      19.514  37.522  37.313  1.00  0.00     0.252 C 
HETATM   15  N4  UNL     1      19.992  36.269  36.736  1.00  0.00    -0.072 N 
ATOM     16  H41 UNL     1      19.636  35.463  37.251  1.00  0.00     0.277 HD
ATOM     17  H42 UNL     1      20.989  36.139  36.904  1.00  0.00     0.277 HD
HETATM   18  C10 UNL     1      19.683  36.175  35.345  1.00  0.00     0.259 C 
HETATM   19  C11 UNL     1      20.636  35.300  34.560  1.00  0.00     0.134 C 
HETATM   20  N7  UNL     1      21.961  35.260  35.142  1.00  0.00    -0.353 N 
ATOM     21  H7  UNL     1      22.031  35.214  36.158  1.00  0.00     0.163 HD
HETATM   22  C16 UNL     1      23.171  35.278  34.399  1.00  0.00     0.218 C 
HETATM   23  O6  UNL     1      24.152  34.587  34.798  1.00  0.00    -0.274 OA
HETATM   24  C17 UNL     1      23.378  36.068  33.155  1.00  0.00     0.105 C 
HETATM   25  C18 UNL     1      24.800  36.525  33.124  1.00  0.00     0.041 C 
HETATM   26  C19 UNL     1      24.978  38.018  33.357  1.00  0.00     0.146 C 
HETATM   27  N8  UNL     1      23.810  38.522  34.042  1.00  0.00    -0.348 N 
ATOM     28  H8  UNL     1      23.489  37.982  34.846  1.00  0.00     0.163 HD
HETATM   29  C21 UNL     1      23.062  39.679  33.724  1.00  0.00     0.241 C 
HETATM   30  O8  UNL     1      21.787  39.587  33.573  1.00  0.00    -0.271 OA
ENDROOT
BRANCH  19  31
HETATM   31  C12 UNL     1      20.078  33.882  34.639  1.00  0.00     0.198 C 
BRANCH  31  32
HETATM   32  O3  UNL     1      19.674  33.657  35.942  1.00  0.00    -0.355 OA
BRANCH  32  33
HETATM   33  C13 UNL     1      20.645  33.011  36.700  1.00  0.00     0.306 C 
HETATM   34  C14 UNL     1      21.545  32.147  35.871  1.00  0.00     0.187 C 
HETATM   35  N5  UNL     1      22.949  32.350  36.126  1.00  0.00    -0.337 N 
HETATM   36  C15 UNL     1      23.326  32.756  37.441  1.00  0.00     0.340 C 
ATOM     37  H5  UNL     1      23.646  32.209  35.394  1.00  0.00     0.164 HD
HETATM   38  O4  UNL     1      24.460  32.528  37.908  1.00  0.00    -0.245 OA
HETATM   39  N6  UNL     1      22.313  33.441  38.185  1.00  0.00    -0.214 N 
HETATM   40  O5  UNL     1      21.295  33.957  37.455  1.00  0.00    -0.242 OA
ATOM     41  H6  UNL     1      22.355  33.536  39.200  1.00  0.00     0.199 HD
ENDBRANCH  32  33
ENDBRANCH  31  32
ENDBRANCH  19  31
BRANCH  26  42
HETATM   42  C20 UNL     1      26.215  38.119  34.199  1.00  0.00     0.256 C 
HETATM   43  O7  UNL     1      26.389  38.955  35.052  1.00  0.00    -0.305 OA
ENDBRANCH  26  42
BRANCH   1  44
HETATM   44  C2  UNL     1      24.286  41.241  32.211  1.00  0.00     0.009 C 
HETATM   45  C1  UNL     1      23.849  42.535  31.554  1.00  0.00     0.012 C 
HETATM   46  C3  UNL     1      25.771  41.448  32.563  1.00  0.00     0.012 C 
ENDBRANCH   1  44
TORSDOF 5
ENDMDL
MODEL 5
REMARK VINA RESULT: -4.802190512      2.274      4.877
REMARK  5 active torsions:
REMARK  status: ('A' for Active; 'I' for Inactive)
REMARK    1  A    between atoms: C2_2  and  C4_4 
REMARK    2  A    between atoms: C11_22  and  C12_23 
REMARK    3  A    between atoms: C12_23  and  O3_24 
REMARK    4  A    between atoms: O3_24  and  C13_25 
REMARK    5  A    between atoms: C19_40  and  C20_41 
ROOT
HETATM    1  C4  UNL     1      22.235  36.407  37.216  1.00  0.00     0.180 C 
HETATM    2  N1  UNL     1      20.860  36.303  36.774  1.00  0.00    -0.346 N 
ATOM      3  H1  UNL     1      20.574  35.408  36.376  1.00  0.00     0.163 HD
HETATM    4  C5  UNL     1      19.872  37.312  36.836  1.00  0.00     0.236 C 
HETATM    5  O1  UNL     1      18.707  37.022  37.251  1.00  0.00    -0.272 OA
HETATM    6  C6  UNL     1      20.053  38.733  36.456  1.00  0.00     0.227 C 
HETATM    7  N2  UNL     1      20.439  39.505  37.610  1.00  0.00    -0.334 N 
ATOM      8  H2  UNL     1      20.618  38.992  38.473  1.00  0.00     0.164 HD
HETATM    9  C7  UNL     1      20.594  40.908  37.653  1.00  0.00     0.316 C 
HETATM   10  O2  UNL     1      20.182  41.516  38.700  1.00  0.00    -0.247 OA
HETATM   11  N3  UNL     1      21.165  41.712  36.639  1.00  0.00    -0.342 N 
ATOM     12  H3  UNL     1      20.670  42.565  36.378  1.00  0.00     0.164 HD
HETATM   13  C8  UNL     1      22.405  41.413  35.942  1.00  0.00     0.152 C 
HETATM   14  C9  UNL     1      23.041  42.671  35.375  1.00  0.00     0.252 C 
HETATM   15  N4  UNL     1      23.979  42.287  34.324  1.00  0.00    -0.072 N 
ATOM     16  H41 UNL     1      24.194  43.075  33.712  1.00  0.00     0.277 HD
ATOM     17  H42 UNL     1      23.539  41.670  33.641  1.00  0.00     0.277 HD
HETATM   18  C10 UNL     1      25.167  41.706  34.860  1.00  0.00     0.259 C 
HETATM   19  C11 UNL     1      25.859  40.742  33.923  1.00  0.00     0.134 C 
HETATM   20  N7  UNL     1      24.940  40.103  33.004  1.00  0.00    -0.353 N 
ATOM     21  H7  UNL     1      24.196  40.675  32.604  1.00  0.00     0.163 HD
HETATM   22  C16 UNL     1      25.000  38.737  32.619  1.00  0.00     0.218 C 
HETATM   23  O6  UNL     1      24.714  38.418  31.429  1.00  0.00    -0.274 OA
HETATM   24  C17 UNL     1      25.384  37.626  33.531  1.00  0.00     0.105 C 
HETATM   25  C18 UNL     1      24.595  36.416  33.150  1.00  0.00     0.041 C 
HETATM   26  C19 UNL     1      23.518  36.035  34.153  1.00  0.00     0.146 C 
HETATM   27  N8  UNL     1      23.191  37.197  34.946  1.00  0.00    -0.348 N 
ATOM     28  H8  UNL     1      23.033  38.064  34.432  1.00  0.00     0.163 HD
HETATM   29  C21 UNL     1      23.066  37.270  36.352  1.00  0.00     0.241 C 
HETATM   30  O8  UNL     1      23.725  38.165  37.002  1.00  0.00    -0.271 OA
ENDROOT
BRANCH  19  31
HETATM   31  C12 UNL     1      26.814  41.578  33.077  1.00  0.00     0.198 C 
BRANCH  31  32
HETATM   32  O3  UNL     1      26.056  42.435  32.302  1.00  0.00    -0.355 OA
BRANCH  32  33
HETATM   33  C13 UNL     1      26.756  43.576  31.924  1.00  0.00     0.306 C 
HETATM   34  C14 UNL     1      26.335  44.793  32.689  1.00  0.00     0.187 C 
HETATM   35  N5  UNL     1      27.433  45.549  33.236  1.00  0.00    -0.337 N 
HETATM   36  C15 UNL     1      28.670  45.520  32.526  1.00  0.00     0.340 C 
ATOM     37  H5  UNL     1      27.330  46.086  34.098  1.00  0.00     0.164 HD
HETATM   38  O4  UNL     1      29.511  46.437  32.613  1.00  0.00    -0.245 OA
HETATM   39  N6  UNL     1      28.879  44.364  31.707  1.00  0.00    -0.214 N 
HETATM   40  O5  UNL     1      28.099  43.293  31.990  1.00  0.00    -0.242 OA
ATOM     41  H6  UNL     1      29.570  44.348  30.957  1.00  0.00     0.199 HD
ENDBRANCH  32  33
ENDBRANCH  31  32
ENDBRANCH  19  31
BRANCH  26  42
HETATM   42  C20 UNL     1      22.364  35.582  33.309  1.00  0.00     0.256 C 
HETATM   43  O7  UNL     1      21.205  35.732  33.609  1.00  0.00    -0.305 OA
ENDBRANCH  26  42
BRANCH   1  44
HETATM   44  C2  UNL     1      22.816  35.029  37.422  1.00  0.00     0.009 C 
HETATM   45  C1  UNL     1      22.732  34.622  38.878  1.00  0.00     0.012 C 
HETATM   46  C3  UNL     1      21.870  34.068  36.678  1.00  0.00     0.012 C 
ENDBRANCH   1  44
TORSDOF 5
ENDMDL
