MODEL 1
REMARK VINA RESULT: -11.930885215      0.000      0.000
REMARK  8 active torsions:
REMARK  status: ('A' for Active; 'I' for Inactive)
REMARK    1  A    between atoms: O1_1  and  N1_3 
REMARK    2  A    between atoms: C1_5  and  O2_6 
REMARK    3  A    between atoms: C1_5  and  C2_8 
REMARK    4  A    between atoms: C7_17  and  O3_18 
REMARK    5  A    between atoms: O3_18  and  C8_19 
REMARK    6  A    between atoms: C11_22  and  C12_23 
REMARK    7  A    between atoms: C13_24  and  C14_25 
REMARK    8  A    between atoms: C13_24  and  C20_31 
ROOT
HETATM    1  C8  UNL     1      41.758  13.480  50.331  1.00  0.00     0.078 A 
HETATM    2  C9  UNL     1      40.992  12.536  50.998  1.00  0.00     0.038 A 
HETATM    3  C10 UNL     1      40.969  12.520  52.382  1.00  0.00     0.014 A 
HETATM    4  C11 UNL     1      41.687  13.417  53.132  1.00  0.00    -0.035 A 
HETATM    5  C28 UNL     1      42.447  14.354  52.486  1.00  0.00     0.014 A 
HETATM    6  C29 UNL     1      42.478  14.382  51.088  1.00  0.00     0.038 A 
ENDROOT
BRANCH   1   7
HETATM    7  O3  UNL     1      41.821  13.542  48.945  1.00  0.00    -0.291 OA
BRANCH   7   8
HETATM    8  C7  UNL     1      42.987  13.979  48.316  1.00  0.00     0.190 A 
HETATM    9  N3  UNL     1      44.187  13.403  48.586  1.00  0.00    -0.278 N 
HETATM   10  N2  UNL     1      45.256  13.861  47.960  1.00  0.00    -0.309 N 
ATOM     11  H3  UNL     1      44.260  12.636  49.254  1.00  0.00     0.189 HD
HETATM   12  C6  UNL     1      45.210  14.865  47.074  1.00  0.00     0.121 A 
ATOM     13  H2  UNL     1      46.159  13.429  48.159  1.00  0.00     0.186 HD
HETATM   14  C5  UNL     1      43.995  15.471  46.781  1.00  0.00     0.012 A 
HETATM   15  C4  UNL     1      43.914  16.504  45.882  1.00  0.00     0.018 A 
HETATM   16  C30 UNL     1      42.857  15.019  47.416  1.00  0.00     0.098 A 
HETATM   17  C3  UNL     1      42.676  17.052  45.655  1.00  0.00     0.035 A 
HETATM   18  C2  UNL     1      41.527  16.616  46.278  1.00  0.00     0.086 A 
HETATM   19  N5  UNL     1      41.664  15.595  47.152  1.00  0.00    -0.349 N 
ATOM     20  H5  UNL     1      40.834  15.245  47.631  1.00  0.00     0.166 HD
BRANCH  18  21
HETATM   21  C1  UNL     1      40.241  17.239  46.003  1.00  0.00     0.187 C 
HETATM   22  N1  UNL     1      39.930  17.731  44.858  1.00  0.00    -0.246 N 
ATOM     23  H1  UNL     1      40.613  17.686  44.102  1.00  0.00     0.196 HD
BRANCH  22  24
HETATM   24  O1  UNL     1      38.710  18.315  44.614  1.00  0.00    -0.288 OA
ATOM     25  H1  UNL     1      37.931  18.095  45.111  1.00  0.00     0.244 HD
ENDBRANCH  22  24
BRANCH  21  26
HETATM   26  O2  UNL     1      39.308  17.305  47.021  1.00  0.00    -0.343 OA
ATOM     27  H2  UNL     1      39.311  16.621  47.681  1.00  0.00     0.219 HD
ENDBRANCH  21  26
ENDBRANCH  18  21
ENDBRANCH   7   8
ENDBRANCH   1   7
BRANCH   4  28
HETATM   28  C12 UNL     1      41.575  13.403  54.570  1.00  0.00     0.026 C 
HETATM   29  C13 UNL     1      40.743  14.001  55.363  1.00  0.00     0.002 C 
BRANCH  29  30
HETATM   30  C14 UNL     1      39.695  14.874  54.912  1.00  0.00    -0.024 A 
HETATM   31  C15 UNL     1      39.841  16.163  54.447  1.00  0.00     0.012 A 
HETATM   32  C16 UNL     1      38.820  16.912  53.907  1.00  0.00     0.001 A 
HETATM   33  C17 UNL     1      37.558  16.394  53.801  1.00  0.00     0.000 A 
HETATM   34  C18 UNL     1      37.375  15.112  54.254  1.00  0.00     0.001 A 
HETATM   35  C19 UNL     1      38.394  14.370  54.789  1.00  0.00     0.012 A 
ENDBRANCH  29  30
BRANCH  29  36
HETATM   36  C20 UNL     1      40.910  13.791  56.826  1.00  0.00     0.044 A 
HETATM   37  C21 UNL     1      41.782  14.404  57.693  1.00  0.00     0.044 A 
HETATM   38  C22 UNL     1      41.582  13.952  58.980  1.00  0.00    -0.007 A 
HETATM   39  C23 UNL     1      42.147  14.212  60.204  1.00  0.00     0.014 A 
HETATM   40  C27 UNL     1      40.559  13.035  58.903  1.00  0.00     0.043 A 
HETATM   41  C24 UNL     1      41.724  13.584  61.361  1.00  0.00     0.001 A 
HETATM   42  C25 UNL     1      40.696  12.674  61.229  1.00  0.00     0.002 A 
HETATM   43  C26 UNL     1      40.102  12.382  60.036  1.00  0.00     0.030 A 
HETATM   44  N4  UNL     1      40.183  12.966  57.602  1.00  0.00    -0.355 N 
ATOM     45  H4  UNL     1      39.439  12.362  57.254  1.00  0.00     0.166 HD
ENDBRANCH  29  36
ENDBRANCH   4  28
TORSDOF 8
ENDMDL
MODEL 2
REMARK VINA RESULT: -11.615414108      0.344      1.125
REMARK  8 active torsions:
REMARK  status: ('A' for Active; 'I' for Inactive)
REMARK    1  A    between atoms: O1_1  and  N1_3 
REMARK    2  A    between atoms: C1_5  and  O2_6 
REMARK    3  A    between atoms: C1_5  and  C2_8 
REMARK    4  A    between atoms: C7_17  and  O3_18 
REMARK    5  A    between atoms: O3_18  and  C8_19 
REMARK    6  A    between atoms: C11_22  and  C12_23 
REMARK    7  A    between atoms: C13_24  and  C14_25 
REMARK    8  A    between atoms: C13_24  and  C20_31 
ROOT
HETATM    1  C8  UNL     1      41.952  13.494  49.977  1.00  0.00     0.078 A 
HETATM    2  C9  UNL     1      42.415  14.553  50.744  1.00  0.00     0.038 A 
HETATM    3  C10 UNL     1      42.255  14.530  52.119  1.00  0.00     0.014 A 
HETATM    4  C11 UNL     1      41.646  13.484  52.764  1.00  0.00    -0.035 A 
HETATM    5  C28 UNL     1      41.184  12.432  52.018  1.00  0.00     0.014 A 
HETATM    6  C29 UNL     1      41.340  12.442  50.628  1.00  0.00     0.038 A 
ENDROOT
BRANCH   1   7
HETATM    7  O3  UNL     1      42.083  13.464  48.595  1.00  0.00    -0.291 OA
BRANCH   7   8
HETATM    8  C7  UNL     1      43.224  13.991  47.989  1.00  0.00     0.190 A 
HETATM    9  N3  UNL     1      44.448  13.446  48.206  1.00  0.00    -0.278 N 
HETATM   10  N2  UNL     1      45.491  13.990  47.605  1.00  0.00    -0.309 N 
ATOM     11  H3  UNL     1      44.560  12.638  48.818  1.00  0.00     0.189 HD
HETATM   12  C6  UNL     1      45.395  15.052  46.793  1.00  0.00     0.121 A 
ATOM     13  H2  UNL     1      46.413  13.583  47.765  1.00  0.00     0.186 HD
HETATM   14  C5  UNL     1      44.153  15.627  46.554  1.00  0.00     0.012 A 
HETATM   15  C4  UNL     1      44.020  16.717  45.732  1.00  0.00     0.018 A 
HETATM   16  C30 UNL     1      43.041  15.085  47.166  1.00  0.00     0.098 A 
HETATM   17  C3  UNL     1      42.759  17.228  45.555  1.00  0.00     0.035 A 
HETATM   18  C2  UNL     1      41.636  16.703  46.156  1.00  0.00     0.086 A 
HETATM   19  N5  UNL     1      41.824  15.630  46.954  1.00  0.00    -0.349 N 
ATOM     20  H5  UNL     1      41.014  15.214  47.415  1.00  0.00     0.166 HD
BRANCH  18  21
HETATM   21  C1  UNL     1      40.323  17.291  45.937  1.00  0.00     0.187 C 
HETATM   22  N1  UNL     1      39.941  17.753  44.802  1.00  0.00    -0.246 N 
ATOM     23  H1  UNL     1      40.584  17.708  44.011  1.00  0.00     0.196 HD
BRANCH  22  24
HETATM   24  O1  UNL     1      38.696  18.305  44.611  1.00  0.00    -0.288 OA
ATOM     25  H1  UNL     1      38.565  19.106  44.117  1.00  0.00     0.244 HD
ENDBRANCH  22  24
BRANCH  21  26
HETATM   26  O2  UNL     1      39.443  17.357  47.002  1.00  0.00    -0.343 OA
ATOM     27  H2  UNL     1      39.784  17.223  47.878  1.00  0.00     0.219 HD
ENDBRANCH  21  26
ENDBRANCH  18  21
ENDBRANCH   7   8
ENDBRANCH   1   7
BRANCH   4  28
HETATM   28  C12 UNL     1      41.566  13.475  54.203  1.00  0.00     0.026 C 
HETATM   29  C13 UNL     1      40.703  14.009  55.010  1.00  0.00     0.002 C 
BRANCH  29  30
HETATM   30  C14 UNL     1      39.575  14.786  54.573  1.00  0.00    -0.024 A 
HETATM   31  C15 UNL     1      38.259  14.379  54.540  1.00  0.00     0.012 A 
HETATM   32  C16 UNL     1      37.201  15.204  54.233  1.00  0.00     0.001 A 
HETATM   33  C17 UNL     1      37.411  16.522  53.932  1.00  0.00     0.000 A 
HETATM   34  C18 UNL     1      38.710  16.963  53.955  1.00  0.00     0.001 A 
HETATM   35  C19 UNL     1      39.760  16.139  54.263  1.00  0.00     0.012 A 
ENDBRANCH  29  30
BRANCH  29  36
HETATM   36  C20 UNL     1      40.917  13.829  56.470  1.00  0.00     0.044 A 
HETATM   37  C21 UNL     1      41.862  14.408  57.283  1.00  0.00     0.044 A 
HETATM   38  C22 UNL     1      41.688  14.006  58.590  1.00  0.00    -0.007 A 
HETATM   39  C23 UNL     1      42.319  14.262  59.781  1.00  0.00     0.014 A 
HETATM   40  C27 UNL     1      40.607  13.155  58.582  1.00  0.00     0.043 A 
HETATM   41  C24 UNL     1      41.905  13.694  60.973  1.00  0.00     0.001 A 
HETATM   42  C25 UNL     1      40.818  12.849  60.910  1.00  0.00     0.002 A 
HETATM   43  C26 UNL     1      40.157  12.564  59.750  1.00  0.00     0.030 A 
HETATM   44  N4  UNL     1      40.173  13.074  57.299  1.00  0.00    -0.355 N 
ATOM     45  H4  UNL     1      39.378  12.510  56.999  1.00  0.00     0.166 HD
ENDBRANCH  29  36
ENDBRANCH   4  28
TORSDOF 8
ENDMDL
MODEL 3
REMARK VINA RESULT: -11.371750043      1.657      2.959
REMARK  8 active torsions:
REMARK  status: ('A' for Active; 'I' for Inactive)
REMARK    1  A    between atoms: O1_1  and  N1_3 
REMARK    2  A    between atoms: C1_5  and  O2_6 
REMARK    3  A    between atoms: C1_5  and  C2_8 
REMARK    4  A    between atoms: C7_17  and  O3_18 
REMARK    5  A    between atoms: O3_18  and  C8_19 
REMARK    6  A    between atoms: C11_22  and  C12_23 
REMARK    7  A    between atoms: C13_24  and  C14_25 
REMARK    8  A    between atoms: C13_24  and  C20_31 
ROOT
HETATM    1  C8  UNL     1      40.872  14.213  51.229  1.00  0.00     0.078 A 
HETATM    2  C9  UNL     1      41.193  15.269  52.070  1.00  0.00     0.038 A 
HETATM    3  C10 UNL     1      41.175  15.087  53.442  1.00  0.00     0.014 A 
HETATM    4  C11 UNL     1      40.848  13.883  54.013  1.00  0.00    -0.035 A 
HETATM    5  C28 UNL     1      40.529  12.833  53.194  1.00  0.00     0.014 A 
HETATM    6  C29 UNL     1      40.543  13.003  51.806  1.00  0.00     0.038 A 
ENDROOT
BRANCH   1   7
HETATM    7  O3  UNL     1      40.870  14.338  49.846  1.00  0.00    -0.291 OA
BRANCH   7   8
HETATM    8  C7  UNL     1      42.076  14.375  49.146  1.00  0.00     0.190 A 
HETATM    9  N3  UNL     1      43.168  13.706  49.596  1.00  0.00    -0.278 N 
HETATM   10  N2  UNL     1      44.282  13.779  48.889  1.00  0.00    -0.309 N 
ATOM     11  H3  UNL     1      43.130  13.160  50.457  1.00  0.00     0.189 HD
HETATM   12  C6  UNL     1      44.381  14.482  47.753  1.00  0.00     0.121 A 
ATOM     13  H2  UNL     1      45.105  13.277  49.224  1.00  0.00     0.186 HD
HETATM   14  C5  UNL     1      43.278  15.174  47.271  1.00  0.00     0.012 A 
HETATM   15  C4  UNL     1      43.348  15.907  46.114  1.00  0.00     0.018 A 
HETATM   16  C30 UNL     1      42.097  15.121  47.984  1.00  0.00     0.098 A 
HETATM   17  C3  UNL     1      42.213  16.567  45.711  1.00  0.00     0.035 A 
HETATM   18  C2  UNL     1      41.025  16.527  46.407  1.00  0.00     0.086 A 
HETATM   19  N5  UNL     1      41.012  15.790  47.539  1.00  0.00    -0.349 N 
ATOM     20  H5  UNL     1      40.148  15.737  48.079  1.00  0.00     0.166 HD
BRANCH  18  21
HETATM   21  C1  UNL     1      39.855  17.253  45.936  1.00  0.00     0.187 C 
HETATM   22  N1  UNL     1      39.813  17.861  44.807  1.00  0.00    -0.246 N 
ATOM     23  H1  UNL     1      40.637  17.838  44.205  1.00  0.00     0.196 HD
BRANCH  22  24
HETATM   24  O1  UNL     1      38.700  18.542  44.376  1.00  0.00    -0.288 OA
ATOM     25  H1  UNL     1      38.045  18.145  43.813  1.00  0.00     0.244 HD
ENDBRANCH  22  24
BRANCH  21  26
HETATM   26  O2  UNL     1      38.732  17.291  46.744  1.00  0.00    -0.343 OA
ATOM     27  H2  UNL     1      38.767  16.852  47.585  1.00  0.00     0.219 HD
ENDBRANCH  21  26
ENDBRANCH  18  21
ENDBRANCH   7   8
ENDBRANCH   1   7
BRANCH   4  28
HETATM   28  C12 UNL     1      40.912  13.725  55.445  1.00  0.00     0.026 C 
HETATM   29  C13 UNL     1      41.926  13.672  56.249  1.00  0.00     0.002 C 
BRANCH  29  30
HETATM   30  C14 UNL     1      43.294  13.758  55.817  1.00  0.00    -0.024 A 
HETATM   31  C15 UNL     1      44.078  14.892  55.786  1.00  0.00     0.012 A 
HETATM   32  C16 UNL     1      45.421  14.897  55.483  1.00  0.00     0.001 A 
HETATM   33  C17 UNL     1      46.071  13.731  55.185  1.00  0.00     0.000 A 
HETATM   34  C18 UNL     1      45.322  12.581  55.206  1.00  0.00     0.001 A 
HETATM   35  C19 UNL     1      43.986  12.580  55.509  1.00  0.00     0.012 A 
ENDBRANCH  29  30
BRANCH  29  36
HETATM   36  C20 UNL     1      41.652  13.480  57.698  1.00  0.00     0.044 A 
HETATM   37  C21 UNL     1      42.265  14.065  58.779  1.00  0.00     0.044 A 
HETATM   38  C22 UNL     1      41.678  13.645  59.954  1.00  0.00    -0.007 A 
HETATM   39  C23 UNL     1      41.877  13.898  61.288  1.00  0.00     0.014 A 
HETATM   40  C27 UNL     1      40.677  12.777  59.586  1.00  0.00     0.043 A 
HETATM   41  C24 UNL     1      41.105  13.310  62.275  1.00  0.00     0.001 A 
HETATM   42  C25 UNL     1      40.116  12.449  61.852  1.00  0.00     0.002 A 
HETATM   43  C26 UNL     1      39.879  12.166  60.539  1.00  0.00     0.030 A 
HETATM   44  N4  UNL     1      40.690  12.704  58.231  1.00  0.00    -0.355 N 
ATOM     45  H4  UNL     1      40.049  12.130  57.684  1.00  0.00     0.166 HD
ENDBRANCH  29  36
ENDBRANCH   4  28
TORSDOF 8
ENDMDL
MODEL 4
REMARK VINA RESULT: -10.809765248      2.895      4.295
REMARK  8 active torsions:
REMARK  status: ('A' for Active; 'I' for Inactive)
REMARK    1  A    between atoms: O1_1  and  N1_3 
REMARK    2  A    between atoms: C1_5  and  O2_6 
REMARK    3  A    between atoms: C1_5  and  C2_8 
REMARK    4  A    between atoms: C7_17  and  O3_18 
REMARK    5  A    between atoms: O3_18  and  C8_19 
REMARK    6  A    between atoms: C11_22  and  C12_23 
REMARK    7  A    between atoms: C13_24  and  C14_25 
REMARK    8  A    between atoms: C13_24  and  C20_31 
ROOT
HETATM    1  C8  UNL     1      41.735  12.988  50.482  1.00  0.00     0.078 A 
HETATM    2  C9  UNL     1      40.817  12.221  51.185  1.00  0.00     0.038 A 
HETATM    3  C10 UNL     1      40.793  12.272  52.568  1.00  0.00     0.014 A 
HETATM    4  C11 UNL     1      41.655  13.065  53.283  1.00  0.00    -0.035 A 
HETATM    5  C28 UNL     1      42.566  13.826  52.601  1.00  0.00     0.014 A 
HETATM    6  C29 UNL     1      42.601  13.785  51.203  1.00  0.00     0.038 A 
ENDROOT
BRANCH   1   7
HETATM    7  O3  UNL     1      41.807  12.975  49.096  1.00  0.00    -0.291 OA
BRANCH   7   8
HETATM    8  C7  UNL     1      42.829  12.273  48.455  1.00  0.00     0.190 A 
HETATM    9  N3  UNL     1      44.035  12.850  48.220  1.00  0.00    -0.278 N 
HETATM   10  N2  UNL     1      44.963  12.135  47.609  1.00  0.00    -0.309 N 
ATOM     11  H3  UNL     1      44.221  13.810  48.509  1.00  0.00     0.189 HD
HETATM   12  C6  UNL     1      44.767  10.871  47.211  1.00  0.00     0.121 A 
ATOM     13  H2  UNL     1      45.871  12.565  47.432  1.00  0.00     0.186 HD
HETATM   14  C5  UNL     1      43.541  10.258  47.440  1.00  0.00     0.012 A 
HETATM   15  C4  UNL     1      43.306   8.967  47.041  1.00  0.00     0.018 A 
HETATM   16  C30 UNL     1      42.549  10.975  48.076  1.00  0.00     0.098 A 
HETATM   17  C3  UNL     1      42.066   8.438  47.299  1.00  0.00     0.035 A 
HETATM   18  C2  UNL     1      41.061   9.136  47.932  1.00  0.00     0.086 A 
HETATM   19  N5  UNL     1      41.347  10.403  48.305  1.00  0.00    -0.349 N 
ATOM     20  H5  UNL     1      40.626  10.949  48.778  1.00  0.00     0.166 HD
BRANCH  18  21
HETATM   21  C1  UNL     1      39.762   8.527  48.174  1.00  0.00     0.187 C 
HETATM   22  N1  UNL     1      39.402   7.409  47.655  1.00  0.00    -0.246 N 
ATOM     23  H1  UNL     1      40.055   6.919  47.042  1.00  0.00     0.196 HD
BRANCH  22  24
HETATM   24  O1  UNL     1      38.171   6.847  47.894  1.00  0.00    -0.288 OA
ATOM     25  H1  UNL     1      38.066   5.933  48.134  1.00  0.00     0.244 HD
ENDBRANCH  22  24
BRANCH  21  26
HETATM   26  O2  UNL     1      38.869   9.182  49.003  1.00  0.00    -0.343 OA
ATOM     27  H2  UNL     1      38.012   9.404  48.658  1.00  0.00     0.219 HD
ENDBRANCH  21  26
ENDBRANCH  18  21
ENDBRANCH   7   8
ENDBRANCH   1   7
BRANCH   4  28
HETATM   28  C12 UNL     1      41.543  13.136  54.719  1.00  0.00     0.026 C 
HETATM   29  C13 UNL     1      40.752  13.828  55.477  1.00  0.00     0.002 C 
BRANCH  29  30
HETATM   30  C14 UNL     1      39.763  14.742  54.975  1.00  0.00    -0.024 A 
HETATM   31  C15 UNL     1      39.992  15.998  54.454  1.00  0.00     0.012 A 
HETATM   32  C16 UNL     1      39.022  16.782  53.871  1.00  0.00     0.001 A 
HETATM   33  C17 UNL     1      37.732  16.337  53.775  1.00  0.00     0.000 A 
HETATM   34  C18 UNL     1      37.467  15.091  54.284  1.00  0.00     0.001 A 
HETATM   35  C19 UNL     1      38.435  14.313  54.863  1.00  0.00     0.012 A 
ENDBRANCH  29  30
BRANCH  29  36
HETATM   36  C20 UNL     1      40.906  13.688  56.949  1.00  0.00     0.044 A 
HETATM   37  C21 UNL     1      41.768  14.343  57.795  1.00  0.00     0.044 A 
HETATM   38  C22 UNL     1      41.556  13.951  59.100  1.00  0.00    -0.007 A 
HETATM   39  C23 UNL     1      42.109  14.269  60.315  1.00  0.00     0.014 A 
HETATM   40  C27 UNL     1      40.537  13.028  59.056  1.00  0.00     0.043 A 
HETATM   41  C24 UNL     1      41.676  13.694  61.497  1.00  0.00     0.001 A 
HETATM   42  C25 UNL     1      40.653  12.776  61.397  1.00  0.00     0.002 A 
HETATM   43  C26 UNL     1      40.071  12.427  60.213  1.00  0.00     0.030 A 
HETATM   44  N4  UNL     1      40.174  12.897  57.755  1.00  0.00    -0.355 N 
ATOM     45  H4  UNL     1      39.435  12.275  57.429  1.00  0.00     0.166 HD
ENDBRANCH  29  36
ENDBRANCH   4  28
TORSDOF 8
ENDMDL
MODEL 5
REMARK VINA RESULT: -10.656449212      0.970      1.383
REMARK  8 active torsions:
REMARK  status: ('A' for Active; 'I' for Inactive)
REMARK    1  A    between atoms: O1_1  and  N1_3 
REMARK    2  A    between atoms: C1_5  and  O2_6 
REMARK    3  A    between atoms: C1_5  and  C2_8 
REMARK    4  A    between atoms: C7_17  and  O3_18 
REMARK    5  A    between atoms: O3_18  and  C8_19 
REMARK    6  A    between atoms: C11_22  and  C12_23 
REMARK    7  A    between atoms: C13_24  and  C14_25 
REMARK    8  A    between atoms: C13_24  and  C20_31 
ROOT
HETATM    1  C8  UNL     1      42.052  13.284  50.357  1.00  0.00     0.078 A 
HETATM    2  C9  UNL     1      42.558  14.321  51.128  1.00  0.00     0.038 A 
HETATM    3  C10 UNL     1      42.366  14.317  52.499  1.00  0.00     0.014 A 
HETATM    4  C11 UNL     1      41.683  13.311  53.136  1.00  0.00    -0.035 A 
HETATM    5  C28 UNL     1      41.179  12.282  52.386  1.00  0.00     0.014 A 
HETATM    6  C29 UNL     1      41.366  12.273  51.000  1.00  0.00     0.038 A 
ENDROOT
BRANCH   1   7
HETATM    7  O3  UNL     1      42.212  13.237  48.979  1.00  0.00    -0.291 OA
BRANCH   7   8
HETATM    8  C7  UNL     1      43.491  13.199  48.424  1.00  0.00     0.190 A 
HETATM    9  N3  UNL     1      44.395  12.262  48.809  1.00  0.00    -0.278 N 
HETATM   10  N2  UNL     1      45.591  12.278  48.247  1.00  0.00    -0.309 N 
ATOM     11  H3  UNL     1      44.156  11.563  49.512  1.00  0.00     0.189 HD
HETATM   12  C6  UNL     1      45.950  13.175  47.320  1.00  0.00     0.121 A 
ATOM     13  H2  UNL     1      46.272  11.574  48.534  1.00  0.00     0.186 HD
HETATM   14  C5  UNL     1      45.044  14.143  46.909  1.00  0.00     0.012 A 
HETATM   15  C4  UNL     1      45.382  15.079  45.964  1.00  0.00     0.018 A 
HETATM   16  C30 UNL     1      43.785  14.158  47.474  1.00  0.00     0.098 A 
HETATM   17  C3  UNL     1      44.430  16.006  45.619  1.00  0.00     0.035 A 
HETATM   18  C2  UNL     1      43.168  16.038  46.171  1.00  0.00     0.086 A 
HETATM   19  N5  UNL     1      42.888  15.093  47.095  1.00  0.00    -0.349 N 
ATOM     20  H5  UNL     1      41.962  15.086  47.523  1.00  0.00     0.166 HD
BRANCH  18  21
HETATM   21  C1  UNL     1      42.200  17.049  45.772  1.00  0.00     0.187 C 
HETATM   22  N1  UNL     1      40.937  16.825  45.706  1.00  0.00    -0.246 N 
ATOM     23  H1  UNL     1      40.590  15.896  45.944  1.00  0.00     0.196 HD
BRANCH  22  24
HETATM   24  O1  UNL     1      40.036  17.791  45.328  1.00  0.00    -0.288 OA
ATOM     25  H1  UNL     1      40.273  18.708  45.254  1.00  0.00     0.244 HD
ENDBRANCH  22  24
BRANCH  21  26
HETATM   26  O2  UNL     1      42.660  18.312  45.446  1.00  0.00    -0.343 OA
ATOM     27  H2  UNL     1      43.280  18.396  44.731  1.00  0.00     0.219 HD
ENDBRANCH  21  26
ENDBRANCH  18  21
ENDBRANCH   7   8
ENDBRANCH   1   7
BRANCH   4  28
HETATM   28  C12 UNL     1      41.571  13.317  54.573  1.00  0.00     0.026 C 
HETATM   29  C13 UNL     1      40.744  13.933  55.359  1.00  0.00     0.002 C 
BRANCH  29  30
HETATM   30  C14 UNL     1      39.704  14.810  54.894  1.00  0.00    -0.024 A 
HETATM   31  C15 UNL     1      39.859  16.100  54.435  1.00  0.00     0.012 A 
HETATM   32  C16 UNL     1      38.846  16.852  53.883  1.00  0.00     0.001 A 
HETATM   33  C17 UNL     1      37.586  16.337  53.758  1.00  0.00     0.000 A 
HETATM   34  C18 UNL     1      37.393  15.054  54.206  1.00  0.00     0.001 A 
HETATM   35  C19 UNL     1      38.404  14.309  54.753  1.00  0.00     0.012 A 
ENDBRANCH  29  30
BRANCH  29  36
HETATM   36  C20 UNL     1      40.908  13.742  56.824  1.00  0.00     0.044 A 
HETATM   37  C21 UNL     1      41.800  14.341  57.679  1.00  0.00     0.044 A 
HETATM   38  C22 UNL     1      41.590  13.916  58.974  1.00  0.00    -0.007 A 
HETATM   39  C23 UNL     1      42.166  14.177  60.192  1.00  0.00     0.014 A 
HETATM   40  C27 UNL     1      40.540  13.030  58.914  1.00  0.00     0.043 A 
HETATM   41  C24 UNL     1      41.726  13.581  61.360  1.00  0.00     0.001 A 
HETATM   42  C25 UNL     1      40.671  12.701  61.245  1.00  0.00     0.002 A 
HETATM   43  C26 UNL     1      40.066  12.409  60.057  1.00  0.00     0.030 A 
HETATM   44  N4  UNL     1      40.158  12.952  57.614  1.00  0.00    -0.355 N 
ATOM     45  H4  UNL     1      39.395  12.365  57.277  1.00  0.00     0.166 HD
ENDBRANCH  29  36
ENDBRANCH   4  28
TORSDOF 8
ENDMDL
