MODEL 1
REMARK VINA RESULT: -4.830104757      0.000      0.000
REMARK  1 active torsions:
REMARK  status: ('A' for Active; 'I' for Inactive)
REMARK    1  A    between atoms: C1_4  and  N2_5 
ROOT
HETATM    1  N2  UNL     1      45.976 -22.584  62.870  1.00  0.00    -0.377 N 
HETATM    2  C2  UNL     1      44.783 -21.972  63.403  1.00  0.00     0.128 C 
HETATM    3  C3  UNL     1      43.659 -22.786  62.824  1.00  0.00     0.010 A 
HETATM    4  C4  UNL     1      43.279 -22.529  61.384  1.00  0.00     0.013 A 
HETATM    5  C5  UNL     1      44.189 -23.665  61.770  1.00  0.00     0.010 A 
HETATM    6  C6  UNL     1      45.652 -23.369  61.693  1.00  0.00     0.128 C 
ENDROOT
BRANCH   1   7
HETATM    7  C1  UNL     1      47.281 -22.462  63.388  1.00  0.00     0.171 C 
HETATM    8  N1  UNL     1      47.754 -21.295  63.626  1.00  0.00    -0.395 N 
ATOM      9  H12 UNL     1      47.178 -20.474  63.437  1.00  0.00     0.156 HD
ATOM     10  H11 UNL     1      48.698 -21.206  64.000  1.00  0.00     0.156 HD
ENDBRANCH   1   7
TORSDOF 1
ENDMDL
MODEL 2
REMARK VINA RESULT: -4.672844247      1.862      2.768
REMARK  1 active torsions:
REMARK  status: ('A' for Active; 'I' for Inactive)
REMARK    1  A    between atoms: C1_4  and  N2_5 
ROOT
HETATM    1  N2  UNL     1      44.610 -22.873  62.053  1.00  0.00    -0.377 N 
HETATM    2  C2  UNL     1      43.361 -22.659  61.364  1.00  0.00     0.128 C 
HETATM    3  C3  UNL     1      42.686 -21.571  62.153  1.00  0.00     0.010 A 
HETATM    4  C4  UNL     1      42.026 -21.960  63.456  1.00  0.00     0.013 A 
HETATM    5  C5  UNL     1      43.409 -21.367  63.418  1.00  0.00     0.010 A 
HETATM    6  C6  UNL     1      44.530 -22.357  63.407  1.00  0.00     0.128 C 
ENDROOT
BRANCH   1   7
HETATM    7  C1  UNL     1      45.762 -23.490  61.523  1.00  0.00     0.171 C 
HETATM    8  N1  UNL     1      45.682 -24.691  61.082  1.00  0.00    -0.395 N 
ATOM      9  H12 UNL     1      44.788 -25.179  61.120  1.00  0.00     0.156 HD
ATOM     10  H11 UNL     1      46.516 -25.137  60.699  1.00  0.00     0.156 HD
ENDBRANCH   1   7
TORSDOF 1
ENDMDL
MODEL 3
REMARK VINA RESULT: -4.670802810      0.689      1.579
REMARK  1 active torsions:
REMARK  status: ('A' for Active; 'I' for Inactive)
REMARK    1  A    between atoms: C1_4  and  N2_5 
ROOT
HETATM    1  N2  UNL     1      45.603 -22.662  62.729  1.00  0.00    -0.377 N 
HETATM    2  C2  UNL     1      45.148 -23.459  61.616  1.00  0.00     0.128 C 
HETATM    3  C3  UNL     1      43.808 -22.875  61.265  1.00  0.00     0.010 A 
HETATM    4  C4  UNL     1      42.635 -23.239  62.145  1.00  0.00     0.013 A 
HETATM    5  C5  UNL     1      43.388 -21.949  62.329  1.00  0.00     0.010 A 
HETATM    6  C6  UNL     1      44.480 -21.984  63.349  1.00  0.00     0.128 C 
ENDROOT
BRANCH   1   7
HETATM    7  C1  UNL     1      46.933 -22.535  63.179  1.00  0.00     0.171 C 
HETATM    8  N1  UNL     1      47.402 -21.367  63.424  1.00  0.00    -0.395 N 
ATOM      9  H12 UNL     1      46.806 -20.551  63.291  1.00  0.00     0.156 HD
ATOM     10  H11 UNL     1      48.364 -21.276  63.750  1.00  0.00     0.156 HD
ENDBRANCH   1   7
TORSDOF 1
ENDMDL
MODEL 4
REMARK VINA RESULT: -4.609685280      1.782      2.438
REMARK  1 active torsions:
REMARK  status: ('A' for Active; 'I' for Inactive)
REMARK    1  A    between atoms: C1_4  and  N2_5 
ROOT
HETATM    1  N2  UNL     1      44.739 -22.818  62.086  1.00  0.00    -0.377 N 
HETATM    2  C2  UNL     1      44.693 -21.989  63.266  1.00  0.00     0.128 C 
HETATM    3  C3  UNL     1      43.232 -21.928  63.618  1.00  0.00     0.010 A 
HETATM    4  C4  UNL     1      42.355 -21.006  62.803  1.00  0.00     0.013 A 
HETATM    5  C5  UNL     1      42.441 -22.479  62.506  1.00  0.00     0.010 A 
HETATM    6  C6  UNL     1      43.433 -22.864  61.456  1.00  0.00     0.128 C 
ENDROOT
BRANCH   1   7
HETATM    7  C1  UNL     1      45.868 -23.498  61.586  1.00  0.00     0.171 C 
HETATM    8  N1  UNL     1      45.717 -24.655  61.054  1.00  0.00    -0.395 N 
ATOM      9  H12 UNL     1      44.784 -25.063  61.000  1.00  0.00     0.156 HD
ATOM     10  H11 UNL     1      46.534 -25.147  60.692  1.00  0.00     0.156 HD
ENDBRANCH   1   7
TORSDOF 1
ENDMDL
MODEL 5
REMARK VINA RESULT: -4.579055339      1.220      2.024
REMARK  1 active torsions:
REMARK  status: ('A' for Active; 'I' for Inactive)
REMARK    1  A    between atoms: C1_4  and  N2_5 
ROOT
HETATM    1  N2  UNL     1      44.938 -22.453  62.860  1.00  0.00    -0.377 N 
HETATM    2  C2  UNL     1      44.399 -23.279  61.808  1.00  0.00     0.128 C 
HETATM    3  C3  UNL     1      43.141 -22.569  61.387  1.00  0.00     0.010 A 
HETATM    4  C4  UNL     1      41.926 -22.716  62.274  1.00  0.00     0.013 A 
HETATM    5  C5  UNL     1      42.828 -21.515  62.366  1.00  0.00     0.010 A 
HETATM    6  C6  UNL     1      43.900 -21.597  63.404  1.00  0.00     0.128 C 
ENDROOT
BRANCH   1   7
HETATM    7  C1  UNL     1      46.270 -22.450  63.322  1.00  0.00     0.171 C 
HETATM    8  N1  UNL     1      47.073 -23.366  62.922  1.00  0.00    -0.395 N 
ATOM      9  H12 UNL     1      46.736 -24.081  62.277  1.00  0.00     0.156 HD
ATOM     10  H11 UNL     1      48.036 -23.364  63.256  1.00  0.00     0.156 HD
ENDBRANCH   1   7
TORSDOF 1
ENDMDL
