MODEL 1
REMARK VINA RESULT: -3.923833526      0.000      0.000
REMARK  1 active torsions:
REMARK  status: ('A' for Active; 'I' for Inactive)
REMARK    1  A    between atoms: N1_2  and  C2_4 
ROOT
HETATM    1  C2  UNL     1      44.294 -22.733  63.428  1.00  0.00     0.128 C 
HETATM    2  C3  UNL     1      43.809 -21.344  63.298  1.00  0.00     0.262 C 
HETATM    3  N2  UNL     1      42.615 -21.823  62.642  1.00  0.00    -0.071 N 
HETATM    4  C4  UNL     1      41.443 -21.952  63.501  1.00  0.00     0.272 C 
HETATM    5  C5  UNL     1      42.242 -21.056  61.467  1.00  0.00     0.272 C 
HETATM    6  C6  UNL     1      43.265 -23.067  62.379  1.00  0.00     0.262 C 
ENDROOT
BRANCH   1   7
HETATM    7  N1  UNL     1      45.655 -23.004  63.067  1.00  0.00    -0.418 N 
HETATM    8  C1  UNL     1      45.873 -23.370  61.720  1.00  0.00     0.140 C 
ATOM      9  H1  UNL     1      46.419 -22.936  63.741  1.00  0.00     0.153 HD
ENDBRANCH   1   7
TORSDOF 1
ENDMDL
MODEL 2
REMARK VINA RESULT: -3.916355042      0.997      1.062
REMARK  1 active torsions:
REMARK  status: ('A' for Active; 'I' for Inactive)
REMARK    1  A    between atoms: N1_2  and  C2_4 
ROOT
HETATM    1  C2  UNL     1      43.793 -23.446  62.312  1.00  0.00     0.128 C 
HETATM    2  C3  UNL     1      43.778 -21.978  62.471  1.00  0.00     0.262 C 
HETATM    3  N2  UNL     1      42.358 -21.964  62.205  1.00  0.00    -0.071 N 
HETATM    4  C4  UNL     1      41.505 -21.911  63.387  1.00  0.00     0.272 C 
HETATM    5  C5  UNL     1      41.941 -20.916  61.290  1.00  0.00     0.272 C 
HETATM    6  C6  UNL     1      42.457 -23.270  61.635  1.00  0.00     0.262 C 
ENDROOT
BRANCH   1   7
HETATM    7  N1  UNL     1      44.826 -24.022  61.501  1.00  0.00    -0.418 N 
HETATM    8  C1  UNL     1      46.106 -23.439  61.631  1.00  0.00     0.140 C 
ATOM      9  H1  UNL     1      44.647 -24.804  60.871  1.00  0.00     0.153 HD
ENDBRANCH   1   7
TORSDOF 1
ENDMDL
MODEL 3
REMARK VINA RESULT: -3.814488107      0.742      1.723
REMARK  1 active torsions:
REMARK  status: ('A' for Active; 'I' for Inactive)
REMARK    1  A    between atoms: N1_2  and  C2_4 
ROOT
HETATM    1  C2  UNL     1      44.460 -22.327  62.582  1.00  0.00     0.128 C 
HETATM    2  C3  UNL     1      43.141 -22.949  62.348  1.00  0.00     0.262 C 
HETATM    3  N2  UNL     1      42.492 -21.716  62.728  1.00  0.00    -0.071 N 
HETATM    4  C4  UNL     1      42.077 -20.865  61.618  1.00  0.00     0.272 C 
HETATM    5  C5  UNL     1      41.358 -21.898  63.616  1.00  0.00     0.272 C 
HETATM    6  C6  UNL     1      43.698 -21.281  63.356  1.00  0.00     0.262 C 
ENDROOT
BRANCH   1   7
HETATM    7  N1  UNL     1      45.427 -23.070  63.336  1.00  0.00    -0.418 N 
HETATM    8  C1  UNL     1      46.779 -22.723  63.114  1.00  0.00     0.140 C 
ATOM      9  H1  UNL     1      45.156 -23.804  63.991  1.00  0.00     0.153 HD
ENDBRANCH   1   7
TORSDOF 1
ENDMDL
MODEL 4
REMARK VINA RESULT: -3.752057141      1.227      1.814
REMARK  1 active torsions:
REMARK  status: ('A' for Active; 'I' for Inactive)
REMARK    1  A    between atoms: N1_2  and  C2_4 
ROOT
HETATM    1  C2  UNL     1      44.540 -22.310  62.507  1.00  0.00     0.128 C 
HETATM    2  C3  UNL     1      43.909 -22.957  61.339  1.00  0.00     0.262 C 
HETATM    3  N2  UNL     1      42.620 -22.463  61.762  1.00  0.00    -0.071 N 
HETATM    4  C4  UNL     1      42.170 -21.247  61.094  1.00  0.00     0.272 C 
HETATM    5  C5  UNL     1      41.558 -23.450  61.685  1.00  0.00     0.272 C 
HETATM    6  C6  UNL     1      43.144 -22.230  63.070  1.00  0.00     0.262 C 
ENDROOT
BRANCH   1   7
HETATM    7  N1  UNL     1      45.474 -23.079  63.276  1.00  0.00    -0.418 N 
HETATM    8  C1  UNL     1      46.835 -22.737  63.113  1.00  0.00     0.140 C 
ATOM      9  H1  UNL     1      45.175 -23.828  63.901  1.00  0.00     0.153 HD
ENDBRANCH   1   7
TORSDOF 1
ENDMDL
MODEL 5
REMARK VINA RESULT: -3.749238687      1.095      1.162
REMARK  1 active torsions:
REMARK  status: ('A' for Active; 'I' for Inactive)
REMARK    1  A    between atoms: N1_2  and  C2_4 
ROOT
HETATM    1  C2  UNL     1      44.076 -23.158  62.829  1.00  0.00     0.128 C 
HETATM    2  C3  UNL     1      43.005 -22.169  63.062  1.00  0.00     0.262 C 
HETATM    3  N2  UNL     1      42.505 -22.394  61.725  1.00  0.00    -0.071 N 
HETATM    4  C4  UNL     1      41.377 -23.314  61.631  1.00  0.00     0.272 C 
HETATM    5  C5  UNL     1      42.169 -21.177  61.010  1.00  0.00     0.272 C 
HETATM    6  C6  UNL     1      43.753 -22.990  61.366  1.00  0.00     0.262 C 
ENDROOT
BRANCH   1   7
HETATM    7  N1  UNL     1      45.411 -22.803  63.211  1.00  0.00    -0.418 N 
HETATM    8  C1  UNL     1      46.424 -23.127  62.282  1.00  0.00     0.140 C 
ATOM      9  H1  UNL     1      45.617 -22.345  64.100  1.00  0.00     0.153 HD
ENDBRANCH   1   7
TORSDOF 1
ENDMDL
