MODEL 1
REMARK VINA RESULT: -8.492748245      0.000      0.000
REMARK  12 active torsions:
REMARK  status: ('A' for Active; 'I' for Inactive)
REMARK    1  A    between atoms: C2_2  and  O1_3 
REMARK    2  A    between atoms: O1_3  and  C3_4 
REMARK    3  A    between atoms: C7_8  and  O2_9 
REMARK    4  A    between atoms: O2_9  and  C8_10 
REMARK    5  A    between atoms: C8_10  and  C9_11 
REMARK    6  A    between atoms: C10_13  and  O4_14 
REMARK    7  A    between atoms: O4_14  and  C11_15 
REMARK    8  A    between atoms: C18_25  and  O5_26 
REMARK    9  A    between atoms: C19_28  and  O6_29 
REMARK   10  A    between atoms: C20_31  and  O7_32 
REMARK   11  A    between atoms: C21_34  and  O8_35 
REMARK   12  A    between atoms: C22_37  and  O9_38 
ROOT
HETATM    1  C9  UNL     1      14.843  15.655  15.918  1.00  0.00     0.179 C 
HETATM    2  O3  UNL     1      15.732  16.098  16.909  1.00  0.00    -0.348 OA
HETATM    3  C10 UNL     1      15.923  15.288  17.976  1.00  0.00     0.292 C 
HETATM    4  C18 UNL     1      14.714  14.704  18.620  1.00  0.00     0.204 C 
HETATM    5  C19 UNL     1      13.754  14.210  17.558  1.00  0.00     0.183 C 
HETATM    6  C20 UNL     1      13.540  15.360  16.607  1.00  0.00     0.180 C 
ENDROOT
BRANCH   1   7
HETATM    7  C8  UNL     1      15.517  14.497  15.272  1.00  0.00     0.203 C 
BRANCH   7   8
HETATM    8  O2  UNL     1      16.396  14.714  14.258  1.00  0.00    -0.381 OA
BRANCH   8   9
HETATM    9  C7  UNL     1      17.588  13.988  14.339  1.00  0.00     0.153 C 
HETATM   10  C6  UNL     1      17.379  12.977  15.483  1.00  0.00     0.041 C 
HETATM   11  C4  UNL     1      18.334  11.843  15.439  1.00  0.00     0.016 C 
HETATM   12  C3  UNL     1      19.502  12.219  14.562  1.00  0.00     0.162 C 
HETATM   13  C5  UNL     1      18.897  11.572  16.837  1.00  0.00     0.012 C 
HETATM   14  C22 UNL     1      19.031  12.333  13.125  1.00  0.00     0.179 C 
HETATM   15  C21 UNL     1      17.852  13.295  13.046  1.00  0.00     0.178 C 
BRANCH  12  16
HETATM   16  O1  UNL     1      20.554  11.271  14.622  1.00  0.00    -0.356 OA
BRANCH  16  17
HETATM   17  C2  UNL     1      21.660  11.509  13.823  1.00  0.00     0.125 C 
HETATM   18  C1  UNL     1      22.735  10.765  13.804  1.00  0.00     0.037 C 
ENDBRANCH  16  17
ENDBRANCH  12  16
BRANCH  14  19
HETATM   19  O9  UNL     1      18.597  11.093  12.700  1.00  0.00    -0.390 OA
ATOM     20  H9  UNL     1      17.817  11.208  12.170  1.00  0.00     0.210 HD
ENDBRANCH  14  19
BRANCH  15  21
HETATM   21  O8  UNL     1      16.714  12.640  12.559  1.00  0.00    -0.390 OA
ATOM     22  H8  UNL     1      16.125  13.235  12.110  1.00  0.00     0.210 HD
ENDBRANCH  15  21
ENDBRANCH   8   9
ENDBRANCH   7   8
ENDBRANCH   1   7
BRANCH   6  23
HETATM   23  O7  UNL     1      12.426  15.257  15.848  1.00  0.00    -0.390 OA
ATOM     24  H7  UNL     1      12.429  14.637  15.129  1.00  0.00     0.210 HD
ENDBRANCH   6  23
BRANCH   3  25
HETATM   25  O4  UNL     1      16.757  15.946  18.871  1.00  0.00    -0.351 OA
BRANCH  25  26
HETATM   26  C11 UNL     1      17.692  15.198  19.490  1.00  0.00     0.156 C 
HETATM   27  C12 UNL     1      18.565  16.087  20.395  1.00  0.00     0.041 C 
HETATM   28  C13 UNL     1      19.557  16.162  19.220  1.00  0.00     0.021 C 
HETATM   29  C14 UNL     1      20.997  15.999  19.598  1.00  0.00     0.008 C 
HETATM   30  C17 UNL     1      18.955  14.846  18.779  1.00  0.00     0.218 C 
HETATM   31  C15 UNL     1      21.689  14.905  18.821  1.00  0.00     0.028 C 
HETATM   32  C16 UNL     1      20.930  13.616  18.781  1.00  0.00     0.233 C 
HETATM   33  N1  UNL     1      19.690  13.815  19.528  1.00  0.00    -0.068 N 
ATOM     34  H12 UNL     1      19.159  12.957  19.682  1.00  0.00     0.277 HD
ATOM     35  H11 UNL     1      19.833  14.042  20.512  1.00  0.00     0.277 HD
ENDBRANCH  25  26
ENDBRANCH   3  25
BRANCH   5  36
HETATM   36  O6  UNL     1      12.536  13.981  18.257  1.00  0.00    -0.390 OA
ATOM     37  H6  UNL     1      11.929  13.688  17.588  1.00  0.00     0.210 HD
ENDBRANCH   5  36
BRANCH   4  38
HETATM   38  O5  UNL     1      13.984  15.654  19.369  1.00  0.00    -0.388 OA
ATOM     39  H5  UNL     1      13.792  15.355  20.250  1.00  0.00     0.210 HD
ENDBRANCH   4  38
TORSDOF 12
ENDMDL
MODEL 2
REMARK VINA RESULT: -8.441412268      2.387      6.388
REMARK  12 active torsions:
REMARK  status: ('A' for Active; 'I' for Inactive)
REMARK    1  A    between atoms: C2_2  and  O1_3 
REMARK    2  A    between atoms: O1_3  and  C3_4 
REMARK    3  A    between atoms: C7_8  and  O2_9 
REMARK    4  A    between atoms: O2_9  and  C8_10 
REMARK    5  A    between atoms: C8_10  and  C9_11 
REMARK    6  A    between atoms: C10_13  and  O4_14 
REMARK    7  A    between atoms: O4_14  and  C11_15 
REMARK    8  A    between atoms: C18_25  and  O5_26 
REMARK    9  A    between atoms: C19_28  and  O6_29 
REMARK   10  A    between atoms: C20_31  and  O7_32 
REMARK   11  A    between atoms: C21_34  and  O8_35 
REMARK   12  A    between atoms: C22_37  and  O9_38 
ROOT
HETATM    1  C9  UNL     1      17.525  16.366  18.661  1.00  0.00     0.179 C 
HETATM    2  O3  UNL     1      18.340  15.525  17.889  1.00  0.00    -0.348 OA
HETATM    3  C10 UNL     1      18.969  14.513  18.530  1.00  0.00     0.292 C 
HETATM    4  C18 UNL     1      19.660  14.836  19.809  1.00  0.00     0.204 C 
HETATM    5  C19 UNL     1      18.783  15.734  20.656  1.00  0.00     0.183 C 
HETATM    6  C20 UNL     1      18.383  16.892  19.779  1.00  0.00     0.180 C 
ENDROOT
BRANCH   1   7
HETATM    7  C8  UNL     1      16.364  15.529  19.068  1.00  0.00     0.203 C 
BRANCH   7   8
HETATM    8  O2  UNL     1      15.104  16.021  18.929  1.00  0.00    -0.381 OA
BRANCH   8   9
HETATM    9  C7  UNL     1      14.676  16.196  17.610  1.00  0.00     0.153 C 
HETATM   10  C6  UNL     1      15.369  15.083  16.800  1.00  0.00     0.041 C 
HETATM   11  C4  UNL     1      14.718  14.824  15.492  1.00  0.00     0.016 C 
HETATM   12  C3  UNL     1      13.845  16.001  15.138  1.00  0.00     0.162 C 
HETATM   13  C5  UNL     1      15.775  14.706  14.391  1.00  0.00     0.012 C 
HETATM   14  C22 UNL     1      12.676  16.064  16.101  1.00  0.00     0.179 C 
HETATM   15  C21 UNL     1      13.192  16.076  17.534  1.00  0.00     0.178 C 
BRANCH  12  16
HETATM   16  O1  UNL     1      13.340  15.923  13.815  1.00  0.00    -0.356 OA
BRANCH  16  17
HETATM   17  C2  UNL     1      13.277  17.107  13.097  1.00  0.00     0.125 C 
HETATM   18  C1  UNL     1      12.815  17.211  11.878  1.00  0.00     0.037 C 
ENDBRANCH  16  17
ENDBRANCH  12  16
BRANCH  14  19
HETATM   19  O9  UNL     1      11.903  14.932  15.938  1.00  0.00    -0.390 OA
ATOM     20  H9  UNL     1      12.025  14.366  16.692  1.00  0.00     0.210 HD
ENDBRANCH  14  19
BRANCH  15  21
HETATM   21  O8  UNL     1      12.719  14.961  18.238  1.00  0.00    -0.390 OA
ATOM     22  H8  UNL     1      11.845  15.102  18.582  1.00  0.00     0.210 HD
ENDBRANCH  15  21
ENDBRANCH   8   9
ENDBRANCH   7   8
ENDBRANCH   1   7
BRANCH   6  23
HETATM   23  O7  UNL     1      17.954  17.982  20.453  1.00  0.00    -0.390 OA
ATOM     24  H7  UNL     1      17.309  17.860  21.138  1.00  0.00     0.210 HD
ENDBRANCH   6  23
BRANCH   3  25
HETATM   25  O4  UNL     1      19.785  13.864  17.614  1.00  0.00    -0.351 OA
BRANCH  25  26
HETATM   26  C11 UNL     1      19.299  13.717  16.365  1.00  0.00     0.156 C 
HETATM   27  C12 UNL     1      18.286  12.559  16.325  1.00  0.00     0.041 C 
HETATM   28  C13 UNL     1      19.452  11.667  15.861  1.00  0.00     0.021 C 
HETATM   29  C14 UNL     1      19.126  10.737  14.734  1.00  0.00     0.008 C 
HETATM   30  C17 UNL     1      20.076  12.947  15.351  1.00  0.00     0.218 C 
HETATM   31  C15 UNL     1      20.069  10.877  13.564  1.00  0.00     0.028 C 
HETATM   32  C16 UNL     1      20.290  12.291  13.128  1.00  0.00     0.233 C 
HETATM   33  N1  UNL     1      19.501  13.149  14.011  1.00  0.00    -0.068 N 
ATOM     34  H12 UNL     1      19.469  14.125  13.717  1.00  0.00     0.277 HD
ATOM     35  H11 UNL     1      18.497  12.979  13.962  1.00  0.00     0.277 HD
ENDBRANCH  25  26
ENDBRANCH   3  25
BRANCH   5  36
HETATM   36  O6  UNL     1      19.651  16.226  21.670  1.00  0.00    -0.390 OA
ATOM     37  H6  UNL     1      19.794  15.481  22.243  1.00  0.00     0.210 HD
ENDBRANCH   5  36
BRANCH   4  38
HETATM   38  O5  UNL     1      20.856  15.562  19.612  1.00  0.00    -0.388 OA
ATOM     39  H5  UNL     1      21.405  15.580  20.387  1.00  0.00     0.210 HD
ENDBRANCH   4  38
TORSDOF 12
ENDMDL
MODEL 3
REMARK VINA RESULT: -8.411268087      1.286      1.721
REMARK  12 active torsions:
REMARK  status: ('A' for Active; 'I' for Inactive)
REMARK    1  A    between atoms: C2_2  and  O1_3 
REMARK    2  A    between atoms: O1_3  and  C3_4 
REMARK    3  A    between atoms: C7_8  and  O2_9 
REMARK    4  A    between atoms: O2_9  and  C8_10 
REMARK    5  A    between atoms: C8_10  and  C9_11 
REMARK    6  A    between atoms: C10_13  and  O4_14 
REMARK    7  A    between atoms: O4_14  and  C11_15 
REMARK    8  A    between atoms: C18_25  and  O5_26 
REMARK    9  A    between atoms: C19_28  and  O6_29 
REMARK   10  A    between atoms: C20_31  and  O7_32 
REMARK   11  A    between atoms: C21_34  and  O8_35 
REMARK   12  A    between atoms: C22_37  and  O9_38 
ROOT
HETATM    1  C9  UNL     1      14.933  16.295  15.590  1.00  0.00     0.179 C 
HETATM    2  O3  UNL     1      15.464  16.282  16.888  1.00  0.00    -0.348 OA
HETATM    3  C10 UNL     1      14.873  15.467  17.792  1.00  0.00     0.292 C 
HETATM    4  C18 UNL     1      13.385  15.489  17.865  1.00  0.00     0.204 C 
HETATM    5  C19 UNL     1      12.801  15.489  16.468  1.00  0.00     0.183 C 
HETATM    6  C20 UNL     1      13.471  16.617  15.725  1.00  0.00     0.180 C 
ENDROOT
BRANCH   1   7
HETATM    7  C8  UNL     1      15.258  14.961  15.017  1.00  0.00     0.203 C 
BRANCH   7   8
HETATM    8  O2  UNL     1      16.118  14.874  13.967  1.00  0.00    -0.381 OA
BRANCH   8   9
HETATM    9  C7  UNL     1      17.283  14.142  14.213  1.00  0.00     0.153 C 
HETATM   10  C6  UNL     1      17.020  13.375  15.524  1.00  0.00     0.041 C 
HETATM   11  C4  UNL     1      17.937  12.225  15.718  1.00  0.00     0.016 C 
HETATM   12  C3  UNL     1      19.132  12.392  14.813  1.00  0.00     0.162 C 
HETATM   13  C5  UNL     1      18.466  12.209  17.155  1.00  0.00     0.012 C 
HETATM   14  C22 UNL     1      18.691  12.244  13.370  1.00  0.00     0.179 C 
HETATM   15  C21 UNL     1      17.546  13.207  13.082  1.00  0.00     0.178 C 
BRANCH  12  16
HETATM   16  O1  UNL     1      20.150  11.441  15.077  1.00  0.00    -0.356 OA
BRANCH  16  17
HETATM   17  C2  UNL     1      21.338  11.584  14.379  1.00  0.00     0.125 C 
HETATM   18  C1  UNL     1      21.979  10.603  13.797  1.00  0.00     0.037 C 
ENDBRANCH  16  17
ENDBRANCH  12  16
BRANCH  14  19
HETATM   19  O9  UNL     1      18.222  10.959  13.178  1.00  0.00    -0.390 OA
ATOM     20  H9  UNL     1      17.285  10.995  13.025  1.00  0.00     0.210 HD
ENDBRANCH  14  19
BRANCH  15  21
HETATM   21  O8  UNL     1      16.395  12.505  12.702  1.00  0.00    -0.390 OA
ATOM     22  H8  UNL     1      16.039  11.991  13.416  1.00  0.00     0.210 HD
ENDBRANCH  15  21
ENDBRANCH   8   9
ENDBRANCH   7   8
ENDBRANCH   1   7
BRANCH   6  23
HETATM   23  O7  UNL     1      12.806  17.034  14.624  1.00  0.00    -0.390 OA
ATOM     24  H7  UNL     1      12.344  17.863  14.666  1.00  0.00     0.210 HD
ENDBRANCH   6  23
BRANCH   3  25
HETATM   25  O4  UNL     1      15.484  15.671  19.021  1.00  0.00    -0.351 OA
BRANCH  25  26
HETATM   26  C11 UNL     1      16.567  16.474  19.034  1.00  0.00     0.156 C 
HETATM   27  C12 UNL     1      17.655  15.911  18.102  1.00  0.00     0.041 C 
HETATM   28  C13 UNL     1      18.264  15.249  19.351  1.00  0.00     0.021 C 
HETATM   29  C14 UNL     1      19.753  15.360  19.462  1.00  0.00     0.008 C 
HETATM   30  C17 UNL     1      17.574  16.348  20.128  1.00  0.00     0.218 C 
HETATM   31  C15 UNL     1      20.202  15.956  20.774  1.00  0.00     0.028 C 
HETATM   32  C16 UNL     1      19.478  17.211  21.150  1.00  0.00     0.233 C 
HETATM   33  N1  UNL     1      18.506  17.487  20.095  1.00  0.00    -0.068 N 
ATOM     34  H12 UNL     1      18.051  18.396  20.181  1.00  0.00     0.277 HD
ATOM     35  H11 UNL     1      18.925  17.652  19.180  1.00  0.00     0.277 HD
ENDBRANCH  25  26
ENDBRANCH   3  25
BRANCH   5  36
HETATM   36  O6  UNL     1      11.433  15.832  16.653  1.00  0.00    -0.390 OA
ATOM     37  H6  UNL     1      10.977  15.372  15.958  1.00  0.00     0.210 HD
ENDBRANCH   5  36
BRANCH   4  38
HETATM   38  O5  UNL     1      12.888  16.662  18.476  1.00  0.00    -0.388 OA
ATOM     39  H5  UNL     1      11.986  16.573  18.759  1.00  0.00     0.210 HD
ENDBRANCH   4  38
TORSDOF 12
ENDMDL
MODEL 4
REMARK VINA RESULT: -8.341468367      1.061      1.410
REMARK  12 active torsions:
REMARK  status: ('A' for Active; 'I' for Inactive)
REMARK    1  A    between atoms: C2_2  and  O1_3 
REMARK    2  A    between atoms: O1_3  and  C3_4 
REMARK    3  A    between atoms: C7_8  and  O2_9 
REMARK    4  A    between atoms: O2_9  and  C8_10 
REMARK    5  A    between atoms: C8_10  and  C9_11 
REMARK    6  A    between atoms: C10_13  and  O4_14 
REMARK    7  A    between atoms: O4_14  and  C11_15 
REMARK    8  A    between atoms: C18_25  and  O5_26 
REMARK    9  A    between atoms: C19_28  and  O6_29 
REMARK   10  A    between atoms: C20_31  and  O7_32 
REMARK   11  A    between atoms: C21_34  and  O8_35 
REMARK   12  A    between atoms: C22_37  and  O9_38 
ROOT
HETATM    1  C9  UNL     1      14.162  15.540  16.111  1.00  0.00     0.179 C 
HETATM    2  O3  UNL     1      14.761  16.330  17.104  1.00  0.00    -0.348 OA
HETATM    3  C10 UNL     1      15.005  15.744  18.299  1.00  0.00     0.292 C 
HETATM    4  C18 UNL     1      13.910  14.935  18.903  1.00  0.00     0.204 C 
HETATM    5  C19 UNL     1      13.265  14.068  17.842  1.00  0.00     0.183 C 
HETATM    6  C20 UNL     1      12.896  14.986  16.706  1.00  0.00     0.180 C 
ENDROOT
BRANCH   1   7
HETATM    7  C8  UNL     1      15.193  14.539  15.726  1.00  0.00     0.203 C 
BRANCH   7   8
HETATM    8  O2  UNL     1      16.019  14.800  14.677  1.00  0.00    -0.381 OA
BRANCH   8   9
HETATM    9  C7  UNL     1      17.238  14.116  14.697  1.00  0.00     0.153 C 
HETATM   10  C6  UNL     1      17.119  13.093  15.844  1.00  0.00     0.041 C 
HETATM   11  C4  UNL     1      18.110  11.993  15.747  1.00  0.00     0.016 C 
HETATM   12  C3  UNL     1      19.220  12.414  14.817  1.00  0.00     0.162 C 
HETATM   13  C5  UNL     1      18.748  11.736  17.114  1.00  0.00     0.012 C 
HETATM   14  C22 UNL     1      18.678  12.518  13.405  1.00  0.00     0.179 C 
HETATM   15  C21 UNL     1      17.464  13.438  13.389  1.00  0.00     0.178 C 
BRANCH  12  16
HETATM   16  O1  UNL     1      20.306  11.502  14.821  1.00  0.00    -0.356 OA
BRANCH  16  17
HETATM   17  C2  UNL     1      21.299  11.705  13.876  1.00  0.00     0.125 C 
HETATM   18  C1  UNL     1      22.335  10.924  13.709  1.00  0.00     0.037 C 
ENDBRANCH  16  17
ENDBRANCH  12  16
BRANCH  14  19
HETATM   19  O9  UNL     1      18.267  11.265  12.993  1.00  0.00    -0.390 OA
ATOM     20  H9  UNL     1      17.826  10.835  13.717  1.00  0.00     0.210 HD
ENDBRANCH  14  19
BRANCH  15  21
HETATM   21  O8  UNL     1      16.326  12.746  12.952  1.00  0.00    -0.390 OA
ATOM     22  H8  UNL     1      16.551  11.996  12.413  1.00  0.00     0.210 HD
ENDBRANCH  15  21
ENDBRANCH   8   9
ENDBRANCH   7   8
ENDBRANCH   1   7
BRANCH   6  23
HETATM   23  O7  UNL     1      11.962  14.488  15.865  1.00  0.00    -0.390 OA
ATOM     24  H7  UNL     1      11.665  13.596  16.002  1.00  0.00     0.210 HD
ENDBRANCH   6  23
BRANCH   3  25
HETATM   25  O4  UNL     1      15.509  16.712  19.157  1.00  0.00    -0.351 OA
BRANCH  25  26
HETATM   26  C11 UNL     1      16.806  17.046  19.000  1.00  0.00     0.156 C 
HETATM   27  C12 UNL     1      17.408  16.283  17.807  1.00  0.00     0.041 C 
HETATM   28  C13 UNL     1      17.910  15.249  18.831  1.00  0.00     0.021 C 
HETATM   29  C14 UNL     1      19.318  14.784  18.621  1.00  0.00     0.008 C 
HETATM   30  C17 UNL     1      17.851  16.381  19.831  1.00  0.00     0.218 C 
HETATM   31  C15 UNL     1      20.181  14.949  19.848  1.00  0.00     0.028 C 
HETATM   32  C16 UNL     1      20.085  16.303  20.480  1.00  0.00     0.233 C 
HETATM   33  N1  UNL     1      19.136  17.087  19.691  1.00  0.00    -0.068 N 
ATOM     34  H12 UNL     1      19.097  18.072  19.952  1.00  0.00     0.277 HD
ATOM     35  H11 UNL     1      19.424  17.233  18.724  1.00  0.00     0.277 HD
ENDBRANCH  25  26
ENDBRANCH   3  25
BRANCH   5  36
HETATM   36  O6  UNL     1      12.064  13.603  18.444  1.00  0.00    -0.390 OA
ATOM     37  H6  UNL     1      11.617  14.393  18.725  1.00  0.00     0.210 HD
ENDBRANCH   5  36
BRANCH   4  38
HETATM   38  O5  UNL     1      12.864  15.734  19.417  1.00  0.00    -0.388 OA
ATOM     39  H5  UNL     1      12.191  15.222  19.847  1.00  0.00     0.210 HD
ENDBRANCH   4  38
TORSDOF 12
ENDMDL
MODEL 5
REMARK VINA RESULT: -8.317063339      1.753      6.252
REMARK  12 active torsions:
REMARK  status: ('A' for Active; 'I' for Inactive)
REMARK    1  A    between atoms: C2_2  and  O1_3 
REMARK    2  A    between atoms: O1_3  and  C3_4 
REMARK    3  A    between atoms: C7_8  and  O2_9 
REMARK    4  A    between atoms: O2_9  and  C8_10 
REMARK    5  A    between atoms: C8_10  and  C9_11 
REMARK    6  A    between atoms: C10_13  and  O4_14 
REMARK    7  A    between atoms: O4_14  and  C11_15 
REMARK    8  A    between atoms: C18_25  and  O5_26 
REMARK    9  A    between atoms: C19_28  and  O6_29 
REMARK   10  A    between atoms: C20_31  and  O7_32 
REMARK   11  A    between atoms: C21_34  and  O8_35 
REMARK   12  A    between atoms: C22_37  and  O9_38 
ROOT
HETATM    1  C9  UNL     1      17.502  12.493  14.858  1.00  0.00     0.179 C 
HETATM    2  O3  UNL     1      18.006  12.300  16.153  1.00  0.00    -0.348 OA
HETATM    3  C10 UNL     1      19.227  12.816  16.426  1.00  0.00     0.292 C 
HETATM    4  C18 UNL     1      20.310  12.580  15.431  1.00  0.00     0.204 C 
HETATM    5  C19 UNL     1      19.780  12.801  14.031  1.00  0.00     0.183 C 
HETATM    6  C20 UNL     1      18.537  11.958  13.907  1.00  0.00     0.180 C 
ENDROOT
BRANCH   1   7
HETATM    7  C8  UNL     1      17.217  13.950  14.759  1.00  0.00     0.203 C 
BRANCH   7   8
HETATM    8  O2  UNL     1      15.980  14.365  14.376  1.00  0.00    -0.381 OA
BRANCH   8   9
HETATM    9  C7  UNL     1      15.154  14.806  15.414  1.00  0.00     0.153 C 
HETATM   10  C6  UNL     1      16.083  15.548  16.394  1.00  0.00     0.041 C 
HETATM   11  C4  UNL     1      15.352  16.453  17.316  1.00  0.00     0.016 C 
HETATM   12  C3  UNL     1      13.895  16.068  17.328  1.00  0.00     0.162 C 
HETATM   13  C5  UNL     1      15.870  16.280  18.746  1.00  0.00     0.012 C 
HETATM   14  C22 UNL     1      13.283  16.381  15.976  1.00  0.00     0.179 C 
HETATM   15  C21 UNL     1      14.099  15.713  14.877  1.00  0.00     0.178 C 
BRANCH  12  16
HETATM   16  O1  UNL     1      13.161  16.753  18.328  1.00  0.00    -0.356 OA
BRANCH  16  17
HETATM   17  C2  UNL     1      12.304  15.993  19.110  1.00  0.00     0.125 C 
HETATM   18  C1  UNL     1      12.459  15.784  20.391  1.00  0.00     0.037 C 
ENDBRANCH  16  17
ENDBRANCH  12  16
BRANCH  14  19
HETATM   19  O9  UNL     1      13.333  17.746  15.771  1.00  0.00    -0.390 OA
ATOM     20  H9  UNL     1      12.836  18.176  16.458  1.00  0.00     0.210 HD
ENDBRANCH  14  19
BRANCH  15  21
HETATM   21  O8  UNL     1      14.627  16.672  14.002  1.00  0.00    -0.390 OA
ATOM     22  H8  UNL     1      14.746  17.513  14.426  1.00  0.00     0.210 HD
ENDBRANCH  15  21
ENDBRANCH   8   9
ENDBRANCH   7   8
ENDBRANCH   1   7
BRANCH   6  23
HETATM   23  O7  UNL     1      18.160  11.700  12.634  1.00  0.00    -0.390 OA
ATOM     24  H7  UNL     1      17.466  11.067  12.492  1.00  0.00     0.210 HD
ENDBRANCH   6  23
BRANCH   3  25
HETATM   25  O4  UNL     1      19.575  12.438  17.715  1.00  0.00    -0.351 OA
BRANCH  25  26
HETATM   26  C11 UNL     1      20.302  13.320  18.431  1.00  0.00     0.156 C 
HETATM   27  C12 UNL     1      19.999  13.159  19.932  1.00  0.00     0.041 C 
HETATM   28  C13 UNL     1      18.981  14.302  19.761  1.00  0.00     0.021 C 
HETATM   29  C14 UNL     1      19.004  15.335  20.845  1.00  0.00     0.008 C 
HETATM   30  C17 UNL     1      19.828  14.726  18.583  1.00  0.00     0.218 C 
HETATM   31  C15 UNL     1      19.176  16.739  20.316  1.00  0.00     0.028 C 
HETATM   32  C16 UNL     1      20.291  16.882  19.327  1.00  0.00     0.233 C 
HETATM   33  N1  UNL     1      20.896  15.562  19.156  1.00  0.00    -0.068 N 
ATOM     34  H12 UNL     1      21.755  15.570  18.606  1.00  0.00     0.277 HD
ATOM     35  H11 UNL     1      21.305  15.182  20.009  1.00  0.00     0.277 HD
ENDBRANCH  25  26
ENDBRANCH   3  25
BRANCH   5  36
HETATM   36  O6  UNL     1      20.777  12.247  13.181  1.00  0.00    -0.390 OA
ATOM     37  H6  UNL     1      20.660  11.307  13.258  1.00  0.00     0.210 HD
ENDBRANCH   5  36
BRANCH   4  38
HETATM   38  O5  UNL     1      20.781  11.249  15.446  1.00  0.00    -0.388 OA
ATOM     39  H5  UNL     1      21.386  11.083  16.160  1.00  0.00     0.210 HD
ENDBRANCH   4  38
TORSDOF 12
ENDMDL
