MODEL 1
REMARK VINA RESULT: -6.158510091      0.000      0.000
REMARK  5 active torsions:
REMARK  status: ('A' for Active; 'I' for Inactive)
REMARK       I    between atoms: N1_3  and  C3_5 
REMARK       I    between atoms: C3_5  and  N4_19 
REMARK    1  A    between atoms: N2_6  and  C4_8 
REMARK    2  A    between atoms: C4_8  and  N3_10 
REMARK    3  A    between atoms: N3_10  and  C5_12 
REMARK    4  A    between atoms: C5_12  and  C6_13 
REMARK    5  A    between atoms: N4_19  and  C12_21 
ROOT
HETATM    1  C1  UNL     1      24.729  20.345  29.592  1.00  0.00     0.037 C 
HETATM    2  C2  UNL     1      24.686  19.161  29.877  1.00  0.00     0.015 C 
HETATM    3  N1  UNL     1      24.657  17.802  30.190  1.00  0.00    -0.149 N 
ATOM      4  H1  UNL     1      25.279  17.152  29.710  1.00  0.00     0.195 HD
HETATM    5  C3  UNL     1      23.757  17.327  31.181  1.00  0.00     0.688 C 
HETATM    6  N2  UNL     1      23.172  16.202  31.040  1.00  0.00    -0.166 N 
ATOM      7  H2  UNL     1      23.388  15.679  30.191  1.00  0.00     0.186 HD
HETATM    8  N4  UNL     1      23.518  18.114  32.323  1.00  0.00    -0.221 N 
ATOM      9  H4  UNL     1      22.679  18.694  32.324  1.00  0.00     0.178 HD
ENDROOT
BRANCH   6  10
HETATM   10  C4  UNL     1      22.258  15.602  31.934  1.00  0.00     0.186 C 
HETATM   11  S1  UNL     1      22.938  14.615  33.071  1.00  0.00    -0.040 SA
BRANCH  10  12
HETATM   12  N3  UNL     1      20.859  15.826  31.876  1.00  0.00    -0.366 N 
ATOM     13  H3  UNL     1      20.440  16.033  30.969  1.00  0.00     0.161 HD
BRANCH  12  14
HETATM   14  C5  UNL     1      20.010  15.780  33.012  1.00  0.00     0.126 C 
BRANCH  14  15
HETATM   15  C6  UNL     1      19.322  17.045  33.364  1.00  0.00     0.003 C 
HETATM   16  C7  UNL     1      20.262  18.171  33.721  1.00  0.00     0.006 C 
HETATM   17  C8  UNL     1      19.399  19.180  34.490  1.00  0.00     0.000 C 
HETATM   18  C9  UNL     1      18.455  19.790  33.485  1.00  0.00     0.000 C 
HETATM   19  C10 UNL     1      17.653  18.735  32.796  1.00  0.00     0.000 C 
HETATM   20  C11 UNL     1      18.460  17.593  32.240  1.00  0.00     0.006 C 
ENDBRANCH  14  15
ENDBRANCH  12  14
ENDBRANCH  10  12
ENDBRANCH   6  10
BRANCH   8  21
HETATM   21  C12 UNL     1      24.362  18.171  33.497  1.00  0.00     0.099 A 
HETATM   22  C13 UNL     1      24.287  19.247  34.489  1.00  0.00     0.028 A 
HETATM   23  C14 UNL     1      23.638  17.922  34.836  1.00  0.00     0.028 A 
ENDBRANCH   8  21
TORSDOF 5
ENDMDL
MODEL 2
REMARK VINA RESULT: -6.060569362      0.639      1.269
REMARK  5 active torsions:
REMARK  status: ('A' for Active; 'I' for Inactive)
REMARK       I    between atoms: N1_3  and  C3_5 
REMARK       I    between atoms: C3_5  and  N4_19 
REMARK    1  A    between atoms: N2_6  and  C4_8 
REMARK    2  A    between atoms: C4_8  and  N3_10 
REMARK    3  A    between atoms: N3_10  and  C5_12 
REMARK    4  A    between atoms: C5_12  and  C6_13 
REMARK    5  A    between atoms: N4_19  and  C12_21 
ROOT
HETATM    1  C1  UNL     1      24.676  20.236  29.626  1.00  0.00     0.037 C 
HETATM    2  C2  UNL     1      24.839  19.093  30.012  1.00  0.00     0.015 C 
HETATM    3  N1  UNL     1      25.049  17.782  30.443  1.00  0.00    -0.149 N 
ATOM      4  H1  UNL     1      25.815  17.232  30.056  1.00  0.00     0.195 HD
HETATM    5  C3  UNL     1      24.189  17.218  31.422  1.00  0.00     0.688 C 
HETATM    6  N2  UNL     1      23.841  15.993  31.352  1.00  0.00    -0.166 N 
ATOM      7  H2  UNL     1      24.211  15.459  30.566  1.00  0.00     0.186 HD
HETATM    8  N4  UNL     1      23.726  18.029  32.476  1.00  0.00    -0.221 N 
ATOM      9  H4  UNL     1      22.793  18.431  32.381  1.00  0.00     0.178 HD
ENDROOT
BRANCH   6  10
HETATM   10  C4  UNL     1      22.998  15.296  32.245  1.00  0.00     0.186 C 
HETATM   11  S1  UNL     1      23.777  14.293  33.302  1.00  0.00    -0.040 SA
BRANCH  10  12
HETATM   12  N3  UNL     1      21.588  15.442  32.251  1.00  0.00    -0.366 N 
ATOM     13  H3  UNL     1      21.076  15.219  31.397  1.00  0.00     0.161 HD
BRANCH  12  14
HETATM   14  C5  UNL     1      20.849  15.881  33.380  1.00  0.00     0.126 C 
BRANCH  14  15
HETATM   15  C6  UNL     1      20.057  17.121  33.199  1.00  0.00     0.003 C 
HETATM   16  C7  UNL     1      18.565  16.910  33.293  1.00  0.00     0.006 C 
HETATM   17  C8  UNL     1      17.947  18.144  32.622  1.00  0.00     0.000 C 
HETATM   18  C9  UNL     1      18.214  19.309  33.542  1.00  0.00     0.000 C 
HETATM   19  C10 UNL     1      19.676  19.455  33.808  1.00  0.00     0.000 C 
HETATM   20  C11 UNL     1      20.369  18.189  34.233  1.00  0.00     0.006 C 
ENDBRANCH  14  15
ENDBRANCH  12  14
ENDBRANCH  10  12
ENDBRANCH   6  10
BRANCH   8  21
HETATM   21  C12 UNL     1      24.459  18.340  33.684  1.00  0.00     0.099 A 
HETATM   22  C13 UNL     1      23.952  19.240  34.722  1.00  0.00     0.028 A 
HETATM   23  C14 UNL     1      23.867  17.748  34.979  1.00  0.00     0.028 A 
ENDBRANCH   8  21
TORSDOF 5
ENDMDL
MODEL 3
REMARK VINA RESULT: -5.990919980      2.039      3.407
REMARK  5 active torsions:
REMARK  status: ('A' for Active; 'I' for Inactive)
REMARK       I    between atoms: N1_3  and  C3_5 
REMARK       I    between atoms: C3_5  and  N4_19 
REMARK    1  A    between atoms: N2_6  and  C4_8 
REMARK    2  A    between atoms: C4_8  and  N3_10 
REMARK    3  A    between atoms: N3_10  and  C5_12 
REMARK    4  A    between atoms: C5_12  and  C6_13 
REMARK    5  A    between atoms: N4_19  and  C12_21 
ROOT
HETATM    1  C1  UNL     1      27.583  18.046  29.284  1.00  0.00     0.037 C 
HETATM    2  C2  UNL     1      26.828  18.703  29.978  1.00  0.00     0.015 C 
HETATM    3  N1  UNL     1      25.963  19.474  30.755  1.00  0.00    -0.149 N 
ATOM      4  H1  UNL     1      25.799  20.453  30.522  1.00  0.00     0.195 HD
HETATM    5  C3  UNL     1      25.311  18.889  31.873  1.00  0.00     0.688 C 
HETATM    6  N2  UNL     1      25.135  19.559  32.945  1.00  0.00    -0.166 N 
ATOM      7  H2  UNL     1      25.482  20.518  32.945  1.00  0.00     0.186 HD
HETATM    8  N4  UNL     1      24.861  17.558  31.785  1.00  0.00    -0.221 N 
ATOM      9  H4  UNL     1      25.459  16.835  32.185  1.00  0.00     0.178 HD
ENDROOT
BRANCH   6  10
HETATM   10  C4  UNL     1      24.508  19.115  34.130  1.00  0.00     0.186 C 
HETATM   11  S1  UNL     1      25.529  18.480  35.264  1.00  0.00    -0.040 SA
BRANCH  10  12
HETATM   12  N3  UNL     1      23.111  19.208  34.348  1.00  0.00    -0.366 N 
ATOM     13  H3  UNL     1      22.687  20.135  34.377  1.00  0.00     0.161 HD
BRANCH  12  14
HETATM   14  C5  UNL     1      22.269  18.080  34.529  1.00  0.00     0.126 C 
BRANCH  14  15
HETATM   15  C6  UNL     1      21.052  18.033  33.684  1.00  0.00     0.003 C 
HETATM   16  C7  UNL     1      20.523  16.637  33.455  1.00  0.00     0.006 C 
HETATM   17  C8  UNL     1      19.614  16.754  32.225  1.00  0.00     0.000 C 
HETATM   18  C9  UNL     1      18.403  17.541  32.660  1.00  0.00     0.000 C 
HETATM   19  C10 UNL     1      18.802  18.865  33.224  1.00  0.00     0.000 C 
HETATM   20  C11 UNL     1      19.882  18.805  34.270  1.00  0.00     0.006 C 
ENDBRANCH  14  15
ENDBRANCH  12  14
ENDBRANCH  10  12
ENDBRANCH   6  10
BRANCH   8  21
HETATM   21  C12 UNL     1      23.622  17.128  31.175  1.00  0.00     0.099 A 
HETATM   22  C13 UNL     1      23.566  16.285  29.979  1.00  0.00     0.028 A 
HETATM   23  C14 UNL     1      23.310  15.624  31.319  1.00  0.00     0.028 A 
ENDBRANCH   8  21
TORSDOF 5
ENDMDL
MODEL 4
REMARK VINA RESULT: -5.809588788      2.095      6.310
REMARK  5 active torsions:
REMARK  status: ('A' for Active; 'I' for Inactive)
REMARK       I    between atoms: N1_3  and  C3_5 
REMARK       I    between atoms: C3_5  and  N4_19 
REMARK    1  A    between atoms: N2_6  and  C4_8 
REMARK    2  A    between atoms: C4_8  and  N3_10 
REMARK    3  A    between atoms: N3_10  and  C5_12 
REMARK    4  A    between atoms: C5_12  and  C6_13 
REMARK    5  A    between atoms: N4_19  and  C12_21 
ROOT
HETATM    1  C1  UNL     1      18.109  19.651  33.097  1.00  0.00     0.037 C 
HETATM    2  C2  UNL     1      19.000  19.226  33.811  1.00  0.00     0.015 C 
HETATM    3  N1  UNL     1      20.003  18.735  34.646  1.00  0.00    -0.149 N 
ATOM      4  H1  UNL     1      19.803  18.539  35.627  1.00  0.00     0.195 HD
HETATM    5  C3  UNL     1      21.304  18.508  34.125  1.00  0.00     0.688 C 
HETATM    6  N2  UNL     1      22.338  18.760  34.830  1.00  0.00    -0.166 N 
ATOM      7  H2  UNL     1      22.172  19.124  35.768  1.00  0.00     0.186 HD
HETATM    8  N4  UNL     1      21.441  18.002  32.819  1.00  0.00    -0.221 N 
ATOM      9  H4  UNL     1      21.629  18.673  32.075  1.00  0.00     0.178 HD
ENDROOT
BRANCH   6  10
HETATM   10  C4  UNL     1      23.687  18.587  34.450  1.00  0.00     0.186 C 
HETATM   11  S1  UNL     1      24.319  17.096  34.776  1.00  0.00    -0.040 SA
BRANCH  10  12
HETATM   12  N3  UNL     1      24.452  19.606  33.829  1.00  0.00    -0.366 N 
ATOM     13  H3  UNL     1      24.069  20.551  33.804  1.00  0.00     0.161 HD
BRANCH  12  14
HETATM   14  C5  UNL     1      25.724  19.383  33.240  1.00  0.00     0.126 C 
BRANCH  14  15
HETATM   15  C6  UNL     1      25.728  19.106  31.784  1.00  0.00     0.003 C 
HETATM   16  C7  UNL     1      26.449  20.152  30.967  1.00  0.00     0.006 C 
HETATM   17  C8  UNL     1      25.940  19.956  29.533  1.00  0.00     0.000 C 
HETATM   18  C9  UNL     1      26.516  18.648  29.050  1.00  0.00     0.000 C 
HETATM   19  C10 UNL     1      26.141  17.529  29.965  1.00  0.00     0.000 C 
HETATM   20  C11 UNL     1      26.402  17.794  31.423  1.00  0.00     0.006 C 
ENDBRANCH  14  15
ENDBRANCH  12  14
ENDBRANCH  10  12
ENDBRANCH   6  10
BRANCH   8  21
HETATM   21  C12 UNL     1      21.337  16.609  32.442  1.00  0.00     0.099 A 
HETATM   22  C13 UNL     1      20.623  15.612  33.241  1.00  0.00     0.028 A 
HETATM   23  C14 UNL     1      19.930  16.152  32.006  1.00  0.00     0.028 A 
ENDBRANCH   8  21
TORSDOF 5
ENDMDL
MODEL 5
REMARK VINA RESULT: -5.808886969      2.233      3.909
REMARK  5 active torsions:
REMARK  status: ('A' for Active; 'I' for Inactive)
REMARK       I    between atoms: N1_3  and  C3_5 
REMARK       I    between atoms: C3_5  and  N4_19 
REMARK    1  A    between atoms: N2_6  and  C4_8 
REMARK    2  A    between atoms: C4_8  and  N3_10 
REMARK    3  A    between atoms: N3_10  and  C5_12 
REMARK    4  A    between atoms: C5_12  and  C6_13 
REMARK    5  A    between atoms: N4_19  and  C12_21 
ROOT
HETATM    1  C1  UNL     1      24.276  15.080  29.995  1.00  0.00     0.037 C 
HETATM    2  C2  UNL     1      24.800  15.621  30.953  1.00  0.00     0.015 C 
HETATM    3  N1  UNL     1      25.419  16.222  32.048  1.00  0.00    -0.149 N 
ATOM      4  H1  UNL     1      26.196  15.757  32.518  1.00  0.00     0.195 HD
HETATM    5  C3  UNL     1      24.963  17.486  32.507  1.00  0.00     0.688 C 
HETATM    6  N2  UNL     1      24.926  17.748  33.755  1.00  0.00    -0.166 N 
ATOM      7  H2  UNL     1      25.237  17.009  34.386  1.00  0.00     0.186 HD
HETATM    8  N4  UNL     1      24.553  18.450  31.566  1.00  0.00    -0.221 N 
ATOM      9  H4  UNL     1      23.552  18.533  31.389  1.00  0.00     0.178 HD
ENDROOT
BRANCH   6  10
HETATM   10  C4  UNL     1      24.499  18.952  34.358  1.00  0.00     0.186 C 
HETATM   11  S1  UNL     1      25.713  19.994  34.772  1.00  0.00    -0.040 SA
BRANCH  10  12
HETATM   12  N3  UNL     1      23.135  19.260  34.591  1.00  0.00    -0.366 N 
ATOM     13  H3  UNL     1      22.845  20.237  34.541  1.00  0.00     0.161 HD
BRANCH  12  14
HETATM   14  C5  UNL     1      22.151  18.283  34.891  1.00  0.00     0.126 C 
BRANCH  14  15
HETATM   15  C6  UNL     1      21.353  17.787  33.744  1.00  0.00     0.003 C 
HETATM   16  C7  UNL     1      21.634  16.348  33.384  1.00  0.00     0.006 C 
HETATM   17  C8  UNL     1      21.110  16.188  31.950  1.00  0.00     0.000 C 
HETATM   18  C9  UNL     1      19.606  16.262  32.033  1.00  0.00     0.000 C 
HETATM   19  C10 UNL     1      19.169  17.535  32.681  1.00  0.00     0.000 C 
HETATM   20  C11 UNL     1      19.854  17.847  33.983  1.00  0.00     0.006 C 
ENDBRANCH  14  15
ENDBRANCH  12  14
ENDBRANCH  10  12
ENDBRANCH   6  10
BRANCH   8  21
HETATM   21  C12 UNL     1      25.431  19.332  30.829  1.00  0.00     0.099 A 
HETATM   22  C13 UNL     1      25.986  18.998  29.516  1.00  0.00     0.028 A 
HETATM   23  C14 UNL     1      24.814  19.957  29.561  1.00  0.00     0.028 A 
ENDBRANCH   8  21
TORSDOF 5
ENDMDL
