MODEL 1
REMARK VINA RESULT: -6.815043068      0.000      0.000
REMARK  3 active torsions:
REMARK  status: ('A' for Active; 'I' for Inactive)
REMARK       I    between atoms: N1_2  and  C3_4 
REMARK       I    between atoms: N3_6  and  C4_8 
REMARK       I    between atoms: C4_8  and  N5_12 
REMARK    1  A    between atoms: N5_12  and  C5_14 
REMARK    2  A    between atoms: C5_14  and  C6_15 
REMARK    3  A    between atoms: C6_15  and  C7_16 
ROOT
HETATM    1  C1  UNL     1      18.354  18.070  32.509  1.00  0.00     0.151 C 
HETATM    2  N1  UNL     1      19.537  17.658  33.232  1.00  0.00    -0.364 N 
HETATM    3  C2  UNL     1      19.908  18.389  34.429  1.00  0.00     0.151 C 
HETATM    4  C3  UNL     1      20.339  16.586  32.826  1.00  0.00     0.204 C 
HETATM    5  N2  UNL     1      19.879  15.260  33.053  1.00  0.00    -0.063 NA
HETATM    6  N3  UNL     1      21.496  16.727  32.243  1.00  0.00    -0.164 N 
ATOM      7  H3  UNL     1      21.846  17.669  32.069  1.00  0.00     0.187 HD
HETATM    8  C4  UNL     1      22.278  15.629  31.845  1.00  0.00     0.674 C 
HETATM    9  N4  UNL     1      22.608  14.746  32.701  1.00  0.00    -0.235 N 
ATOM     10  H41 UNL     1      23.176  13.949  32.413  1.00  0.00     0.174 HD
ATOM     11  H42 UNL     1      22.308  14.831  33.673  1.00  0.00     0.174 HD
HETATM   12  N5  UNL     1      22.690  15.513  30.509  1.00  0.00    -0.226 N 
ATOM     13  H5  UNL     1      22.044  15.083  29.846  1.00  0.00     0.177 HD
ENDROOT
BRANCH  12  14
HETATM   14  C5  UNL     1      23.974  15.962  30.009  1.00  0.00     0.139 C 
BRANCH  14  15
HETATM   15  C6  UNL     1      24.018  17.413  29.723  1.00  0.00     0.029 C 
BRANCH  15  16
HETATM   16  C7  UNL     1      25.148  18.105  30.405  1.00  0.00    -0.038 C 
HETATM   17  C8  UNL     1      24.878  18.319  31.874  1.00  0.00     0.014 C 
HETATM   18  C9  UNL     1      26.064  18.955  32.566  1.00  0.00    -0.013 C 
HETATM   19  C10 UNL     1      27.260  18.078  32.386  1.00  0.00     0.009 C 
HETATM   20  C14 UNL     1      26.256  20.335  31.985  1.00  0.00     0.009 C 
HETATM   21  C11 UNL     1      27.593  17.965  30.919  1.00  0.00    -0.013 C 
HETATM   22  C12 UNL     1      27.803  19.356  30.381  1.00  0.00     0.009 C 
HETATM   23  C16 UNL     1      26.425  17.352  30.170  1.00  0.00     0.014 C 
HETATM   24  C13 UNL     1      26.522  20.146  30.513  1.00  0.00    -0.013 C 
HETATM   25  C15 UNL     1      25.369  19.501  29.820  1.00  0.00     0.014 C 
ENDBRANCH  15  16
ENDBRANCH  14  15
ENDBRANCH  12  14
TORSDOF 3
ENDMDL
MODEL 2
REMARK VINA RESULT: -6.814431447      0.083      1.584
REMARK  3 active torsions:
REMARK  status: ('A' for Active; 'I' for Inactive)
REMARK       I    between atoms: N1_2  and  C3_4 
REMARK       I    between atoms: N3_6  and  C4_8 
REMARK       I    between atoms: C4_8  and  N5_12 
REMARK    1  A    between atoms: N5_12  and  C5_14 
REMARK    2  A    between atoms: C5_14  and  C6_15 
REMARK    3  A    between atoms: C6_15  and  C7_16 
ROOT
HETATM    1  C1  UNL     1      18.341  18.075  32.536  1.00  0.00     0.151 C 
HETATM    2  N1  UNL     1      19.521  17.651  33.259  1.00  0.00    -0.364 N 
HETATM    3  C2  UNL     1      19.893  18.372  34.462  1.00  0.00     0.151 C 
HETATM    4  C3  UNL     1      20.318  16.578  32.848  1.00  0.00     0.204 C 
HETATM    5  N2  UNL     1      19.850  15.253  33.066  1.00  0.00    -0.063 NA
HETATM    6  N3  UNL     1      21.476  16.717  32.268  1.00  0.00    -0.164 N 
ATOM      7  H3  UNL     1      21.832  17.658  32.101  1.00  0.00     0.187 HD
HETATM    8  C4  UNL     1      22.253  15.617  31.865  1.00  0.00     0.674 C 
HETATM    9  N4  UNL     1      22.577  14.726  32.716  1.00  0.00    -0.235 N 
ATOM     10  H41 UNL     1      23.141  13.928  32.424  1.00  0.00     0.174 HD
ATOM     11  H42 UNL     1      22.275  14.807  33.688  1.00  0.00     0.174 HD
HETATM   12  N5  UNL     1      22.668  15.507  30.529  1.00  0.00    -0.226 N 
ATOM     13  H5  UNL     1      22.021  15.085  29.861  1.00  0.00     0.177 HD
ENDROOT
BRANCH  12  14
HETATM   14  C5  UNL     1      23.955  15.953  30.034  1.00  0.00     0.139 C 
BRANCH  14  15
HETATM   15  C6  UNL     1      24.005  17.404  29.750  1.00  0.00     0.029 C 
BRANCH  15  16
HETATM   16  C7  UNL     1      25.138  18.091  30.431  1.00  0.00    -0.038 C 
HETATM   17  C8  UNL     1      26.407  17.275  30.386  1.00  0.00     0.014 C 
HETATM   18  C9  UNL     1      27.563  18.019  31.015  1.00  0.00    -0.013 C 
HETATM   19  C10 UNL     1      27.759  19.314  30.296  1.00  0.00     0.009 C 
HETATM   20  C14 UNL     1      27.255  18.205  32.482  1.00  0.00     0.009 C 
HETATM   21  C11 UNL     1      26.528  20.173  30.446  1.00  0.00    -0.013 C 
HETATM   22  C12 UNL     1      26.267  20.357  31.917  1.00  0.00     0.009 C 
HETATM   23  C16 UNL     1      25.328  19.462  29.849  1.00  0.00     0.014 C 
HETATM   24  C13 UNL     1      25.985  19.014  32.552  1.00  0.00    -0.013 C 
HETATM   25  C15 UNL     1      24.838  18.303  31.916  1.00  0.00     0.014 C 
ENDBRANCH  15  16
ENDBRANCH  14  15
ENDBRANCH  12  14
TORSDOF 3
ENDMDL
MODEL 3
REMARK VINA RESULT: -6.792976345      0.127      1.643
REMARK  3 active torsions:
REMARK  status: ('A' for Active; 'I' for Inactive)
REMARK       I    between atoms: N1_2  and  C3_4 
REMARK       I    between atoms: N3_6  and  C4_8 
REMARK       I    between atoms: C4_8  and  N5_12 
REMARK    1  A    between atoms: N5_12  and  C5_14 
REMARK    2  A    between atoms: C5_14  and  C6_15 
REMARK    3  A    between atoms: C6_15  and  C7_16 
ROOT
HETATM    1  C1  UNL     1      18.350  18.058  32.515  1.00  0.00     0.151 C 
HETATM    2  N1  UNL     1      19.536  17.639  33.230  1.00  0.00    -0.364 N 
HETATM    3  C2  UNL     1      19.896  18.343  34.446  1.00  0.00     0.151 C 
HETATM    4  C3  UNL     1      20.350  16.587  32.797  1.00  0.00     0.204 C 
HETATM    5  N2  UNL     1      19.904  15.251  32.989  1.00  0.00    -0.063 NA
HETATM    6  N3  UNL     1      21.506  16.756  32.221  1.00  0.00    -0.164 N 
ATOM      7  H3  UNL     1      21.847  17.706  32.073  1.00  0.00     0.187 HD
HETATM    8  C4  UNL     1      22.301  15.678  31.797  1.00  0.00     0.674 C 
HETATM    9  N4  UNL     1      22.639  14.775  32.631  1.00  0.00    -0.235 N 
ATOM     10  H41 UNL     1      23.216  13.992  32.323  1.00  0.00     0.174 HD
ATOM     11  H42 UNL     1      22.335  14.832  33.603  1.00  0.00     0.174 HD
HETATM   12  N5  UNL     1      22.718  15.600  30.459  1.00  0.00    -0.226 N 
ATOM     13  H5  UNL     1      22.078  15.182  29.783  1.00  0.00     0.177 HD
ENDROOT
BRANCH  12  14
HETATM   14  C5  UNL     1      23.998  16.076  29.974  1.00  0.00     0.139 C 
BRANCH  14  15
HETATM   15  C6  UNL     1      24.040  17.540  29.765  1.00  0.00     0.029 C 
BRANCH  15  16
HETATM   16  C7  UNL     1      25.194  18.192  30.444  1.00  0.00    -0.038 C 
HETATM   17  C8  UNL     1      25.573  19.499  29.790  1.00  0.00     0.014 C 
HETATM   18  C9  UNL     1      26.697  20.182  30.538  1.00  0.00    -0.013 C 
HETATM   19  C10 UNL     1      26.270  20.420  31.950  1.00  0.00     0.009 C 
HETATM   20  C14 UNL     1      27.924  19.309  30.435  1.00  0.00     0.009 C 
HETATM   21  C11 UNL     1      26.006  19.100  32.631  1.00  0.00    -0.013 C 
HETATM   22  C12 UNL     1      27.256  18.267  32.532  1.00  0.00     0.009 C 
HETATM   23  C16 UNL     1      24.898  18.359  31.907  1.00  0.00     0.014 C 
HETATM   24  C13 UNL     1      27.566  17.992  31.078  1.00  0.00    -0.013 C 
HETATM   25  C15 UNL     1      26.444  17.315  30.366  1.00  0.00     0.014 C 
ENDBRANCH  15  16
ENDBRANCH  14  15
ENDBRANCH  12  14
TORSDOF 3
ENDMDL
MODEL 4
REMARK VINA RESULT: -6.601278415      0.783      1.872
REMARK  3 active torsions:
REMARK  status: ('A' for Active; 'I' for Inactive)
REMARK       I    between atoms: N1_2  and  C3_4 
REMARK       I    between atoms: N3_6  and  C4_8 
REMARK       I    between atoms: C4_8  and  N5_12 
REMARK    1  A    between atoms: N5_12  and  C5_14 
REMARK    2  A    between atoms: C5_14  and  C6_15 
REMARK    3  A    between atoms: C6_15  and  C7_16 
ROOT
HETATM    1  C1  UNL     1      17.978  18.073  32.275  1.00  0.00     0.151 C 
HETATM    2  N1  UNL     1      19.145  17.753  33.068  1.00  0.00    -0.364 N 
HETATM    3  C2  UNL     1      19.481  18.615  34.185  1.00  0.00     0.151 C 
HETATM    4  C3  UNL     1      19.963  16.650  32.803  1.00  0.00     0.204 C 
HETATM    5  N2  UNL     1      19.505  15.354  33.165  1.00  0.00    -0.063 NA
HETATM    6  N3  UNL     1      21.133  16.736  32.236  1.00  0.00    -0.164 N 
ATOM      7  H3  UNL     1      21.483  17.656  31.967  1.00  0.00     0.187 HD
HETATM    8  C4  UNL     1      21.931  15.607  31.982  1.00  0.00     0.674 C 
HETATM    9  N4  UNL     1      22.245  14.827  32.939  1.00  0.00    -0.235 N 
ATOM     10  H41 UNL     1      22.824  14.007  32.755  1.00  0.00     0.174 HD
ATOM     11  H42 UNL     1      21.920  15.016  33.888  1.00  0.00     0.174 HD
HETATM   12  N5  UNL     1      22.378  15.347  30.677  1.00  0.00    -0.226 N 
ATOM     13  H5  UNL     1      21.752  14.841  30.050  1.00  0.00     0.177 HD
ENDROOT
BRANCH  12  14
HETATM   14  C5  UNL     1      23.672  15.749  30.162  1.00  0.00     0.139 C 
BRANCH  14  15
HETATM   15  C6  UNL     1      24.646  16.090  31.221  1.00  0.00     0.029 C 
BRANCH  15  16
HETATM   16  C7  UNL     1      25.467  17.288  30.892  1.00  0.00    -0.038 C 
HETATM   17  C8  UNL     1      26.715  16.928  30.123  1.00  0.00     0.014 C 
HETATM   18  C9  UNL     1      27.498  18.162  29.732  1.00  0.00    -0.013 C 
HETATM   19  C10 UNL     1      26.625  19.051  28.907  1.00  0.00     0.009 C 
HETATM   20  C14 UNL     1      27.981  18.827  30.998  1.00  0.00     0.009 C 
HETATM   21  C11 UNL     1      25.439  19.502  29.722  1.00  0.00    -0.013 C 
HETATM   22  C12 UNL     1      25.959  20.182  30.961  1.00  0.00     0.009 C 
HETATM   23  C16 UNL     1      24.628  18.297  30.162  1.00  0.00     0.014 C 
HETATM   24  C13 UNL     1      26.749  19.192  31.787  1.00  0.00    -0.013 C 
HETATM   25  C15 UNL     1      25.954  17.987  32.162  1.00  0.00     0.014 C 
ENDBRANCH  15  16
ENDBRANCH  14  15
ENDBRANCH  12  14
TORSDOF 3
ENDMDL
MODEL 5
REMARK VINA RESULT: -6.539958118      0.944      1.210
REMARK  3 active torsions:
REMARK  status: ('A' for Active; 'I' for Inactive)
REMARK       I    between atoms: N1_2  and  C3_4 
REMARK       I    between atoms: N3_6  and  C4_8 
REMARK       I    between atoms: C4_8  and  N5_12 
REMARK    1  A    between atoms: N5_12  and  C5_14 
REMARK    2  A    between atoms: C5_14  and  C6_15 
REMARK    3  A    between atoms: C6_15  and  C7_16 
ROOT
HETATM    1  C1  UNL     1      17.713  18.448  32.209  1.00  0.00     0.151 C 
HETATM    2  N1  UNL     1      18.843  18.143  33.059  1.00  0.00    -0.364 N 
HETATM    3  C2  UNL     1      19.174  19.064  34.129  1.00  0.00     0.151 C 
HETATM    4  C3  UNL     1      19.631  16.999  32.891  1.00  0.00     0.204 C 
HETATM    5  N2  UNL     1      19.118  15.745  33.319  1.00  0.00    -0.063 NA
HETATM    6  N3  UNL     1      20.820  17.011  32.359  1.00  0.00    -0.164 N 
ATOM      7  H3  UNL     1      21.208  17.900  32.043  1.00  0.00     0.187 HD
HETATM    8  C4  UNL     1      21.586  15.843  32.203  1.00  0.00     0.674 C 
HETATM    9  N4  UNL     1      21.844  15.116  33.217  1.00  0.00    -0.235 N 
ATOM     10  H41 UNL     1      22.400  14.269  33.104  1.00  0.00     0.174 HD
ATOM     11  H42 UNL     1      21.496  15.377  34.140  1.00  0.00     0.174 HD
HETATM   12  N5  UNL     1      22.064  15.485  30.932  1.00  0.00    -0.226 N 
ATOM     13  H5  UNL     1      21.440  14.960  30.319  1.00  0.00     0.177 HD
ENDROOT
BRANCH  12  14
HETATM   14  C5  UNL     1      23.385  15.811  30.435  1.00  0.00     0.139 C 
BRANCH  14  15
HETATM   15  C6  UNL     1      24.301  16.312  31.483  1.00  0.00     0.029 C 
BRANCH  15  16
HETATM   16  C7  UNL     1      25.219  17.378  30.992  1.00  0.00    -0.038 C 
HETATM   17  C8  UNL     1      25.854  18.146  32.126  1.00  0.00     0.014 C 
HETATM   18  C9  UNL     1      26.839  19.172  31.612  1.00  0.00    -0.013 C 
HETATM   19  C10 UNL     1      27.891  18.479  30.808  1.00  0.00     0.009 C 
HETATM   20  C14 UNL     1      26.071  20.196  30.811  1.00  0.00     0.009 C 
HETATM   21  C11 UNL     1      27.261  17.811  29.611  1.00  0.00    -0.013 C 
HETATM   22  C12 UNL     1      26.526  18.864  28.825  1.00  0.00     0.009 C 
HETATM   23  C16 UNL     1      26.244  16.784  30.070  1.00  0.00     0.014 C 
HETATM   24  C13 UNL     1      25.421  19.449  29.674  1.00  0.00    -0.013 C 
HETATM   25  C15 UNL     1      24.461  18.417  30.165  1.00  0.00     0.014 C 
ENDBRANCH  15  16
ENDBRANCH  14  15
ENDBRANCH  12  14
TORSDOF 3
ENDMDL
