MODEL 1
REMARK VINA RESULT: -6.373397240      0.000      0.000
REMARK  3 active torsions:
REMARK  status: ('A' for Active; 'I' for Inactive)
REMARK    1  A    between atoms: C2_2  and  C4_4 
REMARK       I    between atoms: N1_6  and  C6_7 
REMARK    2  A    between atoms: C8_13  and  C9_14 
REMARK    3  A    between atoms: C9_14  and  N4_15 
ROOT
HETATM    1  C4  UNL     1      21.197  17.506  33.303  1.00  0.00     0.098 C 
HETATM    2  C5  UNL     1      21.183  15.971  33.305  1.00  0.00     0.150 C 
HETATM    3  N1  UNL     1      22.578  15.587  33.395  1.00  0.00    -0.352 N 
HETATM    4  C6  UNL     1      23.072  14.407  32.769  1.00  0.00     0.184 C 
HETATM    5  N2  UNL     1      23.483  13.382  33.438  1.00  0.00    -0.374 N 
ATOM      6  H21 UNL     1      23.836  12.537  32.990  1.00  0.00     0.158 HD
ATOM      7  H22 UNL     1      23.447  13.433  34.456  1.00  0.00     0.158 HD
HETATM    8  N3  UNL     1      23.121  14.337  31.361  1.00  0.00    -0.064 NA
HETATM    9  C7  UNL     1      23.502  16.397  34.127  1.00  0.00     0.152 C 
HETATM   10  C8  UNL     1      22.910  17.437  34.998  1.00  0.00     0.121 C 
HETATM   11  N5  UNL     1      21.612  17.905  34.606  1.00  0.00    -0.408 N 
ATOM     12  H5  UNL     1      21.028  18.479  35.215  1.00  0.00     0.154 HD
ENDROOT
BRANCH  10  13
HETATM   13  C9  UNL     1      23.797  18.628  35.190  1.00  0.00     0.263 C 
BRANCH  13  14
HETATM   14  N4  UNL     1      24.682  18.598  36.288  1.00  0.00    -0.065 N 
HETATM   15  C10 UNL     1      25.967  17.996  36.040  1.00  0.00     0.238 C 
HETATM   16  C11 UNL     1      26.498  17.610  37.432  1.00  0.00     0.034 C 
HETATM   17  C12 UNL     1      25.322  17.910  38.313  1.00  0.00     0.015 C 
HETATM   18  C13 UNL     1      25.225  19.406  38.465  1.00  0.00     0.034 C 
HETATM   19  C15 UNL     1      24.166  17.678  37.325  1.00  0.00     0.242 C 
HETATM   20  C14 UNL     1      24.783  19.820  37.052  1.00  0.00     0.238 C 
ENDBRANCH  13  14
ENDBRANCH  10  13
BRANCH   1  21
HETATM   21  C2  UNL     1      19.761  17.938  33.108  1.00  0.00     0.001 C 
HETATM   22  C1  UNL     1      18.769  16.917  33.569  1.00  0.00     0.011 C 
HETATM   23  C3  UNL     1      19.538  19.222  33.869  1.00  0.00     0.011 C 
ENDBRANCH   1  21
TORSDOF 3
ENDMDL
MODEL 2
REMARK VINA RESULT: -6.331183871      0.438      1.166
REMARK  3 active torsions:
REMARK  status: ('A' for Active; 'I' for Inactive)
REMARK    1  A    between atoms: C2_2  and  C4_4 
REMARK       I    between atoms: N1_6  and  C6_7 
REMARK    2  A    between atoms: C8_13  and  C9_14 
REMARK    3  A    between atoms: C9_14  and  N4_15 
ROOT
HETATM    1  C4  UNL     1      21.163  17.516  33.293  1.00  0.00     0.098 C 
HETATM    2  C5  UNL     1      21.157  15.981  33.304  1.00  0.00     0.150 C 
HETATM    3  N1  UNL     1      22.554  15.605  33.401  1.00  0.00    -0.352 N 
HETATM    4  C6  UNL     1      23.056  14.424  32.784  1.00  0.00     0.184 C 
HETATM    5  N2  UNL     1      23.470  13.405  33.461  1.00  0.00    -0.374 N 
ATOM      6  H21 UNL     1      23.830  12.560  33.019  1.00  0.00     0.158 HD
ATOM      7  H22 UNL     1      23.430  13.462  34.479  1.00  0.00     0.158 HD
HETATM    8  N3  UNL     1      23.111  14.345  31.377  1.00  0.00    -0.064 NA
HETATM    9  C7  UNL     1      23.471  16.425  34.132  1.00  0.00     0.152 C 
HETATM   10  C8  UNL     1      22.870  17.467  34.994  1.00  0.00     0.121 C 
HETATM   11  N5  UNL     1      21.571  17.925  34.595  1.00  0.00    -0.408 N 
ATOM     12  H5  UNL     1      20.982  18.500  35.198  1.00  0.00     0.154 HD
ENDROOT
BRANCH  10  13
HETATM   13  C9  UNL     1      23.750  18.663  35.182  1.00  0.00     0.263 C 
BRANCH  13  14
HETATM   14  N4  UNL     1      24.720  18.592  36.203  1.00  0.00    -0.065 N 
HETATM   15  C10 UNL     1      24.377  17.775  37.339  1.00  0.00     0.238 C 
HETATM   16  C11 UNL     1      25.289  18.272  38.473  1.00  0.00     0.034 C 
HETATM   17  C12 UNL     1      25.947  19.467  37.850  1.00  0.00     0.015 C 
HETATM   18  C13 UNL     1      26.979  18.970  36.870  1.00  0.00     0.034 C 
HETATM   19  C15 UNL     1      24.851  19.908  36.866  1.00  0.00     0.242 C 
HETATM   20  C14 UNL     1      26.083  18.385  35.767  1.00  0.00     0.238 C 
ENDBRANCH  13  14
ENDBRANCH  10  13
BRANCH   1  21
HETATM   21  C2  UNL     1      19.725  17.939  33.090  1.00  0.00     0.001 C 
HETATM   22  C1  UNL     1      18.737  16.926  33.576  1.00  0.00     0.011 C 
HETATM   23  C3  UNL     1      19.500  19.240  33.822  1.00  0.00     0.011 C 
ENDBRANCH   1  21
TORSDOF 3
ENDMDL
MODEL 3
REMARK VINA RESULT: -6.328104366      0.444      1.146
REMARK  3 active torsions:
REMARK  status: ('A' for Active; 'I' for Inactive)
REMARK    1  A    between atoms: C2_2  and  C4_4 
REMARK       I    between atoms: N1_6  and  C6_7 
REMARK    2  A    between atoms: C8_13  and  C9_14 
REMARK    3  A    between atoms: C9_14  and  N4_15 
ROOT
HETATM    1  C4  UNL     1      21.176  17.515  33.289  1.00  0.00     0.098 C 
HETATM    2  C5  UNL     1      21.166  15.981  33.338  1.00  0.00     0.150 C 
HETATM    3  N1  UNL     1      22.563  15.602  33.419  1.00  0.00    -0.352 N 
HETATM    4  C6  UNL     1      23.051  14.406  32.822  1.00  0.00     0.184 C 
HETATM    5  N2  UNL     1      23.474  13.402  33.515  1.00  0.00    -0.374 N 
ATOM      6  H21 UNL     1      23.823  12.545  33.087  1.00  0.00     0.158 HD
ATOM      7  H22 UNL     1      23.452  13.484  34.532  1.00  0.00     0.158 HD
HETATM    8  N3  UNL     1      23.080  14.293  31.416  1.00  0.00    -0.064 NA
HETATM    9  C7  UNL     1      23.495  16.437  34.113  1.00  0.00     0.152 C 
HETATM   10  C8  UNL     1      22.913  17.501  34.961  1.00  0.00     0.121 C 
HETATM   11  N5  UNL     1      21.608  17.953  34.574  1.00  0.00    -0.408 N 
ATOM     12  H5  UNL     1      21.032  18.544  35.173  1.00  0.00     0.154 HD
ENDROOT
BRANCH  10  13
HETATM   13  C9  UNL     1      23.799  18.698  35.105  1.00  0.00     0.263 C 
BRANCH  13  14
HETATM   14  N4  UNL     1      24.677  18.718  36.208  1.00  0.00    -0.065 N 
HETATM   15  C10 UNL     1      25.135  20.019  36.622  1.00  0.00     0.238 C 
HETATM   16  C11 UNL     1      26.419  19.750  37.425  1.00  0.00     0.034 C 
HETATM   17  C12 UNL     1      26.619  18.278  37.217  1.00  0.00     0.015 C 
HETATM   18  C13 UNL     1      25.611  17.548  38.065  1.00  0.00     0.034 C 
HETATM   19  C15 UNL     1      25.968  18.100  35.835  1.00  0.00     0.242 C 
HETATM   20  C14 UNL     1      24.304  17.883  37.327  1.00  0.00     0.238 C 
ENDBRANCH  13  14
ENDBRANCH  10  13
BRANCH   1  21
HETATM   21  C2  UNL     1      19.735  17.938  33.102  1.00  0.00     0.001 C 
HETATM   22  C1  UNL     1      18.752  16.907  33.561  1.00  0.00     0.011 C 
HETATM   23  C3  UNL     1      19.506  19.215  33.872  1.00  0.00     0.011 C 
ENDBRANCH   1  21
TORSDOF 3
ENDMDL
MODEL 4
REMARK VINA RESULT: -6.146480726      1.646      3.747
REMARK  3 active torsions:
REMARK  status: ('A' for Active; 'I' for Inactive)
REMARK    1  A    between atoms: C2_2  and  C4_4 
REMARK       I    between atoms: N1_6  and  C6_7 
REMARK    2  A    between atoms: C8_13  and  C9_14 
REMARK    3  A    between atoms: C9_14  and  N4_15 
ROOT
HETATM    1  C4  UNL     1      22.149  15.793  33.376  1.00  0.00     0.098 C 
HETATM    2  C5  UNL     1      21.079  16.511  32.542  1.00  0.00     0.150 C 
HETATM    3  N1  UNL     1      20.519  17.507  33.433  1.00  0.00    -0.352 N 
HETATM    4  C6  UNL     1      19.151  17.893  33.359  1.00  0.00     0.184 C 
HETATM    5  N2  UNL     1      18.777  19.066  32.967  1.00  0.00    -0.374 N 
ATOM      6  H21 UNL     1      17.797  19.342  32.914  1.00  0.00     0.158 HD
ATOM      7  H22 UNL     1      19.502  19.732  32.701  1.00  0.00     0.158 HD
HETATM    8  N3  UNL     1      18.148  16.972  33.726  1.00  0.00    -0.064 NA
HETATM    9  C7  UNL     1      21.343  18.134  34.420  1.00  0.00     0.152 C 
HETATM   10  C8  UNL     1      22.802  17.932  34.277  1.00  0.00     0.121 C 
HETATM   11  N5  UNL     1      23.194  16.737  33.586  1.00  0.00    -0.408 N 
ATOM     12  H5  UNL     1      24.150  16.576  33.267  1.00  0.00     0.154 HD
ENDROOT
BRANCH  10  13
HETATM   13  C9  UNL     1      23.541  17.983  35.578  1.00  0.00     0.263 C 
BRANCH  13  14
HETATM   14  N4  UNL     1      24.675  18.818  35.639  1.00  0.00    -0.065 N 
HETATM   15  C10 UNL     1      24.962  19.574  34.447  1.00  0.00     0.238 C 
HETATM   16  C11 UNL     1      26.449  19.950  34.566  1.00  0.00     0.034 C 
HETATM   17  C12 UNL     1      26.872  19.188  35.787  1.00  0.00     0.015 C 
HETATM   18  C13 UNL     1      26.315  19.897  36.994  1.00  0.00     0.034 C 
HETATM   19  C15 UNL     1      25.902  17.996  35.721  1.00  0.00     0.242 C 
HETATM   20  C14 UNL     1      24.813  19.610  36.841  1.00  0.00     0.238 C 
ENDBRANCH  13  14
ENDBRANCH  10  13
BRANCH   1  21
HETATM   21  C2  UNL     1      22.683  14.678  32.505  1.00  0.00     0.001 C 
HETATM   22  C1  UNL     1      23.250  15.162  31.207  1.00  0.00     0.011 C 
HETATM   23  C3  UNL     1      23.756  13.943  33.269  1.00  0.00     0.011 C 
ENDBRANCH   1  21
TORSDOF 3
ENDMDL
MODEL 5
REMARK VINA RESULT: -6.038288358      3.549      4.912
REMARK  3 active torsions:
REMARK  status: ('A' for Active; 'I' for Inactive)
REMARK    1  A    between atoms: C2_2  and  C4_4 
REMARK       I    between atoms: N1_6  and  C6_7 
REMARK    2  A    between atoms: C8_13  and  C9_14 
REMARK    3  A    between atoms: C9_14  and  N4_15 
ROOT
HETATM    1  C4  UNL     1      21.746  15.807  32.532  1.00  0.00     0.098 C 
HETATM    2  C5  UNL     1      22.412  14.760  33.435  1.00  0.00     0.150 C 
HETATM    3  N1  UNL     1      23.504  14.227  32.642  1.00  0.00    -0.352 N 
HETATM    4  C6  UNL     1      23.920  12.871  32.758  1.00  0.00     0.184 C 
HETATM    5  N2  UNL     1      25.061  12.532  33.260  1.00  0.00    -0.374 N 
ATOM      6  H21 UNL     1      25.359  11.560  33.343  1.00  0.00     0.158 HD
ATOM      7  H22 UNL     1      25.678  13.276  33.584  1.00  0.00     0.158 HD
HETATM    8  N3  UNL     1      23.066  11.842  32.311  1.00  0.00    -0.064 NA
HETATM    9  C7  UNL     1      24.196  15.068  31.715  1.00  0.00     0.152 C 
HETATM   10  C8  UNL     1      23.940  16.521  31.833  1.00  0.00     0.121 C 
HETATM   11  N5  UNL     1      22.675  16.879  32.408  1.00  0.00    -0.408 N 
ATOM     12  H5  UNL     1      22.457  17.830  32.706  1.00  0.00     0.154 HD
ENDROOT
BRANCH  10  13
HETATM   13  C9  UNL     1      24.092  17.259  30.540  1.00  0.00     0.263 C 
BRANCH  13  14
HETATM   14  N4  UNL     1      25.179  18.150  30.434  1.00  0.00    -0.065 N 
HETATM   15  C10 UNL     1      25.618  18.753  31.666  1.00  0.00     0.238 C 
HETATM   16  C11 UNL     1      26.390  20.013  31.237  1.00  0.00     0.034 C 
HETATM   17  C12 UNL     1      26.139  20.049  29.759  1.00  0.00     0.015 C 
HETATM   18  C13 UNL     1      26.986  18.980  29.117  1.00  0.00     0.034 C 
HETATM   19  C15 UNL     1      24.765  19.361  29.691  1.00  0.00     0.242 C 
HETATM   20  C14 UNL     1      26.282  17.707  29.612  1.00  0.00     0.238 C 
ENDBRANCH  13  14
ENDBRANCH  10  13
BRANCH   1  21
HETATM   21  C2  UNL     1      20.539  16.310  33.294  1.00  0.00     0.001 C 
HETATM   22  C1  UNL     1      20.835  17.501  34.150  1.00  0.00     0.011 C 
HETATM   23  C3  UNL     1      19.461  16.671  32.301  1.00  0.00     0.011 C 
ENDBRANCH   1  21
TORSDOF 3
ENDMDL
