MODEL 1
REMARK VINA RESULT: -6.987450314      0.000      0.000
REMARK  7 active torsions:
REMARK  status: ('A' for Active; 'I' for Inactive)
REMARK    1  A    between atoms: N1_2  and  C2_3 
REMARK    2  A    between atoms: C2_3  and  C3_4 
REMARK    3  A    between atoms: C4_5  and  C5_6 
REMARK    4  A    between atoms: C6_7  and  C7_8 
REMARK    5  A    between atoms: N4_20  and  C16_22 
REMARK    6  A    between atoms: C16_22  and  C17_23 
REMARK    7  A    between atoms: C17_23  and  N5_24 
ROOT
HETATM    1  C2  UNL     1      23.508  10.825  32.847  1.00  0.00     0.332 C 
ENDROOT
BRANCH   1   2
HETATM    2  N1  UNL     1      24.881  10.476  33.115  1.00  0.00    -0.035 N 
HETATM    3  C1  UNL     1      25.707  11.351  32.279  1.00  0.00     0.275 C 
HETATM    4  C13 UNL     1      25.242  10.679  34.504  1.00  0.00     0.268 C 
HETATM    5  C14 UNL     1      26.176   9.527  34.851  1.00  0.00     0.267 C 
HETATM    6  N4  UNL     1      25.821   8.497  33.905  1.00  0.00    -0.043 N 
HETATM    7  C15 UNL     1      27.059   7.818  33.495  1.00  0.00     0.274 C 
HETATM    8  C18 UNL     1      25.186   9.118  32.784  1.00  0.00     0.473 C 
BRANCH   6   9
HETATM    9  C16 UNL     1      24.962   7.492  34.456  1.00  0.00     0.266 C 
BRANCH   9  10
HETATM   10  C17 UNL     1      25.161   7.309  35.945  1.00  0.00     0.257 C 
BRANCH  10  11
HETATM   11  N5  UNL     1      23.873   7.333  36.611  1.00  0.00    -0.078 N 
ATOM     12  H53 UNL     1      23.334   8.168  36.378  1.00  0.00     0.274 HD
ATOM     13  H52 UNL     1      23.230   6.637  36.233  1.00  0.00     0.274 HD
ATOM     14  H51 UNL     1      24.007   7.229  37.616  1.00  0.00     0.274 HD
ENDBRANCH  10  11
ENDBRANCH   9  10
ENDBRANCH   6   9
ENDBRANCH   1   2
BRANCH   1  15
HETATM   15  C3  UNL     1      23.324  12.261  33.060  1.00  0.00    -0.074 C 
HETATM   16  C4  UNL     1      23.151  13.444  33.233  1.00  0.00    -0.077 C 
BRANCH  16  17
HETATM   17  C5  UNL     1      22.932  14.853  33.418  1.00  0.00     0.065 C 
HETATM   18  C6  UNL     1      21.726  15.333  33.262  1.00  0.00     0.022 C 
BRANCH  18  19
HETATM   19  C7  UNL     1      21.460  16.766  33.442  1.00  0.00    -0.006 A 
HETATM   20  C8  UNL     1      22.364  17.786  33.516  1.00  0.00     0.100 A 
HETATM   21  N2  UNL     1      21.706  18.964  33.686  1.00  0.00    -0.363 N 
HETATM   22  C9  UNL     1      20.383  18.703  33.720  1.00  0.00     0.060 A 
ATOM     23  H2  UNL     1      22.138  19.884  33.772  1.00  0.00     0.165 HD
HETATM   24  C10 UNL     1      19.107  19.214  33.841  1.00  0.00     0.117 A 
HETATM   25  C12 UNL     1      20.216  17.338  33.569  1.00  0.00     0.019 A 
HETATM   26  N3  UNL     1      18.190  18.230  33.771  1.00  0.00    -0.372 N 
HETATM   27  C11 UNL     1      18.866  17.068  33.604  1.00  0.00     0.102 A 
ATOM     28  H3  UNL     1      17.178  18.339  33.833  1.00  0.00     0.164 HD
ENDBRANCH  18  19
ENDBRANCH  16  17
ENDBRANCH   1  15
TORSDOF 7
ENDMDL
MODEL 2
REMARK VINA RESULT: -6.746034571      3.858      6.047
REMARK  7 active torsions:
REMARK  status: ('A' for Active; 'I' for Inactive)
REMARK    1  A    between atoms: N1_2  and  C2_3 
REMARK    2  A    between atoms: C2_3  and  C3_4 
REMARK    3  A    between atoms: C4_5  and  C5_6 
REMARK    4  A    between atoms: C6_7  and  C7_8 
REMARK    5  A    between atoms: N4_20  and  C16_22 
REMARK    6  A    between atoms: C16_22  and  C17_23 
REMARK    7  A    between atoms: C17_23  and  N5_24 
ROOT
HETATM    1  C2  UNL     1      24.484  13.734  33.119  1.00  0.00     0.332 C 
ENDROOT
BRANCH   1   2
HETATM    2  N1  UNL     1      25.378  14.238  32.106  1.00  0.00    -0.035 N 
HETATM    3  C1  UNL     1      26.470  13.266  31.989  1.00  0.00     0.275 C 
HETATM    4  C13 UNL     1      24.733  14.374  30.816  1.00  0.00     0.268 C 
HETATM    5  C14 UNL     1      25.314  15.642  30.204  1.00  0.00     0.267 C 
HETATM    6  N4  UNL     1      25.749  16.408  31.347  1.00  0.00    -0.043 N 
HETATM    7  C15 UNL     1      27.010  17.073  30.987  1.00  0.00     0.274 C 
HETATM    8  C18 UNL     1      25.942  15.509  32.442  1.00  0.00     0.473 C 
BRANCH   6   9
HETATM    9  C16 UNL     1      24.830  17.441  31.721  1.00  0.00     0.266 C 
BRANCH   9  10
HETATM   10  C17 UNL     1      23.963  17.895  30.566  1.00  0.00     0.257 C 
BRANCH  10  11
HETATM   11  N5  UNL     1      24.345  19.237  30.174  1.00  0.00    -0.078 N 
ATOM     12  H53 UNL     1      23.770  19.949  30.625  1.00  0.00     0.274 HD
ATOM     13  H52 UNL     1      25.248  19.511  30.564  1.00  0.00     0.274 HD
ATOM     14  H51 UNL     1      24.326  19.313  29.157  1.00  0.00     0.274 HD
ENDBRANCH  10  11
ENDBRANCH   9  10
ENDBRANCH   6   9
ENDBRANCH   1   2
BRANCH   1  15
HETATM   15  C3  UNL     1      23.297  14.588  33.183  1.00  0.00    -0.074 C 
HETATM   16  C4  UNL     1      22.320  15.293  33.258  1.00  0.00    -0.077 C 
BRANCH  16  17
HETATM   17  C5  UNL     1      21.146  16.118  33.365  1.00  0.00     0.065 C 
HETATM   18  C6  UNL     1      20.545  16.510  32.273  1.00  0.00     0.022 C 
BRANCH  18  19
HETATM   19  C7  UNL     1      19.344  17.353  32.339  1.00  0.00    -0.006 A 
HETATM   20  C8  UNL     1      18.209  17.260  31.587  1.00  0.00     0.100 A 
HETATM   21  N2  UNL     1      17.335  18.232  31.964  1.00  0.00    -0.363 N 
HETATM   22  C9  UNL     1      17.905  18.946  32.956  1.00  0.00     0.060 A 
ATOM     23  H2  UNL     1      16.409  18.392  31.566  1.00  0.00     0.165 HD
HETATM   24  C10 UNL     1      17.780  19.994  33.845  1.00  0.00     0.117 A 
HETATM   25  C12 UNL     1      19.157  18.409  33.199  1.00  0.00     0.019 A 
HETATM   26  N3  UNL     1      18.887  20.111  34.604  1.00  0.00    -0.372 N 
HETATM   27  C11 UNL     1      19.742  19.137  34.211  1.00  0.00     0.102 A 
ATOM     28  H3  UNL     1      19.050  20.803  35.335  1.00  0.00     0.164 HD
ENDBRANCH  18  19
ENDBRANCH  16  17
ENDBRANCH   1  15
TORSDOF 7
ENDMDL
MODEL 3
REMARK VINA RESULT: -6.614831673      4.010      5.959
REMARK  7 active torsions:
REMARK  status: ('A' for Active; 'I' for Inactive)
REMARK    1  A    between atoms: N1_2  and  C2_3 
REMARK    2  A    between atoms: C2_3  and  C3_4 
REMARK    3  A    between atoms: C4_5  and  C5_6 
REMARK    4  A    between atoms: C6_7  and  C7_8 
REMARK    5  A    between atoms: N4_20  and  C16_22 
REMARK    6  A    between atoms: C16_22  and  C17_23 
REMARK    7  A    between atoms: C17_23  and  N5_24 
ROOT
HETATM    1  C2  UNL     1      24.803  13.845  33.002  1.00  0.00     0.332 C 
ENDROOT
BRANCH   1   2
HETATM    2  N1  UNL     1      25.673  14.603  32.136  1.00  0.00    -0.035 N 
HETATM    3  C1  UNL     1      26.940  13.868  32.068  1.00  0.00     0.275 C 
HETATM    4  C13 UNL     1      25.138  14.736  30.796  1.00  0.00     0.268 C 
HETATM    5  C14 UNL     1      25.514  16.144  30.350  1.00  0.00     0.267 C 
HETATM    6  N4  UNL     1      25.679  16.866  31.588  1.00  0.00    -0.043 N 
HETATM    7  C15 UNL     1      26.813  17.787  31.422  1.00  0.00     0.274 C 
HETATM    8  C18 UNL     1      25.941  15.919  32.628  1.00  0.00     0.473 C 
BRANCH   6   9
HETATM    9  C16 UNL     1      24.544  17.667  31.934  1.00  0.00     0.266 C 
BRANCH   9  10
HETATM   10  C17 UNL     1      24.602  18.174  33.359  1.00  0.00     0.257 C 
BRANCH  10  11
HETATM   11  N5  UNL     1      23.363  18.855  33.681  1.00  0.00    -0.078 N 
ATOM     12  H53 UNL     1      23.424  19.861  33.525  1.00  0.00     0.274 HD
ATOM     13  H52 UNL     1      22.624  18.648  33.009  1.00  0.00     0.274 HD
ATOM     14  H51 UNL     1      23.089  18.628  34.637  1.00  0.00     0.274 HD
ENDBRANCH  10  11
ENDBRANCH   9  10
ENDBRANCH   6   9
ENDBRANCH   1   2
BRANCH   1  15
HETATM   15  C3  UNL     1      23.527  14.547  33.139  1.00  0.00    -0.074 C 
HETATM   16  C4  UNL     1      22.472  15.128  33.229  1.00  0.00    -0.077 C 
BRANCH  16  17
HETATM   17  C5  UNL     1      21.224  15.837  33.321  1.00  0.00     0.065 C 
HETATM   18  C6  UNL     1      20.832  16.566  32.309  1.00  0.00     0.022 C 
BRANCH  18  19
HETATM   19  C7  UNL     1      19.564  17.305  32.364  1.00  0.00    -0.006 A 
HETATM   20  C8  UNL     1      18.449  17.119  31.601  1.00  0.00     0.100 A 
HETATM   21  N2  UNL     1      17.492  18.013  31.969  1.00  0.00    -0.363 N 
HETATM   22  C9  UNL     1      17.991  18.771  32.967  1.00  0.00     0.060 A 
ATOM     23  H2  UNL     1      16.561  18.096  31.562  1.00  0.00     0.165 HD
HETATM   24  C10 UNL     1      17.769  19.805  33.855  1.00  0.00     0.117 A 
HETATM   25  C12 UNL     1      19.281  18.341  33.222  1.00  0.00     0.019 A 
HETATM   26  N3  UNL     1      18.855  20.013  34.625  1.00  0.00    -0.372 N 
HETATM   27  C11 UNL     1      19.793  19.114  34.241  1.00  0.00     0.102 A 
ATOM     28  H3  UNL     1      18.952  20.715  35.358  1.00  0.00     0.164 HD
ENDBRANCH  18  19
ENDBRANCH  16  17
ENDBRANCH   1  15
TORSDOF 7
ENDMDL
MODEL 4
REMARK VINA RESULT: -6.613166421      1.723      1.872
REMARK  7 active torsions:
REMARK  status: ('A' for Active; 'I' for Inactive)
REMARK    1  A    between atoms: N1_2  and  C2_3 
REMARK    2  A    between atoms: C2_3  and  C3_4 
REMARK    3  A    between atoms: C4_5  and  C5_6 
REMARK    4  A    between atoms: C6_7  and  C7_8 
REMARK    5  A    between atoms: N4_20  and  C16_22 
REMARK    6  A    between atoms: C16_22  and  C17_23 
REMARK    7  A    between atoms: C17_23  and  N5_24 
ROOT
HETATM    1  C2  UNL     1      23.700  10.999  32.891  1.00  0.00     0.332 C 
ENDROOT
BRANCH   1   2
HETATM    2  N1  UNL     1      25.060  10.797  32.453  1.00  0.00    -0.035 N 
HETATM    3  C1  UNL     1      25.547  12.099  31.987  1.00  0.00     0.275 C 
HETATM    4  C13 UNL     1      25.921  10.332  33.521  1.00  0.00     0.268 C 
HETATM    5  C14 UNL     1      26.872   9.337  32.868  1.00  0.00     0.267 C 
HETATM    6  N4  UNL     1      26.149   8.880  31.706  1.00  0.00    -0.043 N 
HETATM    7  C15 UNL     1      27.117   8.718  30.611  1.00  0.00     0.274 C 
HETATM    8  C18 UNL     1      25.166   9.864  31.374  1.00  0.00     0.473 C 
BRANCH   6   9
HETATM    9  C16 UNL     1      25.521   7.607  31.892  1.00  0.00     0.266 C 
BRANCH   9  10
HETATM   10  C17 UNL     1      26.476   6.558  32.419  1.00  0.00     0.257 C 
BRANCH  10  11
HETATM   11  N5  UNL     1      26.331   5.340  31.645  1.00  0.00    -0.078 N 
ATOM     12  H53 UNL     1      27.000   4.624  31.925  1.00  0.00     0.274 HD
ATOM     13  H52 UNL     1      25.474   4.836  31.876  1.00  0.00     0.274 HD
ATOM     14  H51 UNL     1      26.393   5.560  30.651  1.00  0.00     0.274 HD
ENDBRANCH  10  11
ENDBRANCH   9  10
ENDBRANCH   6   9
ENDBRANCH   1   2
BRANCH   1  15
HETATM   15  C3  UNL     1      23.463  12.430  33.085  1.00  0.00    -0.074 C 
HETATM   16  C4  UNL     1      23.245  13.606  33.250  1.00  0.00    -0.077 C 
BRANCH  16  17
HETATM   17  C5  UNL     1      22.967  15.006  33.429  1.00  0.00     0.065 C 
HETATM   18  C6  UNL     1      21.740  15.433  33.281  1.00  0.00     0.022 C 
BRANCH  18  19
HETATM   19  C7  UNL     1      21.415  16.854  33.456  1.00  0.00    -0.006 A 
HETATM   20  C8  UNL     1      22.276  17.909  33.545  1.00  0.00     0.100 A 
HETATM   21  N2  UNL     1      21.569  19.060  33.704  1.00  0.00    -0.363 N 
HETATM   22  C9  UNL     1      20.257  18.746  33.716  1.00  0.00     0.060 A 
ATOM     23  H2  UNL     1      21.962  19.997  33.797  1.00  0.00     0.165 HD
HETATM   24  C10 UNL     1      18.959  19.206  33.816  1.00  0.00     0.117 A 
HETATM   25  C12 UNL     1      20.147  17.376  33.563  1.00  0.00     0.019 A 
HETATM   26  N3  UNL     1      18.084  18.186  33.732  1.00  0.00    -0.372 N 
HETATM   27  C11 UNL     1      18.809  17.052  33.575  1.00  0.00     0.102 A 
ATOM     28  H3  UNL     1      17.067  18.255  33.777  1.00  0.00     0.164 HD
ENDBRANCH  18  19
ENDBRANCH  16  17
ENDBRANCH   1  15
TORSDOF 7
ENDMDL
MODEL 5
REMARK VINA RESULT: -6.563487015      1.712      3.159
REMARK  7 active torsions:
REMARK  status: ('A' for Active; 'I' for Inactive)
REMARK    1  A    between atoms: N1_2  and  C2_3 
REMARK    2  A    between atoms: C2_3  and  C3_4 
REMARK    3  A    between atoms: C4_5  and  C5_6 
REMARK    4  A    between atoms: C6_7  and  C7_8 
REMARK    5  A    between atoms: N4_20  and  C16_22 
REMARK    6  A    between atoms: C16_22  and  C17_23 
REMARK    7  A    between atoms: C17_23  and  N5_24 
ROOT
HETATM    1  C2  UNL     1      23.663  10.832  32.724  1.00  0.00     0.332 C 
ENDROOT
BRANCH   1   2
HETATM    2  N1  UNL     1      25.037  10.498  33.009  1.00  0.00    -0.035 N 
HETATM    3  C1  UNL     1      25.212  10.644  34.457  1.00  0.00     0.275 C 
HETATM    4  C13 UNL     1      25.365   9.138  32.633  1.00  0.00     0.268 C 
HETATM    5  C14 UNL     1      26.787   9.201  32.091  1.00  0.00     0.267 C 
HETATM    6  N4  UNL     1      26.931  10.569  31.656  1.00  0.00    -0.043 N 
HETATM    7  C15 UNL     1      28.299  11.000  31.980  1.00  0.00     0.274 C 
HETATM    8  C18 UNL     1      25.968  11.364  32.353  1.00  0.00     0.473 C 
BRANCH   6   9
HETATM    9  C16 UNL     1      26.770  10.736  30.243  1.00  0.00     0.266 C 
BRANCH   9  10
HETATM   10  C17 UNL     1      28.090  10.736  29.503  1.00  0.00     0.257 C 
BRANCH  10  11
HETATM   11  N5  UNL     1      28.191   9.536  28.696  1.00  0.00    -0.078 N 
ATOM     12  H53 UNL     1      28.489   8.728  29.243  1.00  0.00     0.274 HD
ATOM     13  H52 UNL     1      27.277   9.187  28.407  1.00  0.00     0.274 HD
ATOM     14  H51 UNL     1      28.805   9.712  27.901  1.00  0.00     0.274 HD
ENDBRANCH  10  11
ENDBRANCH   9  10
ENDBRANCH   6   9
ENDBRANCH   1   2
BRANCH   1  15
HETATM   15  C3  UNL     1      23.457  12.264  32.951  1.00  0.00    -0.074 C 
HETATM   16  C4  UNL     1      23.267  13.442  33.129  1.00  0.00    -0.077 C 
BRANCH  16  17
HETATM   17  C5  UNL     1      23.033  14.849  33.318  1.00  0.00     0.065 C 
HETATM   18  C6  UNL     1      21.807  15.301  33.261  1.00  0.00     0.022 C 
BRANCH  18  19
HETATM   19  C7  UNL     1      21.527  16.731  33.449  1.00  0.00    -0.006 A 
HETATM   20  C8  UNL     1      22.420  17.759  33.531  1.00  0.00     0.100 A 
HETATM   21  N2  UNL     1      21.749  18.930  33.706  1.00  0.00    -0.363 N 
HETATM   22  C9  UNL     1      20.429  18.655  33.735  1.00  0.00     0.060 A 
ATOM     23  H2  UNL     1      22.171  19.854  33.799  1.00  0.00     0.165 HD
HETATM   24  C10 UNL     1      19.147  19.152  33.857  1.00  0.00     0.117 A 
HETATM   25  C12 UNL     1      20.277  17.289  33.576  1.00  0.00     0.019 A 
HETATM   26  N3  UNL     1      18.241  18.159  33.779  1.00  0.00    -0.372 N 
HETATM   27  C11 UNL     1      18.930  17.004  33.606  1.00  0.00     0.102 A 
ATOM     28  H3  UNL     1      17.227  18.257  33.839  1.00  0.00     0.164 HD
ENDBRANCH  18  19
ENDBRANCH  16  17
ENDBRANCH   1  15
TORSDOF 7
ENDMDL
