MODEL 1
REMARK VINA RESULT: -6.115516112      0.000      0.000
REMARK  4 active torsions:
REMARK  status: ('A' for Active; 'I' for Inactive)
REMARK    1  A    between atoms: N1_6  and  C6_7 
REMARK    2  A    between atoms: C6_7  and  C7_8 
REMARK    3  A    between atoms: C7_8  and  N2_9 
REMARK       I    between atoms: N2_9  and  C8_11 
REMARK       I    between atoms: C8_11  and  N4_15 
REMARK    4  A    between atoms: C12_19  and  C13_20 
ROOT
HETATM    1  N2  UNL     1      25.145  15.871  30.629  1.00  0.00    -0.225 N 
ATOM      2  H2  UNL     1      25.268  14.946  31.041  1.00  0.00     0.177 HD
HETATM    3  C8  UNL     1      26.243  16.760  30.699  1.00  0.00     0.670 C 
HETATM    4  N3  UNL     1      27.035  16.959  29.707  1.00  0.00    -0.235 N 
ATOM      5  H31 UNL     1      27.827  17.600  29.758  1.00  0.00     0.174 HD
ATOM      6  H32 UNL     1      26.882  16.474  28.823  1.00  0.00     0.174 HD
HETATM    7  N4  UNL     1      26.457  17.434  31.930  1.00  0.00    -0.213 N 
HETATM    8  C9  UNL     1      26.667  16.755  33.196  1.00  0.00     0.146 C 
HETATM    9  C10 UNL     1      26.537  17.788  34.267  1.00  0.00     0.016 C 
HETATM   10  C11 UNL     1      25.757  17.313  35.457  1.00  0.00     0.012 C 
HETATM   11  C12 UNL     1      25.881  18.945  33.544  1.00  0.00     0.115 C 
HETATM   12  C14 UNL     1      26.515  18.856  32.180  1.00  0.00     0.112 C 
HETATM   13  C15 UNL     1      27.993  19.230  32.228  1.00  0.00     0.034 C 
ENDROOT
BRANCH   1  14
HETATM   14  C7  UNL     1      23.873  16.161  30.029  1.00  0.00     0.166 C 
BRANCH  14  15
HETATM   15  C6  UNL     1      22.779  15.488  30.834  1.00  0.00     0.263 C 
BRANCH  15  16
HETATM   16  N1  UNL     1      22.298  16.254  31.908  1.00  0.00    -0.040 N 
HETATM   17  C2  UNL     1      22.707  15.858  33.212  1.00  0.00     0.109 C 
HETATM   18  C1  UNL     1      23.494  14.881  33.576  1.00  0.00     0.046 C 
HETATM   19  C3  UNL     1      21.968  16.886  34.020  1.00  0.00     0.046 C 
HETATM   20  C4  UNL     1      22.437  18.137  33.316  1.00  0.00     0.039 C 
HETATM   21  C17 UNL     1      20.565  16.614  33.517  1.00  0.00     0.039 C 
HETATM   22  C5  UNL     1      22.733  17.647  31.910  1.00  0.00     0.244 C 
HETATM   23  C16 UNL     1      20.854  16.265  32.060  1.00  0.00     0.244 C 
ENDBRANCH  15  16
ENDBRANCH  14  15
ENDBRANCH   1  14
BRANCH  11  24
HETATM   24  C13 UNL     1      26.049  20.219  34.222  1.00  0.00     0.179 C 
HETATM   25  O1  UNL     1      26.606  20.268  35.340  1.00  0.00    -0.648 OA
HETATM   26  O2  UNL     1      25.599  21.386  33.645  1.00  0.00    -0.648 OA
ENDBRANCH  11  24
TORSDOF 4
ENDMDL
MODEL 2
REMARK VINA RESULT: -6.068657175      2.955      5.147
REMARK  4 active torsions:
REMARK  status: ('A' for Active; 'I' for Inactive)
REMARK    1  A    between atoms: N1_6  and  C6_7 
REMARK    2  A    between atoms: C6_7  and  C7_8 
REMARK    3  A    between atoms: C7_8  and  N2_9 
REMARK       I    between atoms: N2_9  and  C8_11 
REMARK       I    between atoms: C8_11  and  N4_15 
REMARK    4  A    between atoms: C12_19  and  C13_20 
ROOT
HETATM    1  N2  UNL     1      25.036  19.234  31.792  1.00  0.00    -0.225 N 
ATOM      2  H2  UNL     1      24.191  19.805  31.771  1.00  0.00     0.177 HD
HETATM    3  C8  UNL     1      25.109  18.155  30.880  1.00  0.00     0.670 C 
HETATM    4  N3  UNL     1      25.768  18.223  29.780  1.00  0.00    -0.235 N 
ATOM      5  H31 UNL     1      25.820  17.444  29.123  1.00  0.00     0.174 HD
ATOM      6  H32 UNL     1      26.272  19.075  29.536  1.00  0.00     0.174 HD
HETATM    7  N4  UNL     1      24.407  16.968  31.220  1.00  0.00    -0.213 N 
HETATM    8  C9  UNL     1      22.979  16.922  31.475  1.00  0.00     0.146 C 
HETATM    9  C10 UNL     1      22.693  15.592  32.094  1.00  0.00     0.016 C 
HETATM   10  C11 UNL     1      21.729  15.667  33.240  1.00  0.00     0.012 C 
HETATM   11  C12 UNL     1      24.068  15.105  32.498  1.00  0.00     0.115 C 
HETATM   12  C14 UNL     1      24.924  15.628  31.373  1.00  0.00     0.112 C 
HETATM   13  C15 UNL     1      24.634  14.897  30.067  1.00  0.00     0.034 C 
ENDROOT
BRANCH   1  14
HETATM   14  C7  UNL     1      26.050  19.594  32.743  1.00  0.00     0.166 C 
BRANCH  14  15
HETATM   15  C6  UNL     1      25.391  20.193  33.970  1.00  0.00     0.263 C 
BRANCH  15  16
HETATM   16  N1  UNL     1      25.283  19.310  35.056  1.00  0.00    -0.040 N 
HETATM   17  C2  UNL     1      24.008  18.718  35.277  1.00  0.00     0.109 C 
HETATM   18  C1  UNL     1      22.899  18.854  34.600  1.00  0.00     0.046 C 
HETATM   19  C3  UNL     1      24.326  17.908  36.501  1.00  0.00     0.046 C 
HETATM   20  C4  UNL     1      25.543  17.168  35.999  1.00  0.00     0.039 C 
HETATM   21  C17 UNL     1      24.843  19.023  37.389  1.00  0.00     0.039 C 
HETATM   22  C5  UNL     1      26.114  18.115  34.958  1.00  0.00     0.244 C 
HETATM   23  C16 UNL     1      25.546  19.899  36.357  1.00  0.00     0.244 C 
ENDBRANCH  15  16
ENDBRANCH  14  15
ENDBRANCH   1  14
BRANCH  11  24
HETATM   24  C13 UNL     1      24.133  13.668  32.707  1.00  0.00     0.179 C 
HETATM   25  O1  UNL     1      25.092  13.166  33.332  1.00  0.00    -0.648 OA
HETATM   26  O2  UNL     1      23.143  12.843  32.221  1.00  0.00    -0.648 OA
ENDBRANCH  11  24
TORSDOF 4
ENDMDL
MODEL 3
REMARK VINA RESULT: -5.952780554      1.034      1.189
REMARK  4 active torsions:
REMARK  status: ('A' for Active; 'I' for Inactive)
REMARK    1  A    between atoms: N1_6  and  C6_7 
REMARK    2  A    between atoms: C6_7  and  C7_8 
REMARK    3  A    between atoms: C7_8  and  N2_9 
REMARK       I    between atoms: N2_9  and  C8_11 
REMARK       I    between atoms: C8_11  and  N4_15 
REMARK    4  A    between atoms: C12_19  and  C13_20 
ROOT
HETATM    1  N2  UNL     1      25.203  16.914  29.893  1.00  0.00    -0.225 N 
ATOM      2  H2  UNL     1      25.772  16.069  29.826  1.00  0.00     0.177 HD
HETATM    3  C8  UNL     1      25.887  18.143  30.040  1.00  0.00     0.670 C 
HETATM    4  N3  UNL     1      26.089  18.942  29.055  1.00  0.00    -0.235 N 
ATOM      5  H31 UNL     1      26.582  19.829  29.161  1.00  0.00     0.174 HD
ATOM      6  H32 UNL     1      25.747  18.707  28.123  1.00  0.00     0.174 HD
HETATM    7  N4  UNL     1      26.363  18.471  31.336  1.00  0.00    -0.213 N 
HETATM    8  C9  UNL     1      27.281  17.639  32.092  1.00  0.00     0.146 C 
HETATM    9  C10 UNL     1      27.284  18.160  33.493  1.00  0.00     0.016 C 
HETATM   10  C11 UNL     1      27.261  17.077  34.529  1.00  0.00     0.012 C 
HETATM   11  C12 UNL     1      26.058  19.048  33.526  1.00  0.00     0.115 C 
HETATM   12  C14 UNL     1      26.064  19.635  32.138  1.00  0.00     0.112 C 
HETATM   13  C15 UNL     1      27.226  20.605  31.949  1.00  0.00     0.034 C 
ENDROOT
BRANCH   1  14
HETATM   14  C7  UNL     1      23.777  16.753  29.828  1.00  0.00     0.166 C 
BRANCH  14  15
HETATM   15  C6  UNL     1      23.337  15.785  30.909  1.00  0.00     0.263 C 
BRANCH  15  16
HETATM   16  N1  UNL     1      22.674  16.390  31.989  1.00  0.00    -0.040 N 
HETATM   17  C2  UNL     1      23.128  16.047  33.293  1.00  0.00     0.109 C 
HETATM   18  C1  UNL     1      24.101  15.254  33.654  1.00  0.00     0.046 C 
HETATM   19  C3  UNL     1      22.162  16.860  34.107  1.00  0.00     0.046 C 
HETATM   20  C4  UNL     1      22.361  18.207  33.454  1.00  0.00     0.039 C 
HETATM   21  C17 UNL     1      20.865  16.305  33.552  1.00  0.00     0.039 C 
HETATM   22  C5  UNL     1      22.792  17.843  32.044  1.00  0.00     0.244 C 
HETATM   23  C16 UNL     1      21.259  16.079  32.096  1.00  0.00     0.244 C 
ENDBRANCH  15  16
ENDBRANCH  14  15
ENDBRANCH   1  14
BRANCH  11  24
HETATM   24  C13 UNL     1      26.076  20.018  34.608  1.00  0.00     0.179 C 
HETATM   25  O1  UNL     1      25.013  20.549  34.995  1.00  0.00    -0.648 OA
HETATM   26  O2  UNL     1      27.262  20.364  35.219  1.00  0.00    -0.648 OA
ENDBRANCH  11  24
TORSDOF 4
ENDMDL
MODEL 4
REMARK VINA RESULT: -5.938160500      2.877      5.048
REMARK  4 active torsions:
REMARK  status: ('A' for Active; 'I' for Inactive)
REMARK    1  A    between atoms: N1_6  and  C6_7 
REMARK    2  A    between atoms: C6_7  and  C7_8 
REMARK    3  A    between atoms: C7_8  and  N2_9 
REMARK       I    between atoms: N2_9  and  C8_11 
REMARK       I    between atoms: C8_11  and  N4_15 
REMARK    4  A    between atoms: C12_19  and  C13_20 
ROOT
HETATM    1  N2  UNL     1      25.171  19.544  31.682  1.00  0.00    -0.225 N 
ATOM      2  H2  UNL     1      24.353  20.151  31.648  1.00  0.00     0.177 HD
HETATM    3  C8  UNL     1      25.204  18.452  30.783  1.00  0.00     0.670 C 
HETATM    4  N3  UNL     1      25.873  18.480  29.688  1.00  0.00    -0.235 N 
ATOM      5  H31 UNL     1      25.897  17.692  29.040  1.00  0.00     0.174 HD
ATOM      6  H32 UNL     1      26.417  19.306  29.438  1.00  0.00     0.174 HD
HETATM    7  N4  UNL     1      24.447  17.302  31.130  1.00  0.00    -0.213 N 
HETATM    8  C9  UNL     1      23.017  17.320  31.373  1.00  0.00     0.146 C 
HETATM    9  C10 UNL     1      22.668  16.012  32.004  1.00  0.00     0.016 C 
HETATM   10  C11 UNL     1      21.700  16.141  33.142  1.00  0.00     0.012 C 
HETATM   11  C12 UNL     1      24.017  15.469  32.425  1.00  0.00     0.115 C 
HETATM   12  C14 UNL     1      24.904  15.942  31.301  1.00  0.00     0.112 C 
HETATM   13  C15 UNL     1      24.592  15.210  30.001  1.00  0.00     0.034 C 
ENDROOT
BRANCH   1  14
HETATM   14  C7  UNL     1      26.193  19.869  32.639  1.00  0.00     0.166 C 
BRANCH  14  15
HETATM   15  C6  UNL     1      25.541  20.226  33.960  1.00  0.00     0.263 C 
BRANCH  15  16
HETATM   16  N1  UNL     1      25.166  19.117  34.736  1.00  0.00    -0.040 N 
HETATM   17  C2  UNL     1      25.341  19.230  36.143  1.00  0.00     0.109 C 
HETATM   18  C1  UNL     1      25.787  20.235  36.848  1.00  0.00     0.046 C 
HETATM   19  C3  UNL     1      24.865  17.867  36.556  1.00  0.00     0.046 C 
HETATM   20  C4  UNL     1      23.527  17.849  35.854  1.00  0.00     0.039 C 
HETATM   21  C17 UNL     1      25.801  17.027  35.710  1.00  0.00     0.039 C 
HETATM   22  C5  UNL     1      23.749  18.777  34.674  1.00  0.00     0.244 C 
HETATM   23  C16 UNL     1      25.903  17.895  34.461  1.00  0.00     0.244 C 
ENDBRANCH  15  16
ENDBRANCH  14  15
ENDBRANCH   1  14
BRANCH  11  24
HETATM   24  C13 UNL     1      24.017  14.033  32.650  1.00  0.00     0.179 C 
HETATM   25  O1  UNL     1      24.912  13.505  33.345  1.00  0.00    -0.648 OA
HETATM   26  O2  UNL     1      23.036  13.237  32.102  1.00  0.00    -0.648 OA
ENDBRANCH  11  24
TORSDOF 4
ENDMDL
MODEL 5
REMARK VINA RESULT: -5.861528060      7.538      8.902
REMARK  4 active torsions:
REMARK  status: ('A' for Active; 'I' for Inactive)
REMARK    1  A    between atoms: N1_6  and  C6_7 
REMARK    2  A    between atoms: C6_7  and  C7_8 
REMARK    3  A    between atoms: C7_8  and  N2_9 
REMARK       I    between atoms: N2_9  and  C8_11 
REMARK       I    between atoms: C8_11  and  N4_15 
REMARK    4  A    between atoms: C12_19  and  C13_20 
ROOT
HETATM    1  N2  UNL     1      28.574   8.506  29.594  1.00  0.00    -0.225 N 
ATOM      2  H2  UNL     1      29.515   8.414  29.978  1.00  0.00     0.177 HD
HETATM    3  C8  UNL     1      28.165   9.797  29.187  1.00  0.00     0.670 C 
HETATM    4  N3  UNL     1      28.178  10.170  27.959  1.00  0.00    -0.235 N 
ATOM      5  H31 UNL     1      27.882  11.102  27.665  1.00  0.00     0.174 HD
ATOM      6  H32 UNL     1      28.483   9.527  27.229  1.00  0.00     0.174 HD
HETATM    7  N4  UNL     1      27.740  10.694  30.203  1.00  0.00    -0.213 N 
HETATM    8  C9  UNL     1      28.568  11.090  31.327  1.00  0.00     0.146 C 
HETATM    9  C10 UNL     1      27.669  11.772  32.307  1.00  0.00     0.016 C 
HETATM   10  C11 UNL     1      27.935  11.378  33.729  1.00  0.00     0.012 C 
HETATM   11  C12 UNL     1      26.287  11.382  31.826  1.00  0.00     0.115 C 
HETATM   12  C14 UNL     1      26.472  11.374  30.330  1.00  0.00     0.112 C 
HETATM   13  C15 UNL     1      26.676  12.784  29.787  1.00  0.00     0.034 C 
ENDROOT
BRANCH   1  14
HETATM   14  C7  UNL     1      27.779   7.313  29.512  1.00  0.00     0.166 C 
BRANCH  14  15
HETATM   15  C6  UNL     1      27.890   6.550  30.817  1.00  0.00     0.263 C 
BRANCH  15  16
HETATM   16  N1  UNL     1      27.017   6.996  31.822  1.00  0.00    -0.040 N 
HETATM   17  C2  UNL     1      26.384   5.996  32.612  1.00  0.00     0.109 C 
HETATM   18  C1  UNL     1      26.505   4.696  32.562  1.00  0.00     0.046 C 
HETATM   19  C3  UNL     1      25.553   6.878  33.498  1.00  0.00     0.046 C 
HETATM   20  C4  UNL     1      26.630   7.813  33.996  1.00  0.00     0.039 C 
HETATM   21  C17 UNL     1      24.793   7.635  32.427  1.00  0.00     0.039 C 
HETATM   22  C5  UNL     1      27.645   7.797  32.867  1.00  0.00     0.244 C 
HETATM   23  C16 UNL     1      25.867   7.747  31.350  1.00  0.00     0.244 C 
ENDBRANCH  15  16
ENDBRANCH  14  15
ENDBRANCH   1  14
BRANCH  11  24
HETATM   24  C13 UNL     1      25.238  12.260  32.315  1.00  0.00     0.179 C 
HETATM   25  O1  UNL     1      24.038  11.992  32.088  1.00  0.00    -0.648 OA
HETATM   26  O2  UNL     1      25.549  13.395  33.031  1.00  0.00    -0.648 OA
ENDBRANCH  11  24
TORSDOF 4
ENDMDL
