MODEL 1
REMARK VINA RESULT: -6.197147444      0.000      0.000
REMARK  5 active torsions:
REMARK  status: ('A' for Active; 'I' for Inactive)
REMARK    1  A    between atoms: C2_2  and  C3_3 
REMARK    2  A    between atoms: C4_4  and  C5_5 
REMARK    3  A    between atoms: C5_5  and  C6_6 
REMARK    4  A    between atoms: N2_9  and  C7_10 
REMARK    5  A    between atoms: C7_10  and  N3_12 
ROOT
HETATM    1  C6  UNL     1       9.938  15.281   0.714  1.00  0.00     0.016 C 
HETATM    2  N1  UNL     1      10.647  15.466   1.748  1.00  0.00    -0.308 N 
ATOM      3  H1  UNL     1      10.332  15.262   2.697  1.00  0.00     0.186 HD
HETATM    4  N2  UNL     1      11.906  15.979   1.440  1.00  0.00    -0.297 N 
HETATM    5  C9  UNL     1      11.779  16.581   0.104  1.00  0.00     0.150 C 
HETATM    6  C10 UNL     1      10.718  15.679  -0.483  1.00  0.00     0.076 C 
ENDROOT
BRANCH   4   7
HETATM    7  C7  UNL     1      13.088  15.934   2.253  1.00  0.00     0.294 C 
HETATM    8  C8  UNL     1      12.997  16.964   3.367  1.00  0.00     0.064 C 
BRANCH   7   9
HETATM    9  N3  UNL     1      14.297  16.212   1.506  1.00  0.00    -0.057 N 
ATOM     10  H33 UNL     1      14.777  15.348   1.255  1.00  0.00     0.276 HD
ATOM     11  H32 UNL     1      14.077  16.558   0.571  1.00  0.00     0.276 HD
ATOM     12  H31 UNL     1      14.926  16.851   1.992  1.00  0.00     0.276 HD
ENDBRANCH   7   9
ENDBRANCH   4   7
BRANCH   1  13
HETATM   13  C5  UNL     1       8.536  14.738   0.737  1.00  0.00     0.148 C 
BRANCH  13  14
HETATM   14  C4  UNL     1       7.948  14.896   2.063  1.00  0.00    -0.096 C 
HETATM   15  C3  UNL     1       7.481  15.031   3.168  1.00  0.00    -0.079 C 
BRANCH  15  16
HETATM   16  C2  UNL     1       6.944  15.199   4.503  1.00  0.00     0.054 C 
HETATM   17  C1  UNL     1       7.375  14.454   5.491  1.00  0.00     0.020 C 
ENDBRANCH  15  16
ENDBRANCH  13  14
ENDBRANCH   1  13
TORSDOF 5
ENDMDL
MODEL 2
REMARK VINA RESULT: -6.172532665      1.608      3.007
REMARK  5 active torsions:
REMARK  status: ('A' for Active; 'I' for Inactive)
REMARK    1  A    between atoms: C2_2  and  C3_3 
REMARK    2  A    between atoms: C4_4  and  C5_5 
REMARK    3  A    between atoms: C5_5  and  C6_6 
REMARK    4  A    between atoms: N2_9  and  C7_10 
REMARK    5  A    between atoms: C7_10  and  N3_12 
ROOT
HETATM    1  C6  UNL     1      12.074  15.598   3.344  1.00  0.00     0.016 C 
HETATM    2  N1  UNL     1      12.051  15.494   2.081  1.00  0.00    -0.308 N 
ATOM      3  H1  UNL     1      11.610  14.721   1.582  1.00  0.00     0.186 HD
HETATM    4  N2  UNL     1      12.697  16.558   1.453  1.00  0.00    -0.297 N 
HETATM    5  C9  UNL     1      13.588  17.142   2.466  1.00  0.00     0.150 C 
HETATM    6  C10 UNL     1      12.789  16.843   3.713  1.00  0.00     0.076 C 
ENDROOT
BRANCH   4   7
HETATM    7  C7  UNL     1      12.531  16.999   0.097  1.00  0.00     0.294 C 
HETATM    8  C8  UNL     1      11.379  16.255  -0.558  1.00  0.00     0.064 C 
BRANCH   7   9
HETATM    9  N3  UNL     1      13.708  16.773  -0.717  1.00  0.00    -0.057 N 
ATOM     10  H33 UNL     1      13.720  17.400  -1.521  1.00  0.00     0.276 HD
ATOM     11  H32 UNL     1      14.550  17.097  -0.240  1.00  0.00     0.276 HD
ATOM     12  H31 UNL     1      13.808  15.801  -1.010  1.00  0.00     0.276 HD
ENDBRANCH   7   9
ENDBRANCH   4   7
BRANCH   1  13
HETATM   13  C5  UNL     1      11.459  14.599   4.285  1.00  0.00     0.148 C 
BRANCH  13  14
HETATM   14  C4  UNL     1      10.024  14.834   4.413  1.00  0.00    -0.096 C 
HETATM   15  C3  UNL     1       8.838  15.040   4.501  1.00  0.00    -0.079 C 
BRANCH  15  16
HETATM   16  C2  UNL     1       7.415  15.298   4.583  1.00  0.00     0.054 C 
HETATM   17  C1  UNL     1       6.707  15.473   3.495  1.00  0.00     0.020 C 
ENDBRANCH  15  16
ENDBRANCH  13  14
ENDBRANCH   1  13
TORSDOF 5
ENDMDL
MODEL 3
REMARK VINA RESULT: -5.728615932      1.624      3.076
REMARK  5 active torsions:
REMARK  status: ('A' for Active; 'I' for Inactive)
REMARK    1  A    between atoms: C2_2  and  C3_3 
REMARK    2  A    between atoms: C4_4  and  C5_5 
REMARK    3  A    between atoms: C5_5  and  C6_6 
REMARK    4  A    between atoms: N2_9  and  C7_10 
REMARK    5  A    between atoms: C7_10  and  N3_12 
ROOT
HETATM    1  C6  UNL     1      11.923  15.600   2.897  1.00  0.00     0.016 C 
HETATM    2  N1  UNL     1      11.484  15.258   1.758  1.00  0.00    -0.308 N 
ATOM      3  H1  UNL     1      10.788  14.527   1.613  1.00  0.00     0.186 HD
HETATM    4  N2  UNL     1      12.061  15.999   0.728  1.00  0.00    -0.297 N 
HETATM    5  C9  UNL     1      13.310  16.547   1.276  1.00  0.00     0.150 C 
HETATM    6  C10 UNL     1      12.911  16.692   2.726  1.00  0.00     0.076 C 
ENDROOT
BRANCH   4   7
HETATM    7  C7  UNL     1      11.547  16.191  -0.599  1.00  0.00     0.294 C 
HETATM    8  C8  UNL     1      11.242  17.662  -0.834  1.00  0.00     0.064 C 
BRANCH   7   9
HETATM    9  N3  UNL     1      10.326  15.452  -0.843  1.00  0.00    -0.057 N 
ATOM     10  H33 UNL     1      10.524  14.559  -1.293  1.00  0.00     0.276 HD
ATOM     11  H32 UNL     1       9.923  15.114   0.031  1.00  0.00     0.276 HD
ATOM     12  H31 UNL     1       9.639  15.986  -1.377  1.00  0.00     0.276 HD
ENDBRANCH   7   9
ENDBRANCH   4   7
BRANCH   1  13
HETATM   13  C5  UNL     1      11.484  14.976   4.194  1.00  0.00     0.148 C 
BRANCH  13  14
HETATM   14  C4  UNL     1      10.033  15.050   4.331  1.00  0.00    -0.096 C 
HETATM   15  C3  UNL     1       8.834  15.131   4.436  1.00  0.00    -0.079 C 
BRANCH  15  16
HETATM   16  C2  UNL     1       7.394  15.252   4.553  1.00  0.00     0.054 C 
HETATM   17  C1  UNL     1       6.657  15.466   3.491  1.00  0.00     0.020 C 
ENDBRANCH  15  16
ENDBRANCH  13  14
ENDBRANCH   1  13
TORSDOF 5
ENDMDL
MODEL 4
REMARK VINA RESULT: -5.563285807      1.313      2.346
REMARK  5 active torsions:
REMARK  status: ('A' for Active; 'I' for Inactive)
REMARK    1  A    between atoms: C2_2  and  C3_3 
REMARK    2  A    between atoms: C4_4  and  C5_5 
REMARK    3  A    between atoms: C5_5  and  C6_6 
REMARK    4  A    between atoms: N2_9  and  C7_10 
REMARK    5  A    between atoms: C7_10  and  N3_12 
ROOT
HETATM    1  C6  UNL     1       9.990  15.140   2.508  1.00  0.00     0.016 C 
HETATM    2  N1  UNL     1      10.578  15.488   1.440  1.00  0.00    -0.308 N 
ATOM      3  H1  UNL     1      10.150  15.444   0.516  1.00  0.00     0.186 HD
HETATM    4  N2  UNL     1      11.876  15.937   1.677  1.00  0.00    -0.297 N 
HETATM    5  C9  UNL     1      12.262  15.385   2.983  1.00  0.00     0.150 C 
HETATM    6  C10 UNL     1      10.909  15.344   3.654  1.00  0.00     0.076 C 
ENDROOT
BRANCH   4   7
HETATM    7  C7  UNL     1      12.678  16.769   0.824  1.00  0.00     0.294 C 
HETATM    8  C8  UNL     1      11.988  16.965  -0.516  1.00  0.00     0.064 C 
BRANCH   7   9
HETATM    9  N3  UNL     1      13.986  16.207   0.558  1.00  0.00    -0.057 N 
ATOM     10  H33 UNL     1      14.108  15.320   1.045  1.00  0.00     0.276 HD
ATOM     11  H32 UNL     1      14.053  15.879  -0.406  1.00  0.00     0.276 HD
ATOM     12  H31 UNL     1      14.747  16.851   0.776  1.00  0.00     0.276 HD
ENDBRANCH   7   9
ENDBRANCH   4   7
BRANCH   1  13
HETATM   13  C5  UNL     1       8.582  14.613   2.564  1.00  0.00     0.148 C 
BRANCH  13  14
HETATM   14  C4  UNL     1       8.168  14.408   3.948  1.00  0.00    -0.096 C 
HETATM   15  C3  UNL     1       7.836  14.221   5.093  1.00  0.00    -0.079 C 
BRANCH  15  16
HETATM   16  C2  UNL     1       7.451  13.975   6.468  1.00  0.00     0.054 C 
HETATM   17  C1  UNL     1       6.236  13.579   6.758  1.00  0.00     0.020 C 
ENDBRANCH  15  16
ENDBRANCH  13  14
ENDBRANCH   1  13
TORSDOF 5
ENDMDL
MODEL 5
REMARK VINA RESULT: -5.526794837      1.727      5.049
REMARK  5 active torsions:
REMARK  status: ('A' for Active; 'I' for Inactive)
REMARK    1  A    between atoms: C2_2  and  C3_3 
REMARK    2  A    between atoms: C4_4  and  C5_5 
REMARK    3  A    between atoms: C5_5  and  C6_6 
REMARK    4  A    between atoms: N2_9  and  C7_10 
REMARK    5  A    between atoms: C7_10  and  N3_12 
ROOT
HETATM    1  C6  UNL     1       9.734  15.355   0.658  1.00  0.00     0.016 C 
HETATM    2  N1  UNL     1       9.790  15.021   1.879  1.00  0.00    -0.308 N 
ATOM      3  H1  UNL     1      10.633  15.092   2.450  1.00  0.00     0.186 HD
HETATM    4  N2  UNL     1       8.568  14.547   2.352  1.00  0.00    -0.297 N 
HETATM    5  C9  UNL     1       7.806  14.140   1.162  1.00  0.00     0.150 C 
HETATM    6  C10 UNL     1       8.358  15.123   0.156  1.00  0.00     0.076 C 
ENDROOT
BRANCH   4   7
HETATM    7  C7  UNL     1       8.134  14.469   3.719  1.00  0.00     0.294 C 
HETATM    8  C8  UNL     1       6.933  15.375   3.939  1.00  0.00     0.064 C 
BRANCH   7   9
HETATM    9  N3  UNL     1       9.158  14.874   4.659  1.00  0.00    -0.057 N 
ATOM     10  H33 UNL     1       9.760  15.592   4.256  1.00  0.00     0.276 HD
ATOM     11  H32 UNL     1       8.756  15.408   5.430  1.00  0.00     0.276 HD
ATOM     12  H31 UNL     1       9.709  14.089   5.008  1.00  0.00     0.276 HD
ENDBRANCH   7   9
ENDBRANCH   4   7
BRANCH   1  13
HETATM   13  C5  UNL     1      10.899  15.899  -0.123  1.00  0.00     0.148 C 
BRANCH  13  14
HETATM   14  C4  UNL     1      12.013  16.206   0.768  1.00  0.00    -0.096 C 
HETATM   15  C3  UNL     1      12.922  16.455   1.522  1.00  0.00    -0.079 C 
BRANCH  15  16
HETATM   16  C2  UNL     1      13.998  16.748   2.447  1.00  0.00     0.054 C 
HETATM   17  C1  UNL     1      14.050  17.904   3.062  1.00  0.00     0.020 C 
ENDBRANCH  15  16
ENDBRANCH  13  14
ENDBRANCH   1  13
TORSDOF 5
ENDMDL
