MODEL 1
REMARK VINA RESULT: -7.029655644      0.000      0.000
REMARK  13 active torsions:
REMARK  status: ('A' for Active; 'I' for Inactive)
REMARK    1  A    between atoms: C2_2  and  C3_3 
REMARK    2  A    between atoms: C2_2  and  C4_6 
REMARK    3  A    between atoms: C3_3  and  O1_4 
REMARK    4  A    between atoms: C4_6  and  O2_7 
REMARK    5  A    between atoms: C4_6  and  C5_9 
REMARK    6  A    between atoms: C5_9  and  C6_10 
REMARK    7  A    between atoms: C6_10  and  C7_11 
REMARK    8  A    between atoms: C19_26  and  O6_27 
REMARK    9  A    between atoms: O6_27  and  C20_28 
REMARK   10  A    between atoms: C20_28  and  C21_29 
REMARK   11  A    between atoms: C21_29  and  C22_30 
REMARK   12  A    between atoms: C22_30  and  C23_31 
REMARK   13  A    between atoms: C23_31  and  S1_32 
ROOT
HETATM    1  C7  UNL     1      -2.658   4.279  21.527  1.00  0.00     0.028 C 
HETATM    2  C8  UNL     1      -1.334   4.981  21.258  1.00  0.00     0.024 C 
HETATM    3  C9  UNL     1      -3.114   4.741  22.847  1.00  0.00     0.139 C 
HETATM    4  O3  UNL     1      -2.737   5.767  23.330  1.00  0.00    -0.297 OA
HETATM    5  C10 UNL     1      -4.075   3.863  23.562  1.00  0.00     0.106 C 
HETATM    6  C11 UNL     1      -3.313   2.568  23.671  1.00  0.00    -0.015 C 
HETATM    7  C12 UNL     1      -2.612   2.090  22.675  1.00  0.00    -0.061 C 
HETATM    8  C13 UNL     1      -1.879   0.791  22.869  1.00  0.00     0.103 C 
HETATM    9  C14 UNL     1      -1.688   0.321  24.221  1.00  0.00     0.158 C 
HETATM   10  O4  UNL     1      -2.658  -0.115  24.944  1.00  0.00    -0.292 OA
HETATM   11  C15 UNL     1      -0.397   0.272  24.943  1.00  0.00     0.054 C 
HETATM   12  C16 UNL     1       0.709   0.171  24.219  1.00  0.00     0.054 C 
HETATM   13  C17 UNL     1       0.496   0.125  22.752  1.00  0.00     0.157 C 
HETATM   14  O5  UNL     1       1.213  -0.688  22.099  1.00  0.00    -0.293 OA
HETATM   15  C18 UNL     1      -0.513   1.022  22.230  1.00  0.00     0.104 C 
HETATM   16  C19 UNL     1      -0.761   1.055  20.771  1.00  0.00     0.135 C 
HETATM   17  C24 UNL     1      -1.400   2.399  20.483  1.00  0.00     0.047 C 
HETATM   18  C25 UNL     1      -2.544   2.790  21.373  1.00  0.00    -0.004 C 
HETATM   19  C26 UNL     1      -3.793   2.333  20.576  1.00  0.00     0.021 C 
ENDROOT
BRANCH   1  20
HETATM   20  C6  UNL     1      -3.637   4.848  20.492  1.00  0.00     0.020 C 
BRANCH  20  21
HETATM   21  C5  UNL     1      -3.006   5.977  19.754  1.00  0.00     0.033 C 
BRANCH  21  22
HETATM   22  C4  UNL     1      -3.824   7.249  19.935  1.00  0.00     0.124 C 
BRANCH  22  23
HETATM   23  C2  UNL     1      -2.885   8.432  19.941  1.00  0.00     0.034 C 
HETATM   24  C1  UNL     1      -1.769   8.312  18.952  1.00  0.00     0.015 C 
BRANCH  23  25
HETATM   25  C3  UNL     1      -3.639   9.720  19.614  1.00  0.00     0.170 C 
BRANCH  25  26
HETATM   26  O1  UNL     1      -4.890   9.420  19.135  1.00  0.00    -0.400 OA
ATOM     27  H1  UNL     1      -4.830   9.123  18.235  1.00  0.00     0.209 HD
ENDBRANCH  25  26
ENDBRANCH  23  25
ENDBRANCH  22  23
BRANCH  22  28
HETATM   28  O2  UNL     1      -4.518   7.260  21.141  1.00  0.00    -0.395 OA
ATOM     29  H2  UNL     1      -4.949   6.418  21.231  1.00  0.00     0.210 HD
ENDBRANCH  22  28
ENDBRANCH  21  22
ENDBRANCH  20  21
ENDBRANCH   1  20
BRANCH  16  30
HETATM   30  O6  UNL     1      -1.537   0.014  20.272  1.00  0.00    -0.385 OA
BRANCH  30  31
HETATM   31  C20 UNL     1      -1.303  -0.193  18.935  1.00  0.00     0.168 C 
BRANCH  31  32
HETATM   32  C21 UNL     1      -0.317  -1.337  18.703  1.00  0.00     0.027 C 
BRANCH  32  33
HETATM   33  C22 UNL     1       0.349  -1.136  17.384  1.00  0.00     0.020 C 
BRANCH  33  34
HETATM   34  C23 UNL     1       0.086  -2.116  16.315  1.00  0.00     0.165 C 
BRANCH  34  35
HETATM   35  S1  UNL     1      -0.801  -1.430  14.954  1.00  0.00     0.101 S 
HETATM   36  O7  UNL     1       0.112  -1.006  13.851  1.00  0.00    -0.595 OA
HETATM   37  O8  UNL     1      -1.624  -0.261  15.478  1.00  0.00    -0.595 OA
HETATM   38  O9  UNL     1      -1.879  -2.623  14.394  1.00  0.00    -0.595 OA
ENDBRANCH  34  35
ENDBRANCH  33  34
ENDBRANCH  32  33
ENDBRANCH  31  32
ENDBRANCH  30  31
ENDBRANCH  16  30
TORSDOF 13
ENDMDL
MODEL 2
REMARK VINA RESULT: -6.772025683      3.912      5.557
REMARK  13 active torsions:
REMARK  status: ('A' for Active; 'I' for Inactive)
REMARK    1  A    between atoms: C2_2  and  C3_3 
REMARK    2  A    between atoms: C2_2  and  C4_6 
REMARK    3  A    between atoms: C3_3  and  O1_4 
REMARK    4  A    between atoms: C4_6  and  O2_7 
REMARK    5  A    between atoms: C4_6  and  C5_9 
REMARK    6  A    between atoms: C5_9  and  C6_10 
REMARK    7  A    between atoms: C6_10  and  C7_11 
REMARK    8  A    between atoms: C19_26  and  O6_27 
REMARK    9  A    between atoms: O6_27  and  C20_28 
REMARK   10  A    between atoms: C20_28  and  C21_29 
REMARK   11  A    between atoms: C21_29  and  C22_30 
REMARK   12  A    between atoms: C22_30  and  C23_31 
REMARK   13  A    between atoms: C23_31  and  S1_32 
ROOT
HETATM    1  C7  UNL     1      -2.106   4.108  21.867  1.00  0.00     0.028 C 
HETATM    2  C8  UNL     1      -2.601   3.364  20.634  1.00  0.00     0.024 C 
HETATM    3  C9  UNL     1      -0.675   3.793  21.997  1.00  0.00     0.139 C 
HETATM    4  O3  UNL     1      -0.016   3.424  21.070  1.00  0.00    -0.297 OA
HETATM    5  C10 UNL     1      -0.078   3.954  23.347  1.00  0.00     0.106 C 
HETATM    6  C11 UNL     1      -0.919   3.026  24.186  1.00  0.00    -0.015 C 
HETATM    7  C12 UNL     1      -2.218   2.957  24.052  1.00  0.00    -0.061 C 
HETATM    8  C13 UNL     1      -2.981   2.002  24.929  1.00  0.00     0.103 C 
HETATM    9  C14 UNL     1      -2.235   0.969  25.609  1.00  0.00     0.158 C 
HETATM   10  O4  UNL     1      -1.432   1.223  26.580  1.00  0.00    -0.292 OA
HETATM   11  C15 UNL     1      -2.287  -0.478  25.300  1.00  0.00     0.054 C 
HETATM   12  C16 UNL     1      -3.392  -0.947  24.739  1.00  0.00     0.054 C 
HETATM   13  C17 UNL     1      -4.447   0.064  24.489  1.00  0.00     0.157 C 
HETATM   14  O5  UNL     1      -5.639  -0.286  24.730  1.00  0.00    -0.293 OA
HETATM   15  C18 UNL     1      -3.992   1.346  23.993  1.00  0.00     0.104 C 
HETATM   16  C19 UNL     1      -4.988   2.396  23.690  1.00  0.00     0.135 C 
HETATM   17  C24 UNL     1      -4.321   3.341  22.711  1.00  0.00     0.047 C 
HETATM   18  C25 UNL     1      -2.941   3.803  23.077  1.00  0.00    -0.004 C 
HETATM   19  C26 UNL     1      -3.192   5.158  23.790  1.00  0.00     0.021 C 
ENDROOT
BRANCH   1  20
HETATM   20  C6  UNL     1      -2.204   5.596  21.512  1.00  0.00     0.020 C 
BRANCH  20  21
HETATM   21  C5  UNL     1      -2.735   5.760  20.130  1.00  0.00     0.033 C 
BRANCH  21  22
HETATM   22  C4  UNL     1      -3.636   6.986  20.053  1.00  0.00     0.124 C 
BRANCH  22  23
HETATM   23  C2  UNL     1      -2.768   8.222  20.011  1.00  0.00     0.034 C 
HETATM   24  C1  UNL     1      -1.764   8.208  18.902  1.00  0.00     0.015 C 
BRANCH  23  25
HETATM   25  C3  UNL     1      -3.624   9.474  19.827  1.00  0.00     0.170 C 
BRANCH  25  26
HETATM   26  O1  UNL     1      -4.752   9.168  19.108  1.00  0.00    -0.400 OA
ATOM     27  H1  UNL     1      -5.416   8.807  19.684  1.00  0.00     0.209 HD
ENDBRANCH  25  26
ENDBRANCH  23  25
ENDBRANCH  22  23
BRANCH  22  28
HETATM   28  O2  UNL     1      -4.468   7.097  21.162  1.00  0.00    -0.395 OA
ATOM     29  H2  UNL     1      -5.277   6.641  20.959  1.00  0.00     0.210 HD
ENDBRANCH  22  28
ENDBRANCH  21  22
ENDBRANCH  20  21
ENDBRANCH   1  20
BRANCH  16  30
HETATM   30  O6  UNL     1      -5.485   3.085  24.792  1.00  0.00    -0.385 OA
BRANCH  30  31
HETATM   31  C20 UNL     1      -6.585   3.837  24.462  1.00  0.00     0.168 C 
BRANCH  31  32
HETATM   32  C21 UNL     1      -7.724   2.971  23.923  1.00  0.00     0.027 C 
BRANCH  32  33
HETATM   33  C22 UNL     1      -8.311   3.640  22.727  1.00  0.00     0.020 C 
BRANCH  33  34
HETATM   34  C23 UNL     1      -8.441   2.858  21.485  1.00  0.00     0.165 C 
BRANCH  34  35
HETATM   35  S1  UNL     1      -7.404   3.447  20.187  1.00  0.00     0.101 S 
HETATM   36  O7  UNL     1      -8.184   3.775  18.956  1.00  0.00    -0.595 OA
HETATM   37  O8  UNL     1      -6.352   2.380  19.914  1.00  0.00    -0.595 OA
HETATM   38  O9  UNL     1      -6.607   4.837  20.761  1.00  0.00    -0.595 OA
ENDBRANCH  34  35
ENDBRANCH  33  34
ENDBRANCH  32  33
ENDBRANCH  31  32
ENDBRANCH  30  31
ENDBRANCH  16  30
TORSDOF 13
ENDMDL
MODEL 3
REMARK VINA RESULT: -6.708544787      2.109      2.494
REMARK  13 active torsions:
REMARK  status: ('A' for Active; 'I' for Inactive)
REMARK    1  A    between atoms: C2_2  and  C3_3 
REMARK    2  A    between atoms: C2_2  and  C4_6 
REMARK    3  A    between atoms: C3_3  and  O1_4 
REMARK    4  A    between atoms: C4_6  and  O2_7 
REMARK    5  A    between atoms: C4_6  and  C5_9 
REMARK    6  A    between atoms: C5_9  and  C6_10 
REMARK    7  A    between atoms: C6_10  and  C7_11 
REMARK    8  A    between atoms: C19_26  and  O6_27 
REMARK    9  A    between atoms: O6_27  and  C20_28 
REMARK   10  A    between atoms: C20_28  and  C21_29 
REMARK   11  A    between atoms: C21_29  and  C22_30 
REMARK   12  A    between atoms: C22_30  and  C23_31 
REMARK   13  A    between atoms: C23_31  and  S1_32 
ROOT
HETATM    1  C7  UNL     1      -2.610   4.164  21.583  1.00  0.00     0.028 C 
HETATM    2  C8  UNL     1      -1.294   4.910  21.405  1.00  0.00     0.024 C 
HETATM    3  C9  UNL     1      -3.148   4.574  22.889  1.00  0.00     0.139 C 
HETATM    4  O3  UNL     1      -2.826   5.596  23.420  1.00  0.00    -0.297 OA
HETATM    5  C10 UNL     1      -4.120   3.650  23.527  1.00  0.00     0.106 C 
HETATM    6  C11 UNL     1      -3.328   2.373  23.640  1.00  0.00    -0.015 C 
HETATM    7  C12 UNL     1      -2.561   1.945  22.670  1.00  0.00    -0.061 C 
HETATM    8  C13 UNL     1      -1.803   0.661  22.866  1.00  0.00     0.103 C 
HETATM    9  C14 UNL     1      -1.670   0.157  24.214  1.00  0.00     0.158 C 
HETATM   10  O4  UNL     1      -2.664  -0.327  24.871  1.00  0.00    -0.292 OA
HETATM   11  C15 UNL     1      -0.418   0.121  25.002  1.00  0.00     0.054 C 
HETATM   12  C16 UNL     1       0.727   0.072  24.335  1.00  0.00     0.054 C 
HETATM   13  C17 UNL     1       0.593   0.064  22.858  1.00  0.00     0.157 C 
HETATM   14  O5  UNL     1       1.366  -0.710  22.222  1.00  0.00    -0.293 OA
HETATM   15  C18 UNL     1      -0.413   0.948  22.308  1.00  0.00     0.104 C 
HETATM   16  C19 UNL     1      -0.584   1.017  20.840  1.00  0.00     0.135 C 
HETATM   17  C24 UNL     1      -1.246   2.351  20.555  1.00  0.00     0.047 C 
HETATM   18  C25 UNL     1      -2.445   2.684  21.394  1.00  0.00    -0.004 C 
HETATM   19  C26 UNL     1      -3.637   2.217  20.518  1.00  0.00     0.021 C 
ENDROOT
BRANCH   1  20
HETATM   20  C6  UNL     1      -3.549   4.737  20.514  1.00  0.00     0.020 C 
BRANCH  20  21
HETATM   21  C5  UNL     1      -2.906   5.894  19.832  1.00  0.00     0.033 C 
BRANCH  21  22
HETATM   22  C4  UNL     1      -3.764   7.143  19.991  1.00  0.00     0.124 C 
BRANCH  22  23
HETATM   23  C2  UNL     1      -2.861   8.354  19.986  1.00  0.00     0.034 C 
HETATM   24  C1  UNL     1      -1.810   8.309  18.922  1.00  0.00     0.015 C 
BRANCH  23  25
HETATM   25  C3  UNL     1      -3.672   9.630  19.764  1.00  0.00     0.170 C 
BRANCH  25  26
HETATM   26  O1  UNL     1      -4.861   9.326  19.147  1.00  0.00    -0.400 OA
ATOM     27  H1  UNL     1      -5.207   8.513  19.495  1.00  0.00     0.209 HD
ENDBRANCH  25  26
ENDBRANCH  23  25
ENDBRANCH  22  23
BRANCH  22  28
HETATM   28  O2  UNL     1      -4.465   7.149  21.193  1.00  0.00    -0.395 OA
ATOM     29  H2  UNL     1      -4.714   6.252  21.383  1.00  0.00     0.210 HD
ENDBRANCH  22  28
ENDBRANCH  21  22
ENDBRANCH  20  21
ENDBRANCH   1  20
BRANCH  16  30
HETATM   30  O6  UNL     1      -1.302  -0.030  20.272  1.00  0.00    -0.385 OA
BRANCH  30  31
HETATM   31  C20 UNL     1      -0.926  -0.251  18.970  1.00  0.00     0.168 C 
BRANCH  31  32
HETATM   32  C21 UNL     1       0.591  -0.177  18.798  1.00  0.00     0.027 C 
BRANCH  32  33
HETATM   33  C22 UNL     1       1.133  -1.563  18.717  1.00  0.00     0.020 C 
BRANCH  33  34
HETATM   34  C23 UNL     1       2.552  -1.737  18.361  1.00  0.00     0.165 C 
BRANCH  34  35
HETATM   35  S1  UNL     1       3.371  -2.938  19.358  1.00  0.00     0.101 S 
HETATM   36  O7  UNL     1       2.556  -3.325  20.548  1.00  0.00    -0.595 OA
HETATM   37  O8  UNL     1       4.719  -2.359  19.769  1.00  0.00    -0.595 OA
HETATM   38  O9  UNL     1       3.661  -4.302  18.380  1.00  0.00    -0.595 OA
ENDBRANCH  34  35
ENDBRANCH  33  34
ENDBRANCH  32  33
ENDBRANCH  31  32
ENDBRANCH  30  31
ENDBRANCH  16  30
TORSDOF 13
ENDMDL
MODEL 4
REMARK VINA RESULT: -6.675480885      2.935      7.457
REMARK  13 active torsions:
REMARK  status: ('A' for Active; 'I' for Inactive)
REMARK    1  A    between atoms: C2_2  and  C3_3 
REMARK    2  A    between atoms: C2_2  and  C4_6 
REMARK    3  A    between atoms: C3_3  and  O1_4 
REMARK    4  A    between atoms: C4_6  and  O2_7 
REMARK    5  A    between atoms: C4_6  and  C5_9 
REMARK    6  A    between atoms: C5_9  and  C6_10 
REMARK    7  A    between atoms: C6_10  and  C7_11 
REMARK    8  A    between atoms: C19_26  and  O6_27 
REMARK    9  A    between atoms: O6_27  and  C20_28 
REMARK   10  A    between atoms: C20_28  and  C21_29 
REMARK   11  A    between atoms: C21_29  and  C22_30 
REMARK   12  A    between atoms: C22_30  and  C23_31 
REMARK   13  A    between atoms: C23_31  and  S1_32 
ROOT
HETATM    1  C7  UNL     1      -1.080   2.221  22.511  1.00  0.00     0.028 C 
HETATM    2  C8  UNL     1      -1.850   0.913  22.392  1.00  0.00     0.024 C 
HETATM    3  C9  UNL     1      -0.163   2.061  23.650  1.00  0.00     0.139 C 
HETATM    4  O3  UNL     1       0.183   0.987  24.046  1.00  0.00    -0.297 OA
HETATM    5  C10 UNL     1       0.319   3.309  24.295  1.00  0.00     0.106 C 
HETATM    6  C11 UNL     1      -0.966   3.973  24.719  1.00  0.00    -0.015 C 
HETATM    7  C12 UNL     1      -2.019   4.005  23.943  1.00  0.00    -0.061 C 
HETATM    8  C13 UNL     1      -3.262   4.686  24.444  1.00  0.00     0.103 C 
HETATM    9  C14 UNL     1      -3.360   4.950  25.861  1.00  0.00     0.158 C 
HETATM   10  O4  UNL     1      -2.635   5.834  26.450  1.00  0.00    -0.292 OA
HETATM   11  C15 UNL     1      -4.277   4.271  26.804  1.00  0.00     0.054 C 
HETATM   12  C16 UNL     1      -5.397   3.762  26.312  1.00  0.00     0.054 C 
HETATM   13  C17 UNL     1      -5.581   3.943  24.852  1.00  0.00     0.157 C 
HETATM   14  O5  UNL     1      -6.747   4.242  24.459  1.00  0.00    -0.293 OA
HETATM   15  C18 UNL     1      -4.400   3.756  24.036  1.00  0.00     0.104 C 
HETATM   16  C19 UNL     1      -4.511   3.890  22.567  1.00  0.00     0.135 C 
HETATM   17  C24 UNL     1      -3.342   3.122  21.984  1.00  0.00     0.047 C 
HETATM   18  C25 UNL     1      -1.999   3.406  22.590  1.00  0.00    -0.004 C 
HETATM   19  C26 UNL     1      -1.402   4.487  21.651  1.00  0.00     0.021 C 
ENDROOT
BRANCH   1  20
HETATM   20  C6  UNL     1      -0.214   2.300  21.248  1.00  0.00     0.020 C 
BRANCH  20  21
HETATM   21  C5  UNL     1      -0.165   0.973  20.575  1.00  0.00     0.033 C 
BRANCH  21  22
HETATM   22  C4  UNL     1      -0.649   1.094  19.135  1.00  0.00     0.124 C 
BRANCH  22  23
HETATM   23  C2  UNL     1      -0.718  -0.289  18.531  1.00  0.00     0.034 C 
HETATM   24  C1  UNL     1      -0.938  -0.283  17.051  1.00  0.00     0.015 C 
BRANCH  23  25
HETATM   25  C3  UNL     1       0.578  -1.055  18.790  1.00  0.00     0.170 C 
BRANCH  25  26
HETATM   26  O1  UNL     1       1.520  -0.710  17.852  1.00  0.00    -0.400 OA
ATOM     27  H1  UNL     1       2.392  -0.818  18.214  1.00  0.00     0.209 HD
ENDBRANCH  25  26
ENDBRANCH  23  25
ENDBRANCH  22  23
BRANCH  22  28
HETATM   28  O2  UNL     1       0.217   1.850  18.352  1.00  0.00    -0.395 OA
ATOM     29  H2  UNL     1       1.072   1.437  18.392  1.00  0.00     0.210 HD
ENDBRANCH  22  28
ENDBRANCH  21  22
ENDBRANCH  20  21
ENDBRANCH   1  20
BRANCH  16  30
HETATM   30  O6  UNL     1      -4.544   5.195  22.086  1.00  0.00    -0.385 OA
BRANCH  30  31
HETATM   31  C20 UNL     1      -5.029   5.247  20.803  1.00  0.00     0.168 C 
BRANCH  31  32
HETATM   32  C21 UNL     1      -4.122   6.068  19.887  1.00  0.00     0.027 C 
BRANCH  32  33
HETATM   33  C22 UNL     1      -3.685   7.293  20.616  1.00  0.00     0.020 C 
BRANCH  33  34
HETATM   34  C23 UNL     1      -3.381   8.501  19.829  1.00  0.00     0.165 C 
BRANCH  34  35
HETATM   35  S1  UNL     1      -1.684   8.615  19.367  1.00  0.00     0.101 S 
HETATM   36  O7  UNL     1      -1.484   8.350  17.910  1.00  0.00    -0.595 OA
HETATM   37  O8  UNL     1      -0.903   7.629  20.226  1.00  0.00    -0.595 OA
HETATM   38  O9  UNL     1      -1.153  10.185  19.754  1.00  0.00    -0.595 OA
ENDBRANCH  34  35
ENDBRANCH  33  34
ENDBRANCH  32  33
ENDBRANCH  31  32
ENDBRANCH  30  31
ENDBRANCH  16  30
TORSDOF 13
ENDMDL
MODEL 5
REMARK VINA RESULT: -6.627121120      3.997      5.520
REMARK  13 active torsions:
REMARK  status: ('A' for Active; 'I' for Inactive)
REMARK    1  A    between atoms: C2_2  and  C3_3 
REMARK    2  A    between atoms: C2_2  and  C4_6 
REMARK    3  A    between atoms: C3_3  and  O1_4 
REMARK    4  A    between atoms: C4_6  and  O2_7 
REMARK    5  A    between atoms: C4_6  and  C5_9 
REMARK    6  A    between atoms: C5_9  and  C6_10 
REMARK    7  A    between atoms: C6_10  and  C7_11 
REMARK    8  A    between atoms: C19_26  and  O6_27 
REMARK    9  A    between atoms: O6_27  and  C20_28 
REMARK   10  A    between atoms: C20_28  and  C21_29 
REMARK   11  A    between atoms: C21_29  and  C22_30 
REMARK   12  A    between atoms: C22_30  and  C23_31 
REMARK   13  A    between atoms: C23_31  and  S1_32 
ROOT
HETATM    1  C7  UNL     1      -2.398   3.959  21.757  1.00  0.00     0.028 C 
HETATM    2  C8  UNL     1      -1.835   3.734  20.360  1.00  0.00     0.024 C 
HETATM    3  C9  UNL     1      -1.311   3.651  22.699  1.00  0.00     0.139 C 
HETATM    4  O3  UNL     1      -0.160   3.681  22.376  1.00  0.00    -0.297 OA
HETATM    5  C10 UNL     1      -1.712   3.296  24.083  1.00  0.00     0.106 C 
HETATM    6  C11 UNL     1      -2.602   2.098  23.867  1.00  0.00    -0.015 C 
HETATM    7  C12 UNL     1      -3.484   2.056  22.902  1.00  0.00    -0.061 C 
HETATM    8  C13 UNL     1      -4.330   0.821  22.755  1.00  0.00     0.103 C 
HETATM    9  C14 UNL     1      -3.898  -0.377  23.437  1.00  0.00     0.158 C 
HETATM   10  O4  UNL     1      -3.940  -0.496  24.717  1.00  0.00    -0.292 OA
HETATM   11  C15 UNL     1      -3.366  -1.595  22.787  1.00  0.00     0.054 C 
HETATM   12  C16 UNL     1      -3.739  -1.839  21.539  1.00  0.00     0.054 C 
HETATM   13  C17 UNL     1      -4.656  -0.832  20.950  1.00  0.00     0.157 C 
HETATM   14  O5  UNL     1      -5.607  -1.275  20.242  1.00  0.00    -0.293 OA
HETATM   15  C18 UNL     1      -4.357   0.551  21.254  1.00  0.00     0.104 C 
HETATM   16  C19 UNL     1      -5.209   1.614  20.678  1.00  0.00     0.135 C 
HETATM   17  C24 UNL     1      -4.372   2.878  20.687  1.00  0.00     0.047 C 
HETATM   18  C25 UNL     1      -3.672   3.195  21.977  1.00  0.00    -0.004 C 
HETATM   19  C26 UNL     1      -4.650   4.166  22.687  1.00  0.00     0.021 C 
ENDROOT
BRANCH   1  20
HETATM   20  C6  UNL     1      -2.658   5.468  21.853  1.00  0.00     0.020 C 
BRANCH  20  21
HETATM   21  C5  UNL     1      -2.337   6.127  20.557  1.00  0.00     0.033 C 
BRANCH  21  22
HETATM   22  C4  UNL     1      -3.449   7.093  20.168  1.00  0.00     0.124 C 
BRANCH  22  23
HETATM   23  C2  UNL     1      -2.848   8.463  19.958  1.00  0.00     0.034 C 
HETATM   24  C1  UNL     1      -1.796   8.496  18.896  1.00  0.00     0.015 C 
BRANCH  23  25
HETATM   25  C3  UNL     1      -3.927   9.467  19.554  1.00  0.00     0.170 C 
BRANCH  25  26
HETATM   26  O1  UNL     1      -3.346  10.566  18.970  1.00  0.00    -0.400 OA
ATOM     27  H1  UNL     1      -3.967  11.286  18.947  1.00  0.00     0.209 HD
ENDBRANCH  25  26
ENDBRANCH  23  25
ENDBRANCH  22  23
BRANCH  22  28
HETATM   28  O2  UNL     1      -4.417   7.208  21.161  1.00  0.00    -0.395 OA
ATOM     29  H2  UNL     1      -4.907   6.394  21.178  1.00  0.00     0.210 HD
ENDBRANCH  22  28
ENDBRANCH  21  22
ENDBRANCH  20  21
ENDBRANCH   1  20
BRANCH  16  30
HETATM   30  O6  UNL     1      -6.428   1.817  21.317  1.00  0.00    -0.385 OA
BRANCH  30  31
HETATM   31  C20 UNL     1      -7.445   2.010  20.414  1.00  0.00     0.168 C 
BRANCH  31  32
HETATM   32  C21 UNL     1      -8.318   3.206  20.792  1.00  0.00     0.027 C 
BRANCH  32  33
HETATM   33  C22 UNL     1      -8.816   3.849  19.542  1.00  0.00     0.020 C 
BRANCH  33  34
HETATM   34  C23 UNL     1     -10.193   3.554  19.108  1.00  0.00     0.165 C 
BRANCH  34  35
HETATM   35  S1  UNL     1     -10.262   2.704  17.565  1.00  0.00     0.101 S 
HETATM   36  O7  UNL     1      -9.618   1.359  17.640  1.00  0.00    -0.595 OA
HETATM   37  O8  UNL     1      -9.592   3.586  16.519  1.00  0.00    -0.595 OA
HETATM   38  O9  UNL     1     -11.904   2.543  17.143  1.00  0.00    -0.595 OA
ENDBRANCH  34  35
ENDBRANCH  33  34
ENDBRANCH  32  33
ENDBRANCH  31  32
ENDBRANCH  30  31
ENDBRANCH  16  30
TORSDOF 13
ENDMDL
