MODEL 1
REMARK VINA RESULT: -6.970655774      0.000      0.000
REMARK  6 active torsions:
REMARK  status: ('A' for Active; 'I' for Inactive)
REMARK       I    between atoms: N1_2  and  C2_4 
REMARK    1  A    between atoms: C2_4  and  C3_6 
REMARK    2  A    between atoms: C3_6  and  C5_8 
REMARK       I    between atoms: C5_8  and  N2_10 
REMARK    3  A    between atoms: N2_10  and  C6_12 
REMARK    4  A    between atoms: C7_15  and  C8_16 
REMARK    5  A    between atoms: C8_16  and  C9_17 
REMARK    6  A    between atoms: C12_22  and  C13_23 
ROOT
HETATM    1  C6  UNL     1      13.848 -11.684  18.963  1.00  0.00     0.132 A 
HETATM    2  N3  UNL     1      13.365 -10.710  19.739  1.00  0.00    -0.343 N 
ATOM      3  H3  UNL     1      13.507  -9.739  19.462  1.00  0.00     0.167 HD
HETATM    4  C7  UNL     1      12.686 -10.981  20.894  1.00  0.00     0.027 A 
HETATM    5  C10 UNL     1      12.488 -12.288  21.281  1.00  0.00     0.115 A 
HETATM    6  N4  UNL     1      12.964 -13.285  20.516  1.00  0.00    -0.359 N 
HETATM    7  C11 UNL     1      12.761 -14.672  20.916  1.00  0.00     0.155 C 
HETATM    8  C12 UNL     1      13.623 -12.999  19.394  1.00  0.00     0.065 A 
ENDROOT
BRANCH   1   9
HETATM    9  N2  UNL     1      14.470 -11.535  17.890  1.00  0.00    -0.311 N 
HETATM   10  C5  UNL     1      15.788 -11.255  17.580  1.00  0.00     0.236 C 
HETATM   11  O2  UNL     1      16.634 -10.807  18.388  1.00  0.00    -0.272 OA
ATOM     12  H2  UNL     1      13.879 -11.642  17.066  1.00  0.00     0.170 HD
BRANCH  10  13
HETATM   13  C3  UNL     1      16.249 -11.497  16.185  1.00  0.00     0.166 C 
HETATM   14  C4  UNL     1      16.295 -13.001  15.959  1.00  0.00     0.030 C 
BRANCH  13  15
HETATM   15  C2  UNL     1      15.363 -10.910  15.186  1.00  0.00     0.230 C 
HETATM   16  N1  UNL     1      15.265 -11.473  13.898  1.00  0.00    -0.365 N 
HETATM   17  C1  UNL     1      14.397 -10.923  12.872  1.00  0.00     0.149 C 
ATOM     18  H1  UNL     1      15.825 -12.296  13.678  1.00  0.00     0.161 HD
HETATM   19  O1  UNL     1      14.673  -9.899  15.453  1.00  0.00    -0.273 OA
ENDBRANCH  13  15
ENDBRANCH  10  13
ENDBRANCH   1   9
BRANCH   8  20
HETATM   20  C13 UNL     1      14.136 -14.153  18.588  1.00  0.00     0.146 C 
HETATM   21 BR2  UNL     1      15.846 -14.769  19.196  1.00  0.00    -0.090 Br
ENDBRANCH   8  20
BRANCH   4  22
HETATM   22  C8  UNL     1      12.145  -9.904  21.762  1.00  0.00     0.069 C 
BRANCH  22  23
HETATM   23  C9  UNL     1      11.886 -10.365  23.170  1.00  0.00     0.091 C 
HETATM   24 BR1  UNL     1      11.808  -8.753  24.274  1.00  0.00    -0.096 Br
ENDBRANCH  22  23
ENDBRANCH   4  22
TORSDOF 6
ENDMDL
MODEL 2
REMARK VINA RESULT: -6.947999974      4.357      6.884
REMARK  6 active torsions:
REMARK  status: ('A' for Active; 'I' for Inactive)
REMARK       I    between atoms: N1_2  and  C2_4 
REMARK    1  A    between atoms: C2_4  and  C3_6 
REMARK    2  A    between atoms: C3_6  and  C5_8 
REMARK       I    between atoms: C5_8  and  N2_10 
REMARK    3  A    between atoms: N2_10  and  C6_12 
REMARK    4  A    between atoms: C7_15  and  C8_16 
REMARK    5  A    between atoms: C8_16  and  C9_17 
REMARK    6  A    between atoms: C12_22  and  C13_23 
ROOT
HETATM    1  C6  UNL     1      15.311 -12.299  21.436  1.00  0.00     0.132 A 
HETATM    2  N3  UNL     1      16.456 -11.626  21.295  1.00  0.00    -0.343 N 
ATOM      3  H3  UNL     1      16.494 -10.647  21.577  1.00  0.00     0.167 HD
HETATM    4  C7  UNL     1      17.578 -12.215  20.782  1.00  0.00     0.027 A 
HETATM    5  C10 UNL     1      17.541 -13.537  20.395  1.00  0.00     0.115 A 
HETATM    6  N4  UNL     1      16.401 -14.234  20.528  1.00  0.00    -0.359 N 
HETATM    7  C11 UNL     1      16.350 -15.633  20.123  1.00  0.00     0.155 C 
HETATM    8  C12 UNL     1      15.319 -13.641  21.031  1.00  0.00     0.065 A 
ENDROOT
BRANCH   1   9
HETATM    9  N2  UNL     1      14.242 -11.851  21.902  1.00  0.00    -0.311 N 
HETATM   10  C5  UNL     1      13.657 -10.599  21.915  1.00  0.00     0.236 C 
HETATM   11  O2  UNL     1      14.252  -9.526  21.662  1.00  0.00    -0.272 OA
ATOM     12  H2  UNL     1      13.682 -12.560  22.374  1.00  0.00     0.170 HD
BRANCH  10  13
HETATM   13  C3  UNL     1      12.210 -10.502  22.255  1.00  0.00     0.166 C 
HETATM   14  C4  UNL     1      11.661 -11.916  22.381  1.00  0.00     0.030 C 
BRANCH  13  15
HETATM   15  C2  UNL     1      11.969  -9.803  23.512  1.00  0.00     0.230 C 
HETATM   16  N1  UNL     1      12.284  -8.437  23.643  1.00  0.00    -0.365 N 
HETATM   17  C1  UNL     1      12.062  -7.701  24.875  1.00  0.00     0.149 C 
ATOM     18  H1  UNL     1      12.684  -7.946  22.843  1.00  0.00     0.161 HD
HETATM   19  O1  UNL     1      11.477 -10.402  24.497  1.00  0.00    -0.273 OA
ENDBRANCH  13  15
ENDBRANCH  10  13
ENDBRANCH   1   9
BRANCH   8  20
HETATM   20  C13 UNL     1      14.076 -14.469  21.148  1.00  0.00     0.146 C 
HETATM   21 BR2  UNL     1      12.940 -14.306  19.613  1.00  0.00    -0.090 Br
ENDBRANCH   8  20
BRANCH   4  22
HETATM   22  C8  UNL     1      18.855 -11.474  20.622  1.00  0.00     0.069 C 
BRANCH  22  23
HETATM   23  C9  UNL     1      20.035 -12.383  20.411  1.00  0.00     0.091 C 
HETATM   24 BR1  UNL     1      20.595 -12.141  18.554  1.00  0.00    -0.096 Br
ENDBRANCH  22  23
ENDBRANCH   4  22
TORSDOF 6
ENDMDL
MODEL 3
REMARK VINA RESULT: -6.870202769      4.078      5.294
REMARK  6 active torsions:
REMARK  status: ('A' for Active; 'I' for Inactive)
REMARK       I    between atoms: N1_2  and  C2_4 
REMARK    1  A    between atoms: C2_4  and  C3_6 
REMARK    2  A    between atoms: C3_6  and  C5_8 
REMARK       I    between atoms: C5_8  and  N2_10 
REMARK    3  A    between atoms: N2_10  and  C6_12 
REMARK    4  A    between atoms: C7_15  and  C8_16 
REMARK    5  A    between atoms: C8_16  and  C9_17 
REMARK    6  A    between atoms: C12_22  and  C13_23 
ROOT
HETATM    1  C6  UNL     1      15.922 -12.555  20.560  1.00  0.00     0.132 A 
HETATM    2  N3  UNL     1      15.498 -11.442  21.163  1.00  0.00    -0.343 N 
ATOM      3  H3  UNL     1      16.185 -10.786  21.535  1.00  0.00     0.167 HD
HETATM    4  C7  UNL     1      14.168 -11.157  21.295  1.00  0.00     0.027 A 
HETATM    5  C10 UNL     1      13.228 -12.034  20.798  1.00  0.00     0.115 A 
HETATM    6  N4  UNL     1      13.630 -13.160  20.187  1.00  0.00    -0.359 N 
HETATM    7  C11 UNL     1      12.645 -14.095  19.658  1.00  0.00     0.155 C 
HETATM    8  C12 UNL     1      14.932 -13.418  20.069  1.00  0.00     0.065 A 
ENDROOT
BRANCH   1   9
HETATM    9  N2  UNL     1      17.111 -12.894  20.384  1.00  0.00    -0.311 N 
HETATM   10  C5  UNL     1      18.319 -12.228  20.480  1.00  0.00     0.236 C 
HETATM   11  O2  UNL     1      18.449 -10.983  20.517  1.00  0.00    -0.272 OA
ATOM     12  H2  UNL     1      17.213 -13.872  20.111  1.00  0.00     0.170 HD
BRANCH  10  13
HETATM   13  C3  UNL     1      19.566 -13.039  20.542  1.00  0.00     0.166 C 
HETATM   14  C4  UNL     1      20.707 -12.189  20.004  1.00  0.00     0.030 C 
BRANCH  13  15
HETATM   15  C2  UNL     1      19.905 -13.454  21.899  1.00  0.00     0.230 C 
HETATM   16  N1  UNL     1      21.249 -13.642  22.276  1.00  0.00    -0.365 N 
HETATM   17  C1  UNL     1      21.632 -14.055  23.614  1.00  0.00     0.149 C 
ATOM     18  H1  UNL     1      21.980 -13.483  21.583  1.00  0.00     0.161 HD
HETATM   19  O1  UNL     1      19.009 -13.651  22.753  1.00  0.00    -0.273 OA
ENDBRANCH  13  15
ENDBRANCH  10  13
ENDBRANCH   1   9
BRANCH   8  20
HETATM   20  C13 UNL     1      15.318 -14.693  19.384  1.00  0.00     0.146 C 
HETATM   21 BR2  UNL     1      15.520 -14.475  17.491  1.00  0.00    -0.090 Br
ENDBRANCH   8  20
BRANCH   4  22
HETATM   22  C8  UNL     1      13.688  -9.920  21.964  1.00  0.00     0.069 C 
BRANCH  22  23
HETATM   23  C9  UNL     1      12.187  -9.823  22.003  1.00  0.00     0.091 C 
HETATM   24 BR1  UNL     1      11.660 -10.141  23.858  1.00  0.00    -0.096 Br
ENDBRANCH  22  23
ENDBRANCH   4  22
TORSDOF 6
ENDMDL
MODEL 4
REMARK VINA RESULT: -6.849199275      4.104      5.248
REMARK  6 active torsions:
REMARK  status: ('A' for Active; 'I' for Inactive)
REMARK       I    between atoms: N1_2  and  C2_4 
REMARK    1  A    between atoms: C2_4  and  C3_6 
REMARK    2  A    between atoms: C3_6  and  C5_8 
REMARK       I    between atoms: C5_8  and  N2_10 
REMARK    3  A    between atoms: N2_10  and  C6_12 
REMARK    4  A    between atoms: C7_15  and  C8_16 
REMARK    5  A    between atoms: C8_16  and  C9_17 
REMARK    6  A    between atoms: C12_22  and  C13_23 
ROOT
HETATM    1  C6  UNL     1      16.232 -12.719  20.644  1.00  0.00     0.132 A 
HETATM    2  N3  UNL     1      15.714 -11.523  20.935  1.00  0.00    -0.343 N 
ATOM      3  H3  UNL     1      16.272 -10.686  20.766  1.00  0.00     0.167 HD
HETATM    4  C7  UNL     1      14.456 -11.390  21.454  1.00  0.00     0.027 A 
HETATM    5  C10 UNL     1      13.691 -12.512  21.688  1.00  0.00     0.115 A 
HETATM    6  N4  UNL     1      14.191 -13.726  21.403  1.00  0.00    -0.359 N 
HETATM    7  C11 UNL     1      13.391 -14.920  21.646  1.00  0.00     0.155 C 
HETATM    8  C12 UNL     1      15.419 -13.832  20.898  1.00  0.00     0.065 A 
ENDROOT
BRANCH   1   9
HETATM    9  N2  UNL     1      17.363 -12.937  20.160  1.00  0.00    -0.311 N 
HETATM   10  C5  UNL     1      18.572 -12.271  20.220  1.00  0.00     0.236 C 
HETATM   11  O2  UNL     1      18.719 -11.084  20.593  1.00  0.00    -0.272 OA
ATOM     12  H2  UNL     1      17.402 -13.789  19.601  1.00  0.00     0.170 HD
BRANCH  10  13
HETATM   13  C3  UNL     1      19.801 -13.006  19.812  1.00  0.00     0.166 C 
HETATM   14  C4  UNL     1      20.849 -11.982  19.403  1.00  0.00     0.030 C 
BRANCH  13  15
HETATM   15  C2  UNL     1      20.355 -13.824  20.886  1.00  0.00     0.230 C 
HETATM   16  N1  UNL     1      20.597 -13.267  22.157  1.00  0.00    -0.365 N 
HETATM   17  C1  UNL     1      21.146 -14.043  23.255  1.00  0.00     0.149 C 
ATOM     18  H1  UNL     1      20.379 -12.283  22.312  1.00  0.00     0.161 HD
HETATM   19  O1  UNL     1      20.623 -15.034  20.700  1.00  0.00    -0.273 OA
ENDBRANCH  13  15
ENDBRANCH  10  13
ENDBRANCH   1   9
BRANCH   8  20
HETATM   20  C13 UNL     1      15.922 -15.213  20.607  1.00  0.00     0.146 C 
HETATM   21 BR2  UNL     1      17.048 -15.891  22.001  1.00  0.00    -0.090 Br
ENDBRANCH   8  20
BRANCH   4  22
HETATM   22  C8  UNL     1      13.873 -10.063  21.779  1.00  0.00     0.069 C 
BRANCH  22  23
HETATM   23  C9  UNL     1      12.369 -10.073  21.782  1.00  0.00     0.091 C 
HETATM   24 BR1  UNL     1      11.817  -9.822  23.641  1.00  0.00    -0.096 Br
ENDBRANCH  22  23
ENDBRANCH   4  22
TORSDOF 6
ENDMDL
MODEL 5
REMARK VINA RESULT: -6.755392283      2.105      2.323
REMARK  6 active torsions:
REMARK  status: ('A' for Active; 'I' for Inactive)
REMARK       I    between atoms: N1_2  and  C2_4 
REMARK    1  A    between atoms: C2_4  and  C3_6 
REMARK    2  A    between atoms: C3_6  and  C5_8 
REMARK       I    between atoms: C5_8  and  N2_10 
REMARK    3  A    between atoms: N2_10  and  C6_12 
REMARK    4  A    between atoms: C7_15  and  C8_16 
REMARK    5  A    between atoms: C8_16  and  C9_17 
REMARK    6  A    between atoms: C12_22  and  C13_23 
ROOT
HETATM    1  C6  UNL     1      15.530 -11.373  18.852  1.00  0.00     0.132 A 
HETATM    2  N3  UNL     1      14.453 -10.687  19.242  1.00  0.00    -0.343 N 
ATOM      3  H3  UNL     1      13.985 -10.075  18.573  1.00  0.00     0.167 HD
HETATM    4  C7  UNL     1      13.961 -10.782  20.513  1.00  0.00     0.027 A 
HETATM    5  C10 UNL     1      14.583 -11.603  21.428  1.00  0.00     0.115 A 
HETATM    6  N4  UNL     1      15.668 -12.304  21.058  1.00  0.00    -0.359 N 
HETATM    7  C11 UNL     1      16.334 -13.177  22.017  1.00  0.00     0.155 C 
HETATM    8  C12 UNL     1      16.131 -12.197  19.814  1.00  0.00     0.065 A 
ENDROOT
BRANCH   1   9
HETATM    9  N2  UNL     1      16.044 -11.358  17.713  1.00  0.00    -0.311 N 
HETATM   10  C5  UNL     1      15.662 -10.819  16.499  1.00  0.00     0.236 C 
HETATM   11  O2  UNL     1      14.505 -10.426  16.222  1.00  0.00    -0.272 OA
ATOM     12  H2  UNL     1      16.938 -11.848  17.671  1.00  0.00     0.170 HD
BRANCH  10  13
HETATM   13  C3  UNL     1      16.692 -10.692  15.430  1.00  0.00     0.166 C 
HETATM   14  C4  UNL     1      17.935 -11.443  15.883  1.00  0.00     0.030 C 
BRANCH  13  15
HETATM   15  C2  UNL     1      16.257 -11.253  14.155  1.00  0.00     0.230 C 
HETATM   16  N1  UNL     1      15.133 -10.726  13.489  1.00  0.00    -0.365 N 
HETATM   17  C1  UNL     1      14.665 -11.253  12.219  1.00  0.00     0.149 C 
ATOM     18  H1  UNL     1      14.630  -9.948  13.914  1.00  0.00     0.161 HD
HETATM   19  O1  UNL     1      16.873 -12.209  13.630  1.00  0.00    -0.273 OA
ENDBRANCH  13  15
ENDBRANCH  10  13
ENDBRANCH   1   9
BRANCH   8  20
HETATM   20  C13 UNL     1      17.348 -12.998  19.464  1.00  0.00     0.146 C 
HETATM   21 BR2  UNL     1      18.973 -12.031  19.768  1.00  0.00    -0.090 Br
ENDBRANCH   8  20
BRANCH   4  22
HETATM   22  C8  UNL     1      12.763 -10.022  20.955  1.00  0.00     0.069 C 
BRANCH  22  23
HETATM   23  C9  UNL     1      11.972 -10.744  22.011  1.00  0.00     0.091 C 
HETATM   24 BR1  UNL     1      11.930  -9.567  23.572  1.00  0.00    -0.096 Br
ENDBRANCH  22  23
ENDBRANCH   4  22
TORSDOF 6
ENDMDL
