MODEL 1
REMARK VINA RESULT: -8.124489216      0.000      0.000
REMARK  6 active torsions:
REMARK  status: ('A' for Active; 'I' for Inactive)
REMARK    1  A    between atoms: C2_3  and  C3_4 
REMARK    2  A    between atoms: C3_4  and  N2_5 
REMARK    3  A    between atoms: N2_5  and  C4_7 
REMARK    4  A    between atoms: C7_15  and  N6_16 
REMARK    5  A    between atoms: C9_27  and  C10_28 
REMARK    6  A    between atoms: N11_29  and  N12_31 
REMARK       I    between atoms: N12_31  and  C11_33 
ROOT
HETATM    1  N1  UNL     1      67.643  39.561  34.769  1.00  0.00    -0.197 NA
HETATM    2  C1  UNL     1      68.650  39.962  35.202  1.00  0.00     0.060 C 
HETATM    3  C2  UNL     1      69.888  40.480  35.734  1.00  0.00     0.143 C 
ENDROOT
BRANCH   3   4
HETATM    4  C3  UNL     1      70.738  41.120  34.645  1.00  0.00     0.135 C 
BRANCH   4   5
HETATM    5  N2  UNL     1      71.817  40.278  34.239  1.00  0.00    -0.373 N 
ATOM      6  H2  UNL     1      72.054  39.489  34.840  1.00  0.00     0.161 HD
BRANCH   5   7
HETATM    7  C4  UNL     1      72.512  40.443  33.168  1.00  0.00     0.133 A 
HETATM    8  N3  UNL     1      73.536  41.307  33.095  1.00  0.00    -0.335 N 
HETATM    9  C5  UNL     1      74.266  41.486  31.981  1.00  0.00     0.123 A 
ATOM     10  H3  UNL     1      73.771  41.854  33.924  1.00  0.00     0.168 HD
HETATM   11  C6  UNL     1      75.326  42.376  31.895  1.00  0.00     0.162 A 
HETATM   12  C8  UNL     1      73.974  40.764  30.844  1.00  0.00     0.174 A 
HETATM   13  N4  UNL     1      75.623  43.115  33.064  1.00  0.00    -0.080 NA
HETATM   14  N5  UNL     1      76.023  42.511  30.748  1.00  0.00    -0.177 N 
HETATM   15  C7  UNL     1      75.731  41.804  29.644  1.00  0.00     0.678 A 
ATOM     16  H5  UNL     1      76.799  43.173  30.717  1.00  0.00     0.185 HD
HETATM   17  N7  UNL     1      74.692  40.929  29.719  1.00  0.00    -0.173 N 
ATOM     18  H7  UNL     1      74.451  40.378  28.895  1.00  0.00     0.186 HD
HETATM   19  N8  UNL     1      72.953  39.899  30.908  1.00  0.00    -0.217 N 
HETATM   20  N9  UNL     1      72.497  39.103  29.939  1.00  0.00    -0.233 N 
HETATM   21  C12 UNL     1      72.210  39.716  32.038  1.00  0.00     0.133 A 
HETATM   22  N10 UNL     1      71.487  38.413  30.402  1.00  0.00    -0.282 N 
ATOM     23  H9  UNL     1      72.875  39.043  28.993  1.00  0.00     0.209 HD
HETATM   24  C9  UNL     1      71.288  38.768  31.689  1.00  0.00     0.099 A 
ATOM     25  H10 UNL     1      70.944  37.725  29.880  1.00  0.00     0.188 HD
BRANCH  15  26
HETATM   26  N6  UNL     1      76.409  41.951  28.561  1.00  0.00    -0.234 N 
ATOM     27  H62 UNL     1      76.222  42.718  27.914  1.00  0.00     0.174 HD
ATOM     28  H61 UNL     1      77.158  41.302  28.316  1.00  0.00     0.174 HD
ENDBRANCH  15  26
BRANCH  24  29
HETATM   29  C10 UNL     1      70.249  38.218  32.556  1.00  0.00     0.140 C 
HETATM   30  N11 UNL     1      70.559  37.333  33.443  1.00  0.00    -0.306 N 
ATOM     31  H11 UNL     1      71.523  37.014  33.544  1.00  0.00     0.186 HD
BRANCH  30  32
HETATM   32  N12 UNL     1      69.554  36.822  34.258  1.00  0.00    -0.254 N 
HETATM   33  C11 UNL     1      69.732  36.693  35.659  1.00  0.00     0.347 C 
HETATM   34  N13 UNL     1      68.657  36.163  36.425  1.00  0.00    -0.038 NA
HETATM   35  O1  UNL     1      70.808  37.033  36.234  1.00  0.00    -0.249 OA
ATOM     36  H12 UNL     1      68.670  36.535  33.839  1.00  0.00     0.191 HD
ENDBRANCH  30  32
ENDBRANCH  24  29
ENDBRANCH   5   7
ENDBRANCH   4   5
ENDBRANCH   3   4
TORSDOF 6
ENDMDL
MODEL 2
REMARK VINA RESULT: -8.033185206      2.938      6.788
REMARK  6 active torsions:
REMARK  status: ('A' for Active; 'I' for Inactive)
REMARK    1  A    between atoms: C2_3  and  C3_4 
REMARK    2  A    between atoms: C3_4  and  N2_5 
REMARK    3  A    between atoms: N2_5  and  C4_7 
REMARK    4  A    between atoms: C7_15  and  N6_16 
REMARK    5  A    between atoms: C9_27  and  C10_28 
REMARK    6  A    between atoms: N11_29  and  N12_31 
REMARK       I    between atoms: N12_31  and  C11_33 
ROOT
HETATM    1  N1  UNL     1      76.760  40.810  31.178  1.00  0.00    -0.197 NA
HETATM    2  C1  UNL     1      75.965  40.613  30.346  1.00  0.00     0.060 C 
HETATM    3  C2  UNL     1      74.991  40.387  29.305  1.00  0.00     0.143 C 
ENDROOT
BRANCH   3   4
HETATM    4  C3  UNL     1      73.892  41.440  29.333  1.00  0.00     0.135 C 
BRANCH   4   5
HETATM    5  N2  UNL     1      72.810  41.068  30.187  1.00  0.00    -0.373 N 
ATOM      6  H2  UNL     1      72.522  41.734  30.904  1.00  0.00     0.161 HD
BRANCH   5   7
HETATM    7  C4  UNL     1      72.173  39.952  30.117  1.00  0.00     0.133 A 
HETATM    8  N3  UNL     1      71.746  39.433  28.957  1.00  0.00    -0.335 N 
HETATM    9  C5  UNL     1      71.079  38.268  28.876  1.00  0.00     0.123 A 
ATOM     10  H3  UNL     1      71.936  39.945  28.095  1.00  0.00     0.168 HD
HETATM   11  C6  UNL     1      70.634  37.722  27.681  1.00  0.00     0.162 A 
HETATM   12  C8  UNL     1      70.805  37.552  30.021  1.00  0.00     0.174 A 
HETATM   13  N4  UNL     1      70.918  38.460  26.508  1.00  0.00    -0.080 NA
HETATM   14  N5  UNL     1      69.970  36.548  27.663  1.00  0.00    -0.177 N 
HETATM   15  C7  UNL     1      69.706  35.857  28.784  1.00  0.00     0.678 A 
ATOM     16  H5  UNL     1      69.657  36.173  26.768  1.00  0.00     0.185 HD
HETATM   17  N7  UNL     1      70.139  36.385  29.960  1.00  0.00    -0.173 N 
ATOM     18  H7  UNL     1      69.952  35.879  30.826  1.00  0.00     0.186 HD
HETATM   19  N8  UNL     1      71.227  38.063  31.184  1.00  0.00    -0.217 N 
HETATM   20  N9  UNL     1      71.075  37.546  32.405  1.00  0.00    -0.233 N 
HETATM   21  C12 UNL     1      71.905  39.246  31.269  1.00  0.00     0.133 A 
HETATM   22  N10 UNL     1      71.628  38.351  33.275  1.00  0.00    -0.282 N 
ATOM     23  H9  UNL     1      70.604  36.668  32.623  1.00  0.00     0.209 HD
HETATM   24  C9  UNL     1      72.147  39.403  32.605  1.00  0.00     0.099 A 
ATOM     25  H10 UNL     1      71.663  38.209  34.284  1.00  0.00     0.188 HD
BRANCH  15  26
HETATM   26  N6  UNL     1      69.070  34.740  28.742  1.00  0.00    -0.234 N 
ATOM     27  H62 UNL     1      69.478  33.879  29.108  1.00  0.00     0.174 HD
ATOM     28  H61 UNL     1      68.135  34.681  28.338  1.00  0.00     0.174 HD
ENDBRANCH  15  26
BRANCH  24  29
HETATM   29  C10 UNL     1      72.850  40.523  33.226  1.00  0.00     0.140 C 
HETATM   30  N11 UNL     1      74.135  40.598  33.137  1.00  0.00    -0.306 N 
ATOM     31  H11 UNL     1      74.665  39.883  32.638  1.00  0.00     0.186 HD
BRANCH  30  32
HETATM   32  N12 UNL     1      74.785  41.673  33.735  1.00  0.00    -0.254 N 
HETATM   33  C11 UNL     1      74.693  42.984  33.201  1.00  0.00     0.347 C 
HETATM   34  N13 UNL     1      75.385  44.030  33.870  1.00  0.00    -0.038 NA
HETATM   35  O1  UNL     1      74.018  43.240  32.160  1.00  0.00    -0.249 OA
ATOM     36  H12 UNL     1      75.340  41.516  34.576  1.00  0.00     0.191 HD
ENDBRANCH  30  32
ENDBRANCH  24  29
ENDBRANCH   5   7
ENDBRANCH   4   5
ENDBRANCH   3   4
TORSDOF 6
ENDMDL
MODEL 3
REMARK VINA RESULT: -7.939760269      2.863      6.592
REMARK  6 active torsions:
REMARK  status: ('A' for Active; 'I' for Inactive)
REMARK    1  A    between atoms: C2_3  and  C3_4 
REMARK    2  A    between atoms: C3_4  and  N2_5 
REMARK    3  A    between atoms: N2_5  and  C4_7 
REMARK    4  A    between atoms: C7_15  and  N6_16 
REMARK    5  A    between atoms: C9_27  and  C10_28 
REMARK    6  A    between atoms: N11_29  and  N12_31 
REMARK       I    between atoms: N12_31  and  C11_33 
ROOT
HETATM    1  N1  UNL     1      76.591  42.833  31.484  1.00  0.00    -0.197 NA
HETATM    2  C1  UNL     1      75.901  42.012  31.023  1.00  0.00     0.060 C 
HETATM    3  C2  UNL     1      75.055  41.002  30.433  1.00  0.00     0.143 C 
ENDROOT
BRANCH   3   4
HETATM    4  C3  UNL     1      73.843  41.620  29.751  1.00  0.00     0.135 C 
BRANCH   4   5
HETATM    5  N2  UNL     1      72.619  41.243  30.383  1.00  0.00    -0.373 N 
ATOM      6  H2  UNL     1      72.160  41.935  30.977  1.00  0.00     0.161 HD
BRANCH   5   7
HETATM    7  C4  UNL     1      72.053  40.094  30.257  1.00  0.00     0.133 A 
HETATM    8  N3  UNL     1      71.676  39.598  29.070  1.00  0.00    -0.335 N 
HETATM    9  C5  UNL     1      71.084  38.399  28.930  1.00  0.00     0.123 A 
ATOM     10  H3  UNL     1      71.846  40.157  28.233  1.00  0.00     0.168 HD
HETATM   11  C6  UNL     1      70.690  37.877  27.707  1.00  0.00     0.162 A 
HETATM   12  C8  UNL     1      70.839  37.620  30.040  1.00  0.00     0.174 A 
HETATM   13  N4  UNL     1      70.944  38.680  26.570  1.00  0.00    -0.080 NA
HETATM   14  N5  UNL     1      70.101  36.667  27.630  1.00  0.00    -0.177 N 
HETATM   15  C7  UNL     1      69.865  35.914  28.717  1.00  0.00     0.678 A 
ATOM     16  H5  UNL     1      69.824  36.310  26.715  1.00  0.00     0.185 HD
HETATM   17  N7  UNL     1      70.248  36.418  29.921  1.00  0.00    -0.173 N 
ATOM     18  H7  UNL     1      70.081  35.865  30.762  1.00  0.00     0.186 HD
HETATM   19  N8  UNL     1      71.212  38.108  31.230  1.00  0.00    -0.217 N 
HETATM   20  N9  UNL     1      71.075  37.531  32.426  1.00  0.00    -0.233 N 
HETATM   21  C12 UNL     1      71.813  39.325  31.375  1.00  0.00     0.133 A 
HETATM   22  N10 UNL     1      71.565  38.331  33.337  1.00  0.00    -0.282 N 
ATOM     23  H9  UNL     1      70.657  36.617  32.600  1.00  0.00     0.209 HD
HETATM   24  C9  UNL     1      72.027  39.441  32.720  1.00  0.00     0.099 A 
ATOM     25  H10 UNL     1      71.594  38.149  34.340  1.00  0.00     0.188 HD
BRANCH  15  26
HETATM   26  N6  UNL     1      69.300  34.762  28.618  1.00  0.00    -0.234 N 
ATOM     27  H62 UNL     1      69.729  34.002  28.090  1.00  0.00     0.174 HD
ATOM     28  H61 UNL     1      68.403  34.576  29.066  1.00  0.00     0.174 HD
ENDBRANCH  15  26
BRANCH  24  29
HETATM   29  C10 UNL     1      72.650  40.575  33.398  1.00  0.00     0.140 C 
HETATM   30  N11 UNL     1      71.914  41.544  33.828  1.00  0.00    -0.306 N 
ATOM     31  H11 UNL     1      70.903  41.526  33.699  1.00  0.00     0.186 HD
BRANCH  30  32
HETATM   32  N12 UNL     1      72.528  42.614  34.472  1.00  0.00    -0.254 N 
HETATM   33  C11 UNL     1      73.103  43.686  33.741  1.00  0.00     0.347 C 
HETATM   34  N13 UNL     1      73.712  44.743  34.471  1.00  0.00    -0.038 NA
HETATM   35  O1  UNL     1      73.085  43.722  32.475  1.00  0.00    -0.249 OA
ATOM     36  H12 UNL     1      72.566  42.629  35.491  1.00  0.00     0.191 HD
ENDBRANCH  30  32
ENDBRANCH  24  29
ENDBRANCH   5   7
ENDBRANCH   4   5
ENDBRANCH   3   4
TORSDOF 6
ENDMDL
MODEL 4
REMARK VINA RESULT: -7.598581256      3.434      6.777
REMARK  6 active torsions:
REMARK  status: ('A' for Active; 'I' for Inactive)
REMARK    1  A    between atoms: C2_3  and  C3_4 
REMARK    2  A    between atoms: C3_4  and  N2_5 
REMARK    3  A    between atoms: N2_5  and  C4_7 
REMARK    4  A    between atoms: C7_15  and  N6_16 
REMARK    5  A    between atoms: C9_27  and  C10_28 
REMARK    6  A    between atoms: N11_29  and  N12_31 
REMARK       I    between atoms: N12_31  and  C11_33 
ROOT
HETATM    1  N1  UNL     1      69.821  38.709  36.721  1.00  0.00    -0.197 NA
HETATM    2  C1  UNL     1      70.149  38.198  35.725  1.00  0.00     0.060 C 
HETATM    3  C2  UNL     1      70.579  37.570  34.498  1.00  0.00     0.143 C 
ENDROOT
BRANCH   3   4
HETATM    4  C3  UNL     1      71.107  38.594  33.503  1.00  0.00     0.135 C 
BRANCH   4   5
HETATM    5  N2  UNL     1      71.546  37.987  32.287  1.00  0.00    -0.373 N 
ATOM      6  H2  UNL     1      72.452  37.519  32.292  1.00  0.00     0.161 HD
BRANCH   5   7
HETATM    7  C4  UNL     1      70.881  37.990  31.186  1.00  0.00     0.133 A 
HETATM    8  N3  UNL     1      69.821  37.194  30.977  1.00  0.00    -0.335 N 
HETATM    9  C5  UNL     1      69.121  37.190  29.829  1.00  0.00     0.123 A 
ATOM     10  H3  UNL     1      69.533  36.562  31.725  1.00  0.00     0.168 HD
HETATM   11  C6  UNL     1      68.024  36.372  29.604  1.00  0.00     0.162 A 
HETATM   12  C8  UNL     1      69.485  38.030  28.799  1.00  0.00     0.174 A 
HETATM   13  N4  UNL     1      67.654  35.511  30.664  1.00  0.00    -0.080 NA
HETATM   14  N5  UNL     1      67.361  36.413  28.431  1.00  0.00    -0.177 N 
HETATM   15  C7  UNL     1      67.723  37.235  27.432  1.00  0.00     0.678 A 
ATOM     16  H5  UNL     1      66.557  35.799  28.297  1.00  0.00     0.185 HD
HETATM   17  N7  UNL     1      68.797  38.041  27.643  1.00  0.00    -0.173 N 
ATOM     18  H7  UNL     1      69.092  38.675  26.901  1.00  0.00     0.186 HD
HETATM   19  N8  UNL     1      70.542  38.828  28.999  1.00  0.00    -0.217 N 
HETATM   20  N9  UNL     1      71.066  39.713  28.149  1.00  0.00    -0.233 N 
HETATM   21  C12 UNL     1      71.254  38.834  30.163  1.00  0.00     0.133 A 
HETATM   22  N10 UNL     1      72.091  40.290  28.721  1.00  0.00    -0.282 N 
ATOM     23  H9  UNL     1      70.724  39.907  27.207  1.00  0.00     0.209 HD
HETATM   24  C9  UNL     1      72.230  39.770  29.960  1.00  0.00     0.099 A 
ATOM     25  H10 UNL     1      72.683  41.008  28.305  1.00  0.00     0.188 HD
BRANCH  15  26
HETATM   26  N6  UNL     1      67.075  37.255  26.320  1.00  0.00    -0.234 N 
ATOM     27  H62 UNL     1      67.479  37.658  25.475  1.00  0.00     0.174 HD
ATOM     28  H61 UNL     1      66.133  36.869  26.253  1.00  0.00     0.174 HD
ENDBRANCH  15  26
BRANCH  24  29
HETATM   29  C10 UNL     1      73.264  40.157  30.916  1.00  0.00     0.140 C 
HETATM   30  N11 UNL     1      74.079  41.115  30.624  1.00  0.00    -0.306 N 
ATOM     31  H11 UNL     1      74.007  41.603  29.731  1.00  0.00     0.186 HD
BRANCH  30  32
HETATM   32  N12 UNL     1      75.055  41.467  31.549  1.00  0.00    -0.254 N 
HETATM   33  C11 UNL     1      76.425  41.172  31.329  1.00  0.00     0.347 C 
HETATM   34  N13 UNL     1      77.364  41.565  32.322  1.00  0.00    -0.038 NA
HETATM   35  O1  UNL     1      76.825  40.576  30.285  1.00  0.00    -0.249 OA
ATOM     36  H12 UNL     1      74.781  41.950  32.405  1.00  0.00     0.191 HD
ENDBRANCH  30  32
ENDBRANCH  24  29
ENDBRANCH   5   7
ENDBRANCH   4   5
ENDBRANCH   3   4
TORSDOF 6
ENDMDL
MODEL 5
REMARK VINA RESULT: -7.507754374      3.148      6.570
REMARK  6 active torsions:
REMARK  status: ('A' for Active; 'I' for Inactive)
REMARK    1  A    between atoms: C2_3  and  C3_4 
REMARK    2  A    between atoms: C3_4  and  N2_5 
REMARK    3  A    between atoms: N2_5  and  C4_7 
REMARK    4  A    between atoms: C7_15  and  N6_16 
REMARK    5  A    between atoms: C9_27  and  C10_28 
REMARK    6  A    between atoms: N11_29  and  N12_31 
REMARK       I    between atoms: N12_31  and  C11_33 
ROOT
HETATM    1  N1  UNL     1      71.661  43.791  31.813  1.00  0.00    -0.197 NA
HETATM    2  C1  UNL     1      71.838  43.611  30.673  1.00  0.00     0.060 C 
HETATM    3  C2  UNL     1      72.039  43.372  29.264  1.00  0.00     0.143 C 
ENDROOT
BRANCH   3   4
HETATM    4  C3  UNL     1      72.743  42.044  29.019  1.00  0.00     0.135 C 
BRANCH   4   5
HETATM    5  N2  UNL     1      72.596  41.146  30.120  1.00  0.00    -0.373 N 
ATOM      6  H2  UNL     1      72.988  41.429  31.018  1.00  0.00     0.161 HD
BRANCH   5   7
HETATM    7  C4  UNL     1      72.005  40.005  30.060  1.00  0.00     0.133 A 
HETATM    8  N3  UNL     1      71.557  39.480  28.909  1.00  0.00    -0.335 N 
HETATM    9  C5  UNL     1      70.938  38.289  28.838  1.00  0.00     0.123 A 
ATOM     10  H3  UNL     1      71.693  40.010  28.047  1.00  0.00     0.168 HD
HETATM   11  C6  UNL     1      70.473  37.737  27.653  1.00  0.00     0.162 A 
HETATM   12  C8  UNL     1      70.737  37.549  29.983  1.00  0.00     0.174 A 
HETATM   13  N4  UNL     1      70.681  38.500  26.480  1.00  0.00    -0.080 NA
HETATM   14  N5  UNL     1      69.859  36.537  27.645  1.00  0.00    -0.177 N 
HETATM   15  C7  UNL     1      69.667  35.822  28.766  1.00  0.00     0.678 A 
ATOM     16  H5  UNL     1      69.529  36.157  26.757  1.00  0.00     0.185 HD
HETATM   17  N7  UNL     1      70.120  36.355  29.933  1.00  0.00    -0.173 N 
ATOM     18  H7  UNL     1      69.987  35.832  30.798  1.00  0.00     0.186 HD
HETATM   19  N8  UNL     1      71.180  38.066  31.137  1.00  0.00    -0.217 N 
HETATM   20  N9  UNL     1      71.096  37.529  32.355  1.00  0.00    -0.233 N 
HETATM   21  C12 UNL     1      71.810  39.275  31.211  1.00  0.00     0.133 A 
HETATM   22  N10 UNL     1      71.646  38.347  33.214  1.00  0.00    -0.282 N 
ATOM     23  H9  UNL     1      70.671  36.629  32.580  1.00  0.00     0.209 HD
HETATM   24  C9  UNL     1      72.094  39.428  32.540  1.00  0.00     0.099 A 
ATOM     25  H10 UNL     1      71.724  38.196  34.220  1.00  0.00     0.188 HD
BRANCH  15  26
HETATM   26  N6  UNL     1      69.077  34.679  28.733  1.00  0.00    -0.234 N 
ATOM     27  H62 UNL     1      68.154  34.543  29.146  1.00  0.00     0.174 HD
ATOM     28  H61 UNL     1      69.518  33.872  28.293  1.00  0.00     0.174 HD
ENDBRANCH  15  26
BRANCH  24  29
HETATM   29  C10 UNL     1      72.772  40.570  33.148  1.00  0.00     0.140 C 
HETATM   30  N11 UNL     1      74.060  40.642  33.112  1.00  0.00    -0.306 N 
ATOM     31  H11 UNL     1      74.609  39.909  32.663  1.00  0.00     0.186 HD
BRANCH  30  32
HETATM   32  N12 UNL     1      74.685  41.739  33.697  1.00  0.00    -0.254 N 
HETATM   33  C11 UNL     1      75.196  42.805  32.914  1.00  0.00     0.347 C 
HETATM   34  N13 UNL     1      75.821  43.891  33.586  1.00  0.00    -0.038 NA
HETATM   35  O1  UNL     1      75.110  42.811  31.650  1.00  0.00    -0.249 OA
ATOM     36  H12 UNL     1      74.777  41.777  34.712  1.00  0.00     0.191 HD
ENDBRANCH  30  32
ENDBRANCH  24  29
ENDBRANCH   5   7
ENDBRANCH   4   5
ENDBRANCH   3   4
TORSDOF 6
ENDMDL
