MODEL 1
REMARK VINA RESULT: -6.846156674      0.000      0.000
REMARK  2 active torsions:
REMARK  status: ('A' for Active; 'I' for Inactive)
REMARK    1  A    between atoms: C2_2  and  C3_4 
REMARK    2  A    between atoms: N2_5  and  C4_6 
REMARK       I    between atoms: N3_10  and  C7_11 
ROOT
HETATM    1  C3  UNL     1      45.016  26.121  41.420  1.00  0.00     0.238 C 
HETATM    2  N2  UNL     1      46.130  25.522  42.095  1.00  0.00    -0.331 N 
HETATM    3  C5  UNL     1      46.444  24.371  41.279  1.00  0.00     0.147 C 
HETATM    4  C6  UNL     1      46.390  25.042  39.897  1.00  0.00     0.148 C 
HETATM    5  N3  UNL     1      45.451  26.173  40.060  1.00  0.00    -0.328 N 
HETATM    6  C7  UNL     1      45.161  27.009  38.971  1.00  0.00     0.185 C 
HETATM    7  N4  UNL     1      43.956  27.256  38.624  1.00  0.00    -0.374 N 
ATOM      8  H41 UNL     1      43.745  27.863  37.832  1.00  0.00     0.158 HD
ATOM      9  H42 UNL     1      43.206  26.828  39.167  1.00  0.00     0.158 HD
HETATM   10  N5  UNL     1      46.203  27.604  38.216  1.00  0.00    -0.064 NA
ENDROOT
BRANCH   1  11
HETATM   11  C2  UNL     1      44.476  27.320  42.017  1.00  0.00     0.057 C 
HETATM   12  C1  UNL     1      43.288  27.479  42.557  1.00  0.00     0.039 C 
HETATM   13  N1  UNL     1      45.320  28.491  42.014  1.00  0.00    -0.104 NA
ENDBRANCH   1  11
BRANCH   2  14
HETATM   14  C4  UNL     1      46.797  25.911  43.244  1.00  0.00     0.352 C 
HETATM   15  O1  UNL     1      47.819  26.631  43.226  1.00  0.00    -0.283 OA
ENDBRANCH   2  14
TORSDOF 2
ENDMDL
MODEL 2
REMARK VINA RESULT: -6.387325875      1.798      3.449
REMARK  2 active torsions:
REMARK  status: ('A' for Active; 'I' for Inactive)
REMARK    1  A    between atoms: C2_2  and  C3_4 
REMARK    2  A    between atoms: N2_5  and  C4_6 
REMARK       I    between atoms: N3_10  and  C7_11 
ROOT
HETATM    1  C3  UNL     1      45.478  26.743  40.724  1.00  0.00     0.238 C 
HETATM    2  N2  UNL     1      46.177  25.578  41.182  1.00  0.00    -0.331 N 
HETATM    3  C5  UNL     1      46.847  26.030  42.380  1.00  0.00     0.147 C 
HETATM    4  C6  UNL     1      45.677  26.782  43.033  1.00  0.00     0.148 C 
HETATM    5  N3  UNL     1      44.823  27.212  41.905  1.00  0.00    -0.328 N 
HETATM    6  C7  UNL     1      43.649  27.940  42.148  1.00  0.00     0.185 C 
HETATM    7  N4  UNL     1      43.414  29.044  41.546  1.00  0.00    -0.374 N 
ATOM      8  H41 UNL     1      42.561  29.573  41.723  1.00  0.00     0.158 HD
ATOM      9  H42 UNL     1      44.107  29.379  40.876  1.00  0.00     0.158 HD
HETATM   10  N5  UNL     1      42.687  27.476  43.079  1.00  0.00    -0.064 NA
ENDROOT
BRANCH   1  11
HETATM   11  C2  UNL     1      44.698  26.589  39.518  1.00  0.00     0.057 C 
HETATM   12  C1  UNL     1      44.776  27.307  38.420  1.00  0.00     0.039 C 
HETATM   13  N1  UNL     1      43.707  25.541  39.509  1.00  0.00    -0.104 NA
ENDBRANCH   1  11
BRANCH   2  14
HETATM   14  C4  UNL     1      46.227  24.298  40.656  1.00  0.00     0.352 C 
HETATM   15  O1  UNL     1      46.951  23.395  41.130  1.00  0.00    -0.283 OA
ENDBRANCH   2  14
TORSDOF 2
ENDMDL
MODEL 3
REMARK VINA RESULT: -6.116365325      1.287      1.305
REMARK  2 active torsions:
REMARK  status: ('A' for Active; 'I' for Inactive)
REMARK    1  A    between atoms: C2_2  and  C3_4 
REMARK    2  A    between atoms: N2_5  and  C4_6 
REMARK       I    between atoms: N3_10  and  C7_11 
ROOT
HETATM    1  C3  UNL     1      44.742  26.397  41.779  1.00  0.00     0.238 C 
HETATM    2  N2  UNL     1      45.825  26.288  42.712  1.00  0.00    -0.331 N 
HETATM    3  C5  UNL     1      46.545  25.117  42.264  1.00  0.00     0.147 C 
HETATM    4  C6  UNL     1      46.584  25.427  40.759  1.00  0.00     0.148 C 
HETATM    5  N3  UNL     1      45.391  26.266  40.512  1.00  0.00    -0.328 N 
HETATM    6  C7  UNL     1      45.114  26.731  39.218  1.00  0.00     0.185 C 
HETATM    7  N4  UNL     1      43.967  26.556  38.680  1.00  0.00    -0.374 N 
ATOM      8  H41 UNL     1      43.766  26.894  37.739  1.00  0.00     0.158 HD
ATOM      9  H42 UNL     1      43.254  26.069  39.224  1.00  0.00     0.158 HD
HETATM   10  N5  UNL     1      46.104  27.407  38.463  1.00  0.00    -0.064 NA
ENDROOT
BRANCH   1  11
HETATM   11  C2  UNL     1      43.835  27.503  41.977  1.00  0.00     0.057 C 
HETATM   12  C1  UNL     1      43.945  28.722  41.499  1.00  0.00     0.039 C 
HETATM   13  N1  UNL     1      42.677  27.261  42.804  1.00  0.00    -0.104 NA
ENDBRANCH   1  11
BRANCH   2  14
HETATM   14  C4  UNL     1      46.162  27.087  43.791  1.00  0.00     0.352 C 
HETATM   15  O1  UNL     1      47.033  26.766  44.629  1.00  0.00    -0.283 OA
ENDBRANCH   2  14
TORSDOF 2
ENDMDL
MODEL 4
REMARK VINA RESULT: -5.812140916      2.148      3.452
REMARK  2 active torsions:
REMARK  status: ('A' for Active; 'I' for Inactive)
REMARK    1  A    between atoms: C2_2  and  C3_4 
REMARK    2  A    between atoms: N2_5  and  C4_6 
REMARK       I    between atoms: N3_10  and  C7_11 
ROOT
HETATM    1  C3  UNL     1      45.606  27.171  40.860  1.00  0.00     0.238 C 
HETATM    2  N2  UNL     1      44.467  27.985  40.551  1.00  0.00    -0.331 N 
HETATM    3  C5  UNL     1      44.405  27.951  39.108  1.00  0.00     0.147 C 
HETATM    4  C6  UNL     1      44.609  26.443  38.898  1.00  0.00     0.148 C 
HETATM    5  N3  UNL     1      45.390  25.998  40.074  1.00  0.00    -0.328 N 
HETATM    6  C7  UNL     1      45.762  24.651  40.203  1.00  0.00     0.185 C 
HETATM    7  N4  UNL     1      46.976  24.315  40.422  1.00  0.00    -0.374 N 
ATOM      8  H41 UNL     1      47.246  23.336  40.515  1.00  0.00     0.158 HD
ATOM      9  H42 UNL     1      47.670  25.059  40.504  1.00  0.00     0.158 HD
HETATM   10  N5  UNL     1      44.798  23.619  40.088  1.00  0.00    -0.064 NA
ENDROOT
BRANCH   1  11
HETATM   11  C2  UNL     1      45.919  27.014  42.261  1.00  0.00     0.057 C 
HETATM   12  C1  UNL     1      45.084  27.045  43.275  1.00  0.00     0.039 C 
HETATM   13  N1  UNL     1      47.306  26.813  42.604  1.00  0.00    -0.104 NA
ENDBRANCH   1  11
BRANCH   2  14
HETATM   14  C4  UNL     1      43.589  28.653  41.388  1.00  0.00     0.352 C 
HETATM   15  O1  UNL     1      43.709  29.866  41.670  1.00  0.00    -0.283 OA
ENDBRANCH   2  14
TORSDOF 2
ENDMDL
MODEL 5
REMARK VINA RESULT: -5.788552140      2.260      4.259
REMARK  2 active torsions:
REMARK  status: ('A' for Active; 'I' for Inactive)
REMARK    1  A    between atoms: C2_2  and  C3_4 
REMARK    2  A    between atoms: N2_5  and  C4_6 
REMARK       I    between atoms: N3_10  and  C7_11 
ROOT
HETATM    1  C3  UNL     1      44.766  26.430  40.654  1.00  0.00     0.238 C 
HETATM    2  N2  UNL     1      44.029  27.655  40.765  1.00  0.00    -0.331 N 
HETATM    3  C5  UNL     1      43.419  27.568  42.073  1.00  0.00     0.147 C 
HETATM    4  C6  UNL     1      44.643  27.092  42.872  1.00  0.00     0.148 C 
HETATM    5  N3  UNL     1      45.480  26.367  41.890  1.00  0.00    -0.328 N 
HETATM    6  C7  UNL     1      46.693  25.788  42.292  1.00  0.00     0.185 C 
HETATM    7  N4  UNL     1      46.958  24.562  42.044  1.00  0.00    -0.374 N 
ATOM      8  H41 UNL     1      47.840  24.141  42.336  1.00  0.00     0.158 HD
ATOM      9  H42 UNL     1      46.260  24.015  41.539  1.00  0.00     0.158 HD
HETATM   10  N5  UNL     1      47.662  26.548  42.993  1.00  0.00    -0.064 NA
ENDROOT
BRANCH   1  11
HETATM   11  C2  UNL     1      45.499  26.234  39.425  1.00  0.00     0.057 C 
HETATM   12  C1  UNL     1      45.369  25.248  38.565  1.00  0.00     0.039 C 
HETATM   13  N1  UNL     1      46.503  27.217  39.097  1.00  0.00    -0.104 NA
ENDBRANCH   1  11
BRANCH   2  14
HETATM   14  C4  UNL     1      43.905  28.710  39.878  1.00  0.00     0.352 C 
HETATM   15  O1  UNL     1      43.535  28.562  38.692  1.00  0.00    -0.283 OA
ENDBRANCH   2  14
TORSDOF 2
ENDMDL
