MODEL 1
REMARK VINA RESULT: -5.614803310      0.000      0.000
REMARK  4 active torsions:
REMARK  status: ('A' for Active; 'I' for Inactive)
REMARK       I    between atoms: C1_2  and  N2_4 
REMARK    1  A    between atoms: N2_4  and  N3_6 
REMARK    2  A    between atoms: N3_6  and  C2_8 
REMARK    3  A    between atoms: C2_8  and  N4_10 
REMARK    4  A    between atoms: N4_10  and  C3_12 
ROOT
HETATM    1  N4  UNL     1      16.449  -6.326  28.149  1.00  0.00    -0.357 N 
ATOM      2  H4  UNL     1      16.231  -7.317  28.045  1.00  0.00     0.162 HD
ENDROOT
BRANCH   1   3
HETATM    3  C2  UNL     1      15.732  -5.460  27.313  1.00  0.00     0.187 C 
HETATM    4  S1  UNL     1      16.020  -5.327  25.734  1.00  0.00    -0.040 SA
BRANCH   3   5
HETATM    5  N3  UNL     1      14.671  -4.624  27.828  1.00  0.00    -0.273 N 
ATOM      6  H3  UNL     1      14.245  -3.938  27.206  1.00  0.00     0.189 HD
BRANCH   5   7
HETATM    7  N2  UNL     1      14.207  -4.714  29.132  1.00  0.00    -0.252 N 
HETATM    8  C1  UNL     1      14.365  -3.765  30.149  1.00  0.00     0.347 C 
HETATM    9  N1  UNL     1      13.822  -4.008  31.457  1.00  0.00    -0.038 NA
HETATM   10  O1  UNL     1      14.964  -2.672  30.006  1.00  0.00    -0.249 OA
ATOM     11  H2  UNL     1      13.697  -5.563  29.376  1.00  0.00     0.191 HD
ENDBRANCH   5   7
ENDBRANCH   3   5
ENDBRANCH   1   3
BRANCH   1  12
HETATM   12  C3  UNL     1      17.431  -6.018  29.114  1.00  0.00     0.033 C 
HETATM   13  C4  UNL     1      16.911  -6.413  30.513  1.00  0.00     0.035 C 
HETATM   14  C5  UNL     1      17.842  -6.005  31.589  1.00  0.00    -0.012 C 
HETATM   15  C6  UNL     1      19.178  -6.703  31.346  1.00  0.00     0.010 C 
HETATM   16  C10 UNL     1      18.292  -4.551  31.502  1.00  0.00     0.010 C 
HETATM   17  C7  UNL     1      19.573  -5.985  30.047  1.00  0.00    -0.008 C 
HETATM   18  C8  UNL     1      18.753  -6.727  28.979  1.00  0.00     0.036 C 
HETATM   19  C9  UNL     1      18.993  -4.610  30.146  1.00  0.00    -0.008 C 
HETATM   20  C11 UNL     1      17.849  -4.574  29.118  1.00  0.00     0.036 C 
ENDBRANCH   1  12
TORSDOF 4
ENDMDL
MODEL 2
REMARK VINA RESULT: -5.612409379      3.134      4.651
REMARK  4 active torsions:
REMARK  status: ('A' for Active; 'I' for Inactive)
REMARK       I    between atoms: C1_2  and  N2_4 
REMARK    1  A    between atoms: N2_4  and  N3_6 
REMARK    2  A    between atoms: N3_6  and  C2_8 
REMARK    3  A    between atoms: C2_8  and  N4_10 
REMARK    4  A    between atoms: N4_10  and  C3_12 
ROOT
HETATM    1  N4  UNL     1      17.115  -6.896  29.389  1.00  0.00    -0.357 N 
ATOM      2  H4  UNL     1      17.249  -7.873  29.648  1.00  0.00     0.162 HD
ENDROOT
BRANCH   1   3
HETATM    3  C2  UNL     1      17.895  -6.443  28.316  1.00  0.00     0.187 C 
HETATM    4  S1  UNL     1      19.056  -5.339  28.480  1.00  0.00    -0.040 SA
BRANCH   3   5
HETATM    5  N3  UNL     1      17.701  -6.953  26.978  1.00  0.00    -0.273 N 
ATOM      6  H3  UNL     1      18.284  -7.728  26.662  1.00  0.00     0.189 HD
BRANCH   5   7
HETATM    7  N2  UNL     1      16.757  -6.435  26.104  1.00  0.00    -0.252 N 
HETATM    8  C1  UNL     1      16.433  -6.919  24.831  1.00  0.00     0.347 C 
HETATM    9  N1  UNL     1      15.425  -6.266  24.043  1.00  0.00    -0.038 NA
HETATM   10  O1  UNL     1      16.972  -7.920  24.299  1.00  0.00    -0.249 OA
ATOM     11  H2  UNL     1      16.244  -5.614  26.423  1.00  0.00     0.191 HD
ENDBRANCH   5   7
ENDBRANCH   3   5
ENDBRANCH   1   3
BRANCH   1  12
HETATM   12  C3  UNL     1      16.171  -6.186  30.161  1.00  0.00     0.033 C 
HETATM   13  C4  UNL     1      15.322  -5.292  29.231  1.00  0.00     0.035 C 
HETATM   14  C5  UNL     1      14.392  -4.426  29.989  1.00  0.00    -0.012 C 
HETATM   15  C6  UNL     1      13.457  -5.327  30.791  1.00  0.00     0.010 C 
HETATM   16  C10 UNL     1      15.048  -3.657  31.130  1.00  0.00     0.010 C 
HETATM   17  C7  UNL     1      14.491  -5.916  31.762  1.00  0.00    -0.008 C 
HETATM   18  C8  UNL     1      15.167  -7.012  30.923  1.00  0.00     0.036 C 
HETATM   19  C9  UNL     1      15.516  -4.846  31.968  1.00  0.00    -0.008 C 
HETATM   20  C11 UNL     1      16.780  -5.350  31.251  1.00  0.00     0.036 C 
ENDBRANCH   1  12
TORSDOF 4
ENDMDL
MODEL 3
REMARK VINA RESULT: -5.570567578      6.943      8.827
REMARK  4 active torsions:
REMARK  status: ('A' for Active; 'I' for Inactive)
REMARK       I    between atoms: C1_2  and  N2_4 
REMARK    1  A    between atoms: N2_4  and  N3_6 
REMARK    2  A    between atoms: N3_6  and  C2_8 
REMARK    3  A    between atoms: C2_8  and  N4_10 
REMARK    4  A    between atoms: N4_10  and  C3_12 
ROOT
HETATM    1  N4  UNL     1      16.748   2.211  32.214  1.00  0.00    -0.357 N 
ATOM      2  H4  UNL     1      17.505   1.784  32.748  1.00  0.00     0.162 HD
ENDROOT
BRANCH   1   3
HETATM    3  C2  UNL     1      17.062   2.558  30.894  1.00  0.00     0.187 C 
HETATM    4  S1  UNL     1      18.025   3.794  30.517  1.00  0.00    -0.040 SA
BRANCH   3   5
HETATM    5  N3  UNL     1      16.534   1.812  29.774  1.00  0.00    -0.273 N 
ATOM      6  H3  UNL     1      16.310   2.315  28.916  1.00  0.00     0.189 HD
BRANCH   5   7
HETATM    7  N2  UNL     1      16.318   0.443  29.816  1.00  0.00    -0.252 N 
HETATM    8  C1  UNL     1      15.089  -0.212  29.960  1.00  0.00     0.347 C 
HETATM    9  N1  UNL     1      15.032  -1.647  29.986  1.00  0.00    -0.038 NA
HETATM   10  O1  UNL     1      13.987   0.376  30.071  1.00  0.00    -0.249 OA
ATOM     11  H2  UNL     1      17.143  -0.150  29.733  1.00  0.00     0.191 HD
ENDBRANCH   5   7
ENDBRANCH   3   5
ENDBRANCH   1   3
BRANCH   1  12
HETATM   12  C3  UNL     1      15.530   2.372  32.909  1.00  0.00     0.033 C 
HETATM   13  C4  UNL     1      15.745   3.333  34.098  1.00  0.00     0.035 C 
HETATM   14  C5  UNL     1      14.536   3.452  34.943  1.00  0.00    -0.012 C 
HETATM   15  C6  UNL     1      13.403   3.992  34.073  1.00  0.00     0.010 C 
HETATM   16  C10 UNL     1      13.931   2.114  35.353  1.00  0.00     0.010 C 
HETATM   17  C7  UNL     1      13.241   2.782  33.140  1.00  0.00    -0.008 C 
HETATM   18  C8  UNL     1      14.386   2.969  32.131  1.00  0.00     0.036 C 
HETATM   19  C9  UNL     1      13.591   1.581  33.961  1.00  0.00    -0.008 C 
HETATM   20  C11 UNL     1      14.934   1.082  33.400  1.00  0.00     0.036 C 
ENDBRANCH   1  12
TORSDOF 4
ENDMDL
MODEL 4
REMARK VINA RESULT: -5.552843365      3.152      4.706
REMARK  4 active torsions:
REMARK  status: ('A' for Active; 'I' for Inactive)
REMARK       I    between atoms: C1_2  and  N2_4 
REMARK    1  A    between atoms: N2_4  and  N3_6 
REMARK    2  A    between atoms: N3_6  and  C2_8 
REMARK    3  A    between atoms: C2_8  and  N4_10 
REMARK    4  A    between atoms: N4_10  and  C3_12 
ROOT
HETATM    1  N4  UNL     1      17.158  -6.772  29.432  1.00  0.00    -0.357 N 
ATOM      2  H4  UNL     1      17.362  -7.685  29.840  1.00  0.00     0.162 HD
ENDROOT
BRANCH   1   3
HETATM    3  C2  UNL     1      17.956  -6.406  28.340  1.00  0.00     0.187 C 
HETATM    4  S1  UNL     1      19.159  -5.341  28.451  1.00  0.00    -0.040 SA
BRANCH   3   5
HETATM    5  N3  UNL     1      17.744  -6.977  27.029  1.00  0.00    -0.273 N 
ATOM      6  H3  UNL     1      18.303  -7.784  26.752  1.00  0.00     0.189 HD
BRANCH   5   7
HETATM    7  N2  UNL     1      16.815  -6.475  26.130  1.00  0.00    -0.252 N 
HETATM    8  C1  UNL     1      16.529  -6.967  24.852  1.00  0.00     0.347 C 
HETATM    9  N1  UNL     1      15.532  -6.330  24.037  1.00  0.00    -0.038 NA
HETATM   10  O1  UNL     1      17.095  -7.962  24.337  1.00  0.00    -0.249 OA
ATOM     11  H2  UNL     1      16.283  -5.659  26.434  1.00  0.00     0.191 HD
ENDBRANCH   5   7
ENDBRANCH   3   5
ENDBRANCH   1   3
BRANCH   1  12
HETATM   12  C3  UNL     1      16.111  -6.053  30.047  1.00  0.00     0.033 C 
HETATM   13  C4  UNL     1      16.700  -5.116  31.123  1.00  0.00     0.035 C 
HETATM   14  C5  UNL     1      15.645  -4.420  31.893  1.00  0.00    -0.012 C 
HETATM   15  C6  UNL     1      14.821  -3.586  30.916  1.00  0.00     0.010 C 
HETATM   16  C10 UNL     1      14.556  -5.341  32.428  1.00  0.00     0.010 C 
HETATM   17  C7  UNL     1      14.181  -4.737  30.124  1.00  0.00    -0.008 C 
HETATM   18  C8  UNL     1      15.299  -5.151  29.153  1.00  0.00     0.036 C 
HETATM   19  C9  UNL     1      14.024  -5.864  31.094  1.00  0.00    -0.008 C 
HETATM   20  C11 UNL     1      15.050  -6.924  30.658  1.00  0.00     0.036 C 
ENDBRANCH   1  12
TORSDOF 4
ENDMDL
MODEL 5
REMARK VINA RESULT: -5.517168440      3.125      4.576
REMARK  4 active torsions:
REMARK  status: ('A' for Active; 'I' for Inactive)
REMARK       I    between atoms: C1_2  and  N2_4 
REMARK    1  A    between atoms: N2_4  and  N3_6 
REMARK    2  A    between atoms: N3_6  and  C2_8 
REMARK    3  A    between atoms: C2_8  and  N4_10 
REMARK    4  A    between atoms: N4_10  and  C3_12 
ROOT
HETATM    1  N4  UNL     1      16.970  -6.811  29.356  1.00  0.00    -0.357 N 
ATOM      2  H4  UNL     1      17.013  -7.800  29.602  1.00  0.00     0.162 HD
ENDROOT
BRANCH   1   3
HETATM    3  C2  UNL     1      17.808  -6.413  28.307  1.00  0.00     0.187 C 
HETATM    4  S1  UNL     1      19.030  -5.381  28.502  1.00  0.00    -0.040 SA
BRANCH   3   5
HETATM    5  N3  UNL     1      17.625  -6.918  26.965  1.00  0.00    -0.273 N 
ATOM      6  H3  UNL     1      18.220  -7.681  26.645  1.00  0.00     0.189 HD
BRANCH   5   7
HETATM    7  N2  UNL     1      16.674  -6.409  26.092  1.00  0.00    -0.252 N 
HETATM    8  C1  UNL     1      16.363  -6.888  24.814  1.00  0.00     0.347 C 
HETATM    9  N1  UNL     1      15.346  -6.246  24.029  1.00  0.00    -0.038 NA
HETATM   10  O1  UNL     1      16.922  -7.873  24.276  1.00  0.00    -0.249 OA
ATOM     11  H2  UNL     1      16.145  -5.600  26.417  1.00  0.00     0.191 HD
ENDBRANCH   5   7
ENDBRANCH   3   5
ENDBRANCH   1   3
BRANCH   1  12
HETATM   12  C3  UNL     1      16.076  -6.032  30.122  1.00  0.00     0.033 C 
HETATM   13  C4  UNL     1      15.144  -6.968  30.923  1.00  0.00     0.035 C 
HETATM   14  C5  UNL     1      14.099  -6.219  31.655  1.00  0.00    -0.012 C 
HETATM   15  C6  UNL     1      14.794  -5.268  32.626  1.00  0.00     0.010 C 
HETATM   16  C10 UNL     1      13.345  -5.207  30.799  1.00  0.00     0.010 C 
HETATM   17  C7  UNL     1      15.447  -4.333  31.597  1.00  0.00    -0.008 C 
HETATM   18  C8  UNL     1      16.689  -5.122  31.154  1.00  0.00     0.036 C 
HETATM   19  C9  UNL     1      14.521  -4.306  30.423  1.00  0.00    -0.008 C 
HETATM   20  C11 UNL     1      15.253  -5.073  29.308  1.00  0.00     0.036 C 
ENDBRANCH   1  12
TORSDOF 4
ENDMDL
