MODEL 1
REMARK VINA RESULT: -8.367305748      0.000      0.000
REMARK  10 active torsions:
REMARK  status: ('A' for Active; 'I' for Inactive)
REMARK    1  A    between atoms: N1_2  and  O1_3 
REMARK    2  A    between atoms: N1_2  and  N2_5 
REMARK    3  A    between atoms: C2_7  and  N3_8 
REMARK    4  A    between atoms: C2_7  and  C10_33 
REMARK       I    between atoms: N3_8  and  C3_10 
REMARK       I    between atoms: C3_10  and  N4_12 
REMARK    5  A    between atoms: N4_12  and  N5_14 
REMARK    6  A    between atoms: C4_16  and  C5_17 
REMARK    7  A    between atoms: C6_21  and  C7_22 
REMARK       I    between atoms: C7_22  and  N7_24 
REMARK    8  A    between atoms: N7_24  and  N8_26 
REMARK    9  A    between atoms: N8_26  and  C8_28 
REMARK   10  A    between atoms: C9_30  and  O6_31 
ROOT
HETATM    1  N5  UNL     1      35.117  43.822  41.778  1.00  0.00    -0.306 N 
ATOM      2  H5  UNL     1      35.940  44.089  42.318  1.00  0.00     0.186 HD
HETATM    3  C4  UNL     1      34.795  44.602  40.835  1.00  0.00     0.141 C 
ENDROOT
BRANCH   1   4
HETATM    4  N4  UNL     1      34.492  42.652  42.168  1.00  0.00    -0.252 N 
HETATM    5  C3  UNL     1      35.185  41.392  42.005  1.00  0.00     0.340 C 
HETATM    6  N3  UNL     1      34.521  40.219  42.403  1.00  0.00    -0.290 N 
HETATM    7  O2  UNL     1      36.335  41.432  41.520  1.00  0.00    -0.245 OA
ATOM      8  H3  UNL     1      33.580  40.294  42.791  1.00  0.00     0.172 HD
ATOM      9  H4  UNL     1      33.553  42.677  42.565  1.00  0.00     0.191 HD
BRANCH   6  10
HETATM   10  C2  UNL     1      35.098  38.957  42.286  1.00  0.00     0.160 C 
HETATM   11  N2  UNL     1      35.288  38.207  43.322  1.00  0.00    -0.262 N 
ATOM     12  H2  UNL     1      35.713  37.288  43.207  1.00  0.00     0.191 HD
BRANCH  11  13
HETATM   13  N1  UNL     1      34.918  38.641  44.597  1.00  0.00    -0.205 N 
HETATM   14  C1  UNL     1      35.907  38.660  45.684  1.00  0.00     0.207 C 
BRANCH  13  15
HETATM   15  O1  UNL     1      33.648  39.033  44.793  1.00  0.00    -0.273 OA
ATOM     16  H1  UNL     1      33.429  39.727  45.403  1.00  0.00     0.246 HD
ENDBRANCH  13  15
ENDBRANCH  11  13
BRANCH  10  17
HETATM   17  C10 UNL     1      35.516  38.415  41.004  1.00  0.00     0.120 A 
HETATM   18  C11 UNL     1      36.826  38.369  40.499  1.00  0.00     0.043 A 
HETATM   19  C12 UNL     1      36.821  37.783  39.254  1.00  0.00     0.027 A 
HETATM   20  C13 UNL     1      35.494  37.485  39.034  1.00  0.00     0.142 A 
HETATM   21  O7  UNL     1      34.785  37.865  40.064  1.00  0.00    -0.319 OA
ENDBRANCH  10  17
ENDBRANCH   6  10
ENDBRANCH   1   4
BRANCH   3  22
HETATM   22  C5  UNL     1      33.679  44.453  39.926  1.00  0.00     0.107 A 
HETATM   23  N6  UNL     1      32.465  45.003  39.888  1.00  0.00    -0.256 N 
HETATM   24  O3  UNL     1      31.785  44.578  38.895  1.00  0.00    -0.229 OA
ATOM     25  H6  UNL     1      32.122  45.680  40.569  1.00  0.00     0.195 HD
HETATM   26  C6  UNL     1      32.488  43.703  38.177  1.00  0.00     0.203 A 
HETATM   27  C9  UNL     1      33.704  43.605  38.818  1.00  0.00     0.137 A 
BRANCH  26  28
HETATM   28  C7  UNL     1      32.024  43.023  36.981  1.00  0.00     0.298 C 
HETATM   29  O4  UNL     1      32.673  42.026  36.572  1.00  0.00    -0.263 OA
HETATM   30  N7  UNL     1      30.893  43.431  36.273  1.00  0.00    -0.262 N 
ATOM     31  H7  UNL     1      30.358  44.239  36.593  1.00  0.00     0.190 HD
BRANCH  30  32
HETATM   32  N8  UNL     1      30.483  42.729  35.106  1.00  0.00    -0.275 N 
ATOM     33  H8  UNL     1      31.036  42.762  34.250  1.00  0.00     0.189 HD
BRANCH  32  34
HETATM   34  C8  UNL     1      29.288  41.989  35.171  1.00  0.00     0.368 C 
HETATM   35  O5  UNL     1      28.571  42.033  36.188  1.00  0.00    -0.282 OA
ENDBRANCH  32  34
ENDBRANCH  30  32
ENDBRANCH  26  28
BRANCH  27  36
HETATM   36  O6  UNL     1      34.772  42.804  38.428  1.00  0.00    -0.356 OA
ATOM     37  H6  UNL     1      35.026  42.609  37.533  1.00  0.00     0.218 HD
ENDBRANCH  27  36
ENDBRANCH   3  22
TORSDOF 10
ENDMDL
MODEL 2
REMARK VINA RESULT: -8.072644673      1.504      1.827
REMARK  10 active torsions:
REMARK  status: ('A' for Active; 'I' for Inactive)
REMARK    1  A    between atoms: N1_2  and  O1_3 
REMARK    2  A    between atoms: N1_2  and  N2_5 
REMARK    3  A    between atoms: C2_7  and  N3_8 
REMARK    4  A    between atoms: C2_7  and  C10_33 
REMARK       I    between atoms: N3_8  and  C3_10 
REMARK       I    between atoms: C3_10  and  N4_12 
REMARK    5  A    between atoms: N4_12  and  N5_14 
REMARK    6  A    between atoms: C4_16  and  C5_17 
REMARK    7  A    between atoms: C6_21  and  C7_22 
REMARK       I    between atoms: C7_22  and  N7_24 
REMARK    8  A    between atoms: N7_24  and  N8_26 
REMARK    9  A    between atoms: N8_26  and  C8_28 
REMARK   10  A    between atoms: C9_30  and  O6_31 
ROOT
HETATM    1  N5  UNL     1      36.649  42.362  40.778  1.00  0.00    -0.306 N 
ATOM      2  H5  UNL     1      37.642  42.154  40.881  1.00  0.00     0.186 HD
HETATM    3  C4  UNL     1      36.368  43.490  40.276  1.00  0.00     0.141 C 
ENDROOT
BRANCH   1   4
HETATM    4  N4  UNL     1      35.778  41.377  41.206  1.00  0.00    -0.252 N 
HETATM    5  C3  UNL     1      36.128  39.987  41.002  1.00  0.00     0.340 C 
HETATM    6  N3  UNL     1      35.218  39.009  41.439  1.00  0.00    -0.290 N 
HETATM    7  O2  UNL     1      37.222  39.750  40.448  1.00  0.00    -0.245 OA
ATOM      8  H3  UNL     1      34.350  39.308  41.883  1.00  0.00     0.172 HD
ATOM      9  H4  UNL     1      34.899  41.627  41.659  1.00  0.00     0.191 HD
BRANCH   6  10
HETATM   10  C2  UNL     1      35.458  37.646  41.288  1.00  0.00     0.160 C 
HETATM   11  N2  UNL     1      35.670  36.884  42.312  1.00  0.00    -0.262 N 
ATOM     12  H2  UNL     1      35.843  35.889  42.172  1.00  0.00     0.191 HD
BRANCH  11  13
HETATM   13  N1  UNL     1      35.666  37.407  43.606  1.00  0.00    -0.205 N 
HETATM   14  C1  UNL     1      36.801  37.158  44.506  1.00  0.00     0.207 C 
BRANCH  13  15
HETATM   15  O1  UNL     1      34.604  38.134  43.996  1.00  0.00    -0.273 OA
ATOM     16  H1  UNL     1      34.618  39.083  43.980  1.00  0.00     0.246 HD
ENDBRANCH  13  15
ENDBRANCH  11  13
BRANCH  10  17
HETATM   17  C10 UNL     1      35.484  37.005  39.984  1.00  0.00     0.120 A 
HETATM   18  C11 UNL     1      36.622  36.691  39.225  1.00  0.00     0.043 A 
HETATM   19  C12 UNL     1      36.241  36.093  38.046  1.00  0.00     0.027 A 
HETATM   20  C13 UNL     1      34.866  36.058  38.121  1.00  0.00     0.142 A 
HETATM   21  O7  UNL     1      34.478  36.592  39.249  1.00  0.00    -0.319 OA
ENDBRANCH  10  17
ENDBRANCH   6  10
ENDBRANCH   1   4
BRANCH   3  22
HETATM   22  C5  UNL     1      35.046  44.024  40.026  1.00  0.00     0.107 A 
HETATM   23  N6  UNL     1      34.383  45.066  40.526  1.00  0.00    -0.256 N 
HETATM   24  O3  UNL     1      33.218  45.174  40.017  1.00  0.00    -0.229 OA
ATOM     25  H6  UNL     1      34.761  45.700  41.231  1.00  0.00     0.195 HD
HETATM   26  C6  UNL     1      32.998  44.209  39.125  1.00  0.00     0.203 A 
HETATM   27  C9  UNL     1      34.155  43.458  39.113  1.00  0.00     0.137 A 
BRANCH  26  28
HETATM   28  C7  UNL     1      31.780  44.029  38.355  1.00  0.00     0.298 C 
HETATM   29  O4  UNL     1      30.685  44.333  38.893  1.00  0.00    -0.263 OA
HETATM   30  N7  UNL     1      31.779  43.534  37.051  1.00  0.00    -0.262 N 
ATOM     31  H7  UNL     1      32.661  43.283  36.603  1.00  0.00     0.190 HD
BRANCH  30  32
HETATM   32  N8  UNL     1      30.557  43.378  36.342  1.00  0.00    -0.275 N 
ATOM     33  H8  UNL     1      30.139  44.158  35.834  1.00  0.00     0.189 HD
BRANCH  32  34
HETATM   34  C8  UNL     1      29.942  42.113  36.363  1.00  0.00     0.368 C 
HETATM   35  O5  UNL     1      28.701  42.013  36.361  1.00  0.00    -0.282 OA
ENDBRANCH  32  34
ENDBRANCH  30  32
ENDBRANCH  26  28
BRANCH  27  36
HETATM   36  O6  UNL     1      34.393  42.335  38.328  1.00  0.00    -0.356 OA
ATOM     37  H6  UNL     1      33.902  42.081  37.555  1.00  0.00     0.218 HD
ENDBRANCH  27  36
ENDBRANCH   3  22
TORSDOF 10
ENDMDL
MODEL 3
REMARK VINA RESULT: -7.891854019      1.921      3.303
REMARK  10 active torsions:
REMARK  status: ('A' for Active; 'I' for Inactive)
REMARK    1  A    between atoms: N1_2  and  O1_3 
REMARK    2  A    between atoms: N1_2  and  N2_5 
REMARK    3  A    between atoms: C2_7  and  N3_8 
REMARK    4  A    between atoms: C2_7  and  C10_33 
REMARK       I    between atoms: N3_8  and  C3_10 
REMARK       I    between atoms: C3_10  and  N4_12 
REMARK    5  A    between atoms: N4_12  and  N5_14 
REMARK    6  A    between atoms: C4_16  and  C5_17 
REMARK    7  A    between atoms: C6_21  and  C7_22 
REMARK       I    between atoms: C7_22  and  N7_24 
REMARK    8  A    between atoms: N7_24  and  N8_26 
REMARK    9  A    between atoms: N8_26  and  C8_28 
REMARK   10  A    between atoms: C9_30  and  O6_31 
ROOT
HETATM    1  N5  UNL     1      37.032  43.725  39.751  1.00  0.00    -0.306 N 
ATOM      2  H5  UNL     1      38.031  43.930  39.790  1.00  0.00     0.186 HD
HETATM    3  C4  UNL     1      36.257  44.695  39.997  1.00  0.00     0.141 C 
ENDROOT
BRANCH   1   4
HETATM    4  N4  UNL     1      36.695  42.421  39.437  1.00  0.00    -0.252 N 
HETATM    5  C3  UNL     1      36.312  41.515  40.498  1.00  0.00     0.340 C 
HETATM    6  N3  UNL     1      35.984  40.193  40.148  1.00  0.00    -0.290 N 
HETATM    7  O2  UNL     1      36.299  41.971  41.661  1.00  0.00    -0.245 OA
ATOM      8  H3  UNL     1      36.025  39.920  39.166  1.00  0.00     0.172 HD
ATOM      9  H4  UNL     1      36.717  42.102  38.468  1.00  0.00     0.191 HD
BRANCH   6  10
HETATM   10  C2  UNL     1      35.606  39.243  41.093  1.00  0.00     0.160 C 
HETATM   11  N2  UNL     1      35.882  37.990  40.932  1.00  0.00    -0.262 N 
ATOM     12  H2  UNL     1      35.593  37.316  41.640  1.00  0.00     0.191 HD
BRANCH  11  13
HETATM   13  N1  UNL     1      36.572  37.548  39.801  1.00  0.00    -0.205 N 
HETATM   14  C1  UNL     1      35.900  36.687  38.818  1.00  0.00     0.207 C 
BRANCH  13  15
HETATM   15  O1  UNL     1      37.851  37.931  39.645  1.00  0.00    -0.273 OA
ATOM     16  H1  UNL     1      38.196  38.180  38.796  1.00  0.00     0.246 HD
ENDBRANCH  13  15
ENDBRANCH  11  13
BRANCH  10  17
HETATM   17  C10 UNL     1      34.885  39.601  42.303  1.00  0.00     0.120 A 
HETATM   18  C11 UNL     1      35.204  39.215  43.615  1.00  0.00     0.043 A 
HETATM   19  C12 UNL     1      34.287  39.751  44.490  1.00  0.00     0.027 A 
HETATM   20  C13 UNL     1      33.427  40.457  43.677  1.00  0.00     0.142 A 
HETATM   21  O7  UNL     1      33.810  40.341  42.433  1.00  0.00    -0.319 OA
ENDBRANCH  10  17
ENDBRANCH   6  10
ENDBRANCH   1   4
BRANCH   3  22
HETATM   22  C5  UNL     1      34.809  44.669  40.007  1.00  0.00     0.107 A 
HETATM   23  N6  UNL     1      33.909  44.895  40.963  1.00  0.00    -0.256 N 
HETATM   24  O3  UNL     1      32.716  44.758  40.530  1.00  0.00    -0.229 OA
ATOM     25  H6  UNL     1      34.144  45.147  41.923  1.00  0.00     0.195 HD
HETATM   26  C6  UNL     1      32.714  44.427  39.239  1.00  0.00     0.203 A 
HETATM   27  C9  UNL     1      34.044  44.363  38.881  1.00  0.00     0.137 A 
BRANCH  26  28
HETATM   28  C7  UNL     1      31.533  44.193  38.427  1.00  0.00     0.298 C 
HETATM   29  O4  UNL     1      30.409  44.479  38.914  1.00  0.00    -0.263 OA
HETATM   30  N7  UNL     1      31.598  43.667  37.136  1.00  0.00    -0.262 N 
ATOM     31  H7  UNL     1      32.503  43.430  36.730  1.00  0.00     0.190 HD
BRANCH  30  32
HETATM   32  N8  UNL     1      30.410  43.458  36.384  1.00  0.00    -0.275 N 
ATOM     33  H8  UNL     1      29.977  44.220  35.862  1.00  0.00     0.189 HD
BRANCH  32  34
HETATM   34  C8  UNL     1      29.851  42.167  36.383  1.00  0.00     0.368 C 
HETATM   35  O5  UNL     1      28.617  42.012  36.333  1.00  0.00    -0.282 OA
ENDBRANCH  32  34
ENDBRANCH  30  32
ENDBRANCH  26  28
BRANCH  27  36
HETATM   36  O6  UNL     1      34.537  44.051  37.618  1.00  0.00    -0.356 OA
ATOM     37  H6  UNL     1      35.453  44.019  37.369  1.00  0.00     0.218 HD
ENDBRANCH  27  36
ENDBRANCH   3  22
TORSDOF 10
ENDMDL
MODEL 4
REMARK VINA RESULT: -7.820926934      2.479      3.671
REMARK  10 active torsions:
REMARK  status: ('A' for Active; 'I' for Inactive)
REMARK    1  A    between atoms: N1_2  and  O1_3 
REMARK    2  A    between atoms: N1_2  and  N2_5 
REMARK    3  A    between atoms: C2_7  and  N3_8 
REMARK    4  A    between atoms: C2_7  and  C10_33 
REMARK       I    between atoms: N3_8  and  C3_10 
REMARK       I    between atoms: C3_10  and  N4_12 
REMARK    5  A    between atoms: N4_12  and  N5_14 
REMARK    6  A    between atoms: C4_16  and  C5_17 
REMARK    7  A    between atoms: C6_21  and  C7_22 
REMARK       I    between atoms: C7_22  and  N7_24 
REMARK    8  A    between atoms: N7_24  and  N8_26 
REMARK    9  A    between atoms: N8_26  and  C8_28 
REMARK   10  A    between atoms: C9_30  and  O6_31 
ROOT
HETATM    1  N5  UNL     1      37.022  43.904  39.546  1.00  0.00    -0.306 N 
ATOM      2  H5  UNL     1      37.992  44.209  39.622  1.00  0.00     0.186 HD
HETATM    3  C4  UNL     1      36.154  44.690  40.028  1.00  0.00     0.141 C 
ENDROOT
BRANCH   1   4
HETATM    4  N4  UNL     1      36.819  42.684  38.928  1.00  0.00    -0.252 N 
HETATM    5  C3  UNL     1      36.980  41.468  39.696  1.00  0.00     0.340 C 
HETATM    6  N3  UNL     1      36.775  40.242  39.039  1.00  0.00    -0.290 N 
HETATM    7  O2  UNL     1      37.292  41.590  40.899  1.00  0.00    -0.245 OA
ATOM      8  H3  UNL     1      36.520  40.251  38.050  1.00  0.00     0.172 HD
ATOM      9  H4  UNL     1      36.559  42.642  37.943  1.00  0.00     0.191 HD
BRANCH   6  10
HETATM   10  C2  UNL     1      36.908  39.017  39.685  1.00  0.00     0.160 C 
HETATM   11  N2  UNL     1      37.687  38.094  39.221  1.00  0.00    -0.262 N 
ATOM     12  H2  UNL     1      37.765  37.206  39.716  1.00  0.00     0.191 HD
BRANCH  11  13
HETATM   13  N1  UNL     1      38.422  38.299  38.052  1.00  0.00    -0.205 N 
HETATM   14  C1  UNL     1      38.291  37.364  36.926  1.00  0.00     0.207 C 
BRANCH  13  15
HETATM   15  O1  UNL     1      39.241  39.363  37.993  1.00  0.00    -0.273 OA
ATOM     16  H1  UNL     1      40.088  39.316  37.567  1.00  0.00     0.246 HD
ENDBRANCH  13  15
ENDBRANCH  11  13
BRANCH  10  17
HETATM   17  C10 UNL     1      36.186  38.706  40.908  1.00  0.00     0.120 A 
HETATM   18  C11 UNL     1      36.387  37.595  41.742  1.00  0.00     0.043 A 
HETATM   19  C12 UNL     1      35.511  37.648  42.801  1.00  0.00     0.027 A 
HETATM   20  C13 UNL     1      34.794  38.803  42.581  1.00  0.00     0.142 A 
HETATM   21  O7  UNL     1      35.216  39.375  41.484  1.00  0.00    -0.319 OA
ENDBRANCH  10  17
ENDBRANCH   6  10
ENDBRANCH   1   4
BRANCH   3  22
HETATM   22  C5  UNL     1      34.720  44.495  40.047  1.00  0.00     0.107 A 
HETATM   23  N6  UNL     1      33.834  44.403  41.039  1.00  0.00    -0.256 N 
HETATM   24  O3  UNL     1      32.650  44.224  40.599  1.00  0.00    -0.229 OA
ATOM     25  H6  UNL     1      34.074  44.467  42.028  1.00  0.00     0.195 HD
HETATM   26  C6  UNL     1      32.639  44.182  39.268  1.00  0.00     0.203 A 
HETATM   27  C9  UNL     1      33.954  44.352  38.891  1.00  0.00     0.137 A 
BRANCH  26  28
HETATM   28  C7  UNL     1      31.463  43.993  38.436  1.00  0.00     0.298 C 
HETATM   29  O4  UNL     1      30.338  44.279  38.921  1.00  0.00    -0.263 OA
HETATM   30  N7  UNL     1      31.533  43.509  37.130  1.00  0.00    -0.262 N 
ATOM     31  H7  UNL     1      32.439  43.272  36.725  1.00  0.00     0.190 HD
BRANCH  30  32
HETATM   32  N8  UNL     1      30.350  43.343  36.359  1.00  0.00    -0.275 N 
ATOM     33  H8  UNL     1      29.945  44.124  35.843  1.00  0.00     0.189 HD
BRANCH  32  34
HETATM   34  C8  UNL     1      29.757  42.068  36.332  1.00  0.00     0.368 C 
HETATM   35  O5  UNL     1      28.561  41.934  36.010  1.00  0.00    -0.282 OA
ENDBRANCH  32  34
ENDBRANCH  30  32
ENDBRANCH  26  28
BRANCH  27  36
HETATM   36  O6  UNL     1      34.433  44.379  37.585  1.00  0.00    -0.356 OA
ATOM     37  H6  UNL     1      35.187  43.902  37.257  1.00  0.00     0.218 HD
ENDBRANCH  27  36
ENDBRANCH   3  22
TORSDOF 10
ENDMDL
MODEL 5
REMARK VINA RESULT: -7.613547068      2.224      3.508
REMARK  10 active torsions:
REMARK  status: ('A' for Active; 'I' for Inactive)
REMARK    1  A    between atoms: N1_2  and  O1_3 
REMARK    2  A    between atoms: N1_2  and  N2_5 
REMARK    3  A    between atoms: C2_7  and  N3_8 
REMARK    4  A    between atoms: C2_7  and  C10_33 
REMARK       I    between atoms: N3_8  and  C3_10 
REMARK       I    between atoms: C3_10  and  N4_12 
REMARK    5  A    between atoms: N4_12  and  N5_14 
REMARK    6  A    between atoms: C4_16  and  C5_17 
REMARK    7  A    between atoms: C6_21  and  C7_22 
REMARK       I    between atoms: C7_22  and  N7_24 
REMARK    8  A    between atoms: N7_24  and  N8_26 
REMARK    9  A    between atoms: N8_26  and  C8_28 
REMARK   10  A    between atoms: C9_30  and  O6_31 
ROOT
HETATM    1  N5  UNL     1      36.807  41.920  40.037  1.00  0.00    -0.306 N 
ATOM      2  H5  UNL     1      37.780  41.619  39.997  1.00  0.00     0.186 HD
HETATM    3  C4  UNL     1      36.581  43.114  39.682  1.00  0.00     0.141 C 
ENDROOT
BRANCH   1   4
HETATM    4  N4  UNL     1      35.898  40.973  40.472  1.00  0.00    -0.252 N 
HETATM    5  C3  UNL     1      36.352  39.620  40.719  1.00  0.00     0.340 C 
HETATM    6  N3  UNL     1      35.403  38.677  41.152  1.00  0.00    -0.290 N 
HETATM    7  O2  UNL     1      37.563  39.381  40.530  1.00  0.00    -0.245 OA
ATOM      8  H3  UNL     1      34.435  38.976  41.278  1.00  0.00     0.172 HD
ATOM      9  H4  UNL     1      34.921  41.224  40.616  1.00  0.00     0.191 HD
BRANCH   6  10
HETATM   10  C2  UNL     1      35.735  37.351  41.415  1.00  0.00     0.160 C 
HETATM   11  N2  UNL     1      35.766  36.467  40.471  1.00  0.00    -0.262 N 
ATOM     12  H2  UNL     1      36.012  35.503  40.692  1.00  0.00     0.191 HD
BRANCH  11  13
HETATM   13  N1  UNL     1      35.465  36.816  39.153  1.00  0.00    -0.205 N 
HETATM   14  C1  UNL     1      36.538  36.914  38.154  1.00  0.00     0.207 C 
BRANCH  13  15
HETATM   15  O1  UNL     1      34.181  37.056  38.835  1.00  0.00    -0.273 OA
ATOM     16  H1  UNL     1      33.553  36.352  38.734  1.00  0.00     0.246 HD
ENDBRANCH  13  15
ENDBRANCH  11  13
BRANCH  10  17
HETATM   17  C10 UNL     1      36.064  36.887  42.752  1.00  0.00     0.120 A 
HETATM   18  C11 UNL     1      35.157  36.553  43.772  1.00  0.00     0.043 A 
HETATM   19  C12 UNL     1      35.849  36.159  44.893  1.00  0.00     0.027 A 
HETATM   20  C13 UNL     1      37.172  36.263  44.522  1.00  0.00     0.142 A 
HETATM   21  O7  UNL     1      37.245  36.684  43.287  1.00  0.00    -0.319 OA
ENDBRANCH  10  17
ENDBRANCH   6  10
ENDBRANCH   1   4
BRANCH   3  22
HETATM   22  C5  UNL     1      35.297  43.782  39.646  1.00  0.00     0.107 A 
HETATM   23  N6  UNL     1      34.815  44.847  40.285  1.00  0.00    -0.256 N 
HETATM   24  O3  UNL     1      33.609  45.093  39.951  1.00  0.00    -0.229 OA
ATOM     25  H6  UNL     1      35.346  45.399  40.959  1.00  0.00     0.195 HD
HETATM   26  C6  UNL     1      33.175  44.209  39.053  1.00  0.00     0.203 A 
HETATM   27  C9  UNL     1      34.239  43.358  38.843  1.00  0.00     0.137 A 
BRANCH  26  28
HETATM   28  C7  UNL     1      31.852  44.190  38.455  1.00  0.00     0.298 C 
HETATM   29  O4  UNL     1      30.925  44.810  39.037  1.00  0.00    -0.263 OA
HETATM   30  N7  UNL     1      31.572  43.513  37.267  1.00  0.00    -0.262 N 
ATOM     31  H7  UNL     1      32.314  43.005  36.786  1.00  0.00     0.190 HD
BRANCH  30  32
HETATM   32  N8  UNL     1      30.258  43.526  36.725  1.00  0.00    -0.275 N 
ATOM     33  H8  UNL     1      29.922  44.320  36.178  1.00  0.00     0.189 HD
BRANCH  32  34
HETATM   34  C8  UNL     1      29.435  42.411  36.966  1.00  0.00     0.368 C 
HETATM   35  O5  UNL     1      28.637  42.014  36.097  1.00  0.00    -0.282 OA
ENDBRANCH  32  34
ENDBRANCH  30  32
ENDBRANCH  26  28
BRANCH  27  36
HETATM   36  O6  UNL     1      34.255  42.268  37.978  1.00  0.00    -0.356 OA
ATOM     37  H6  UNL     1      33.525  41.961  37.453  1.00  0.00     0.218 HD
ENDBRANCH  27  36
ENDBRANCH   3  22
TORSDOF 10
ENDMDL
