MODEL 1
REMARK VINA RESULT: -7.671935630      0.000      0.000
REMARK  10 active torsions:
REMARK  status: ('A' for Active; 'I' for Inactive)
REMARK    1  A    between atoms: O1_2  and  S1_3 
REMARK    2  A    between atoms: S1_3  and  O4_6 
REMARK    3  A    between atoms: O4_6  and  C2_7 
REMARK    4  A    between atoms: C3_8  and  O5_9 
REMARK    5  A    between atoms: C7_14  and  C8_15 
REMARK    6  A    between atoms: C8_15  and  O6_16 
REMARK    7  A    between atoms: O6_16  and  N1_17 
REMARK    8  A    between atoms: C9_19  and  C10_20 
REMARK    9  A    between atoms: C12_25  and  N4_26 
REMARK   10  A    between atoms: C13_31  and  N6_32 
ROOT
HETATM    1  N1  UNL     1      33.530  43.825  41.054  1.00  0.00    -0.275 N 
ATOM      2  H1  UNL     1      33.148  42.882  41.118  1.00  0.00     0.193 HD
HETATM    3  C9  UNL     1      33.214  44.556  40.011  1.00  0.00     0.148 C 
ENDROOT
BRANCH   1   4
HETATM    4  O6  UNL     1      34.335  44.262  42.048  1.00  0.00    -0.276 OA
BRANCH   4   5
HETATM    5  C8  UNL     1      35.444  43.510  42.433  1.00  0.00     0.242 C 
BRANCH   5   6
HETATM    6  C7  UNL     1      35.570  42.246  41.653  1.00  0.00     0.005 A 
HETATM    7  C2  UNL     1      34.841  41.117  41.957  1.00  0.00     0.133 A 
HETATM    8  C3  UNL     1      34.962  39.953  41.234  1.00  0.00     0.101 A 
HETATM    9  C4  UNL     1      35.840  39.917  40.171  1.00  0.00     0.039 A 
HETATM   10  C5  UNL     1      36.587  41.027  39.837  1.00  0.00     0.003 A 
HETATM   11  C6  UNL     1      36.445  42.198  40.588  1.00  0.00     0.012 A 
BRANCH   7  12
HETATM   12  O4  UNL     1      33.952  41.130  43.020  1.00  0.00    -0.208 OA
BRANCH  12  13
HETATM   13  S1  UNL     1      34.144  40.218  44.416  1.00  0.00     0.406 S 
HETATM   14  O2  UNL     1      34.823  41.102  45.453  1.00  0.00    -0.168 OA
HETATM   15  O3  UNL     1      32.794  39.762  44.949  1.00  0.00    -0.168 OA
BRANCH  13  16
HETATM   16  O1  UNL     1      35.086  38.869  44.218  1.00  0.00    -0.259 OA
HETATM   17  C1  UNL     1      35.085  38.033  45.332  1.00  0.00     0.228 C 
ENDBRANCH  13  16
ENDBRANCH  12  13
ENDBRANCH   7  12
BRANCH   8  18
HETATM   18  O5  UNL     1      34.234  38.802  41.527  1.00  0.00    -0.358 OA
ATOM     19  H5  UNL     1      33.465  38.806  42.085  1.00  0.00     0.217 HD
ENDBRANCH   8  18
ENDBRANCH   5   6
ENDBRANCH   4   5
ENDBRANCH   1   4
BRANCH   3  20
HETATM   20  C10 UNL     1      32.346  44.027  38.980  1.00  0.00     0.110 A 
HETATM   21  N2  UNL     1      31.000  44.271  39.016  1.00  0.00    -0.280 N 
HETATM   22  N3  UNL     1      30.182  43.806  38.095  1.00  0.00    -0.128 N 
ATOM     23  H2  UNL     1      30.620  44.830  39.780  1.00  0.00     0.188 HD
HETATM   24  C11 UNL     1      28.748  44.068  38.138  1.00  0.00     0.197 C 
HETATM   25  C12 UNL     1      30.681  43.078  37.102  1.00  0.00     0.694 A 
HETATM   26  N5  UNL     1      31.979  42.805  37.012  1.00  0.00    -0.174 N 
HETATM   27  C13 UNL     1      32.862  43.274  37.952  1.00  0.00     0.144 A 
ATOM     28  H5  UNL     1      32.323  42.242  36.234  1.00  0.00     0.186 HD
BRANCH  25  29
HETATM   29  N4  UNL     1      29.851  42.627  36.202  1.00  0.00    -0.233 N 
ATOM     30  H42 UNL     1      28.861  42.521  36.424  1.00  0.00     0.174 HD
ATOM     31  H41 UNL     1      30.228  42.390  35.284  1.00  0.00     0.174 HD
ENDBRANCH  25  29
BRANCH  27  32
HETATM   32  N6  UNL     1      34.114  42.989  37.829  1.00  0.00    -0.383 N 
ATOM     33  H62 UNL     1      34.465  42.692  36.919  1.00  0.00     0.157 HD
ATOM     34  H61 UNL     1      34.787  43.044  38.593  1.00  0.00     0.157 HD
ENDBRANCH  27  32
ENDBRANCH   3  20
TORSDOF 10
ENDMDL
MODEL 2
REMARK VINA RESULT: -7.569037546      4.553      7.906
REMARK  10 active torsions:
REMARK  status: ('A' for Active; 'I' for Inactive)
REMARK    1  A    between atoms: O1_2  and  S1_3 
REMARK    2  A    between atoms: S1_3  and  O4_6 
REMARK    3  A    between atoms: O4_6  and  C2_7 
REMARK    4  A    between atoms: C3_8  and  O5_9 
REMARK    5  A    between atoms: C7_14  and  C8_15 
REMARK    6  A    between atoms: C8_15  and  O6_16 
REMARK    7  A    between atoms: O6_16  and  N1_17 
REMARK    8  A    between atoms: C9_19  and  C10_20 
REMARK    9  A    between atoms: C12_25  and  N4_26 
REMARK   10  A    between atoms: C13_31  and  N6_32 
ROOT
HETATM    1  N1  UNL     1      34.348  40.385  44.174  1.00  0.00    -0.275 N 
ATOM      2  H1  UNL     1      33.763  40.706  44.946  1.00  0.00     0.193 HD
HETATM    3  C9  UNL     1      34.992  39.250  44.311  1.00  0.00     0.148 C 
ENDROOT
BRANCH   1   4
HETATM    4  O6  UNL     1      34.420  41.148  43.061  1.00  0.00    -0.276 OA
BRANCH   4   5
HETATM    5  C8  UNL     1      34.179  40.586  41.808  1.00  0.00     0.242 C 
BRANCH   5   6
HETATM    6  C7  UNL     1      35.416  40.494  40.982  1.00  0.00     0.005 A 
HETATM    7  C2  UNL     1      35.788  41.484  40.099  1.00  0.00     0.133 A 
HETATM    8  C3  UNL     1      36.929  41.394  39.339  1.00  0.00     0.101 A 
HETATM    9  C4  UNL     1      37.727  40.276  39.465  1.00  0.00     0.039 A 
HETATM   10  C5  UNL     1      37.388  39.264  40.337  1.00  0.00     0.003 A 
HETATM   11  C6  UNL     1      36.221  39.380  41.099  1.00  0.00     0.012 A 
BRANCH   7  12
HETATM   12  O4  UNL     1      35.002  42.617  39.956  1.00  0.00    -0.208 OA
BRANCH  12  13
HETATM   13  S1  UNL     1      35.366  44.106  40.640  1.00  0.00     0.406 S 
HETATM   14  O2  UNL     1      35.654  43.876  42.117  1.00  0.00    -0.168 OA
HETATM   15  O3  UNL     1      36.591  44.717  39.977  1.00  0.00    -0.168 OA
BRANCH  13  16
HETATM   16  O1  UNL     1      34.138  45.215  40.540  1.00  0.00    -0.259 OA
HETATM   17  C1  UNL     1      33.029  44.741  39.843  1.00  0.00     0.228 C 
ENDBRANCH  13  16
ENDBRANCH  12  13
ENDBRANCH   7  12
BRANCH   8  18
HETATM   18  O5  UNL     1      37.321  42.385  38.441  1.00  0.00    -0.358 OA
ATOM     19  H5  UNL     1      38.142  42.856  38.518  1.00  0.00     0.217 HD
ENDBRANCH   8  18
ENDBRANCH   5   6
ENDBRANCH   4   5
ENDBRANCH   1   4
BRANCH   3  20
HETATM   20  C10 UNL     1      34.870  38.480  45.532  1.00  0.00     0.110 A 
HETATM   21  N2  UNL     1      33.777  37.685  45.743  1.00  0.00    -0.280 N 
HETATM   22  N3  UNL     1      33.635  36.971  46.840  1.00  0.00    -0.128 N 
ATOM     23  H2  UNL     1      33.051  37.644  45.028  1.00  0.00     0.188 HD
HETATM   24  C11 UNL     1      32.468  36.126  47.061  1.00  0.00     0.197 C 
HETATM   25  C12 UNL     1      34.584  37.028  47.769  1.00  0.00     0.694 A 
HETATM   26  N5  UNL     1      35.669  37.782  47.623  1.00  0.00    -0.174 N 
HETATM   27  C13 UNL     1      35.851  38.538  46.493  1.00  0.00     0.144 A 
ATOM     28  H5  UNL     1      36.374  37.799  48.360  1.00  0.00     0.186 HD
BRANCH  25  29
HETATM   29  N4  UNL     1      34.421  36.313  48.849  1.00  0.00    -0.233 N 
ATOM     30  H42 UNL     1      33.828  35.483  48.830  1.00  0.00     0.174 HD
ATOM     31  H41 UNL     1      34.904  36.614  49.695  1.00  0.00     0.174 HD
ENDBRANCH  25  29
BRANCH  27  32
HETATM   32  N6  UNL     1      36.918  39.255  46.388  1.00  0.00    -0.383 N 
ATOM     33  H62 UNL     1      37.158  39.896  47.144  1.00  0.00     0.157 HD
ATOM     34  H61 UNL     1      37.548  39.223  45.586  1.00  0.00     0.157 HD
ENDBRANCH  27  32
ENDBRANCH   3  20
TORSDOF 10
ENDMDL
MODEL 3
REMARK VINA RESULT: -7.517731959      4.709      7.789
REMARK  10 active torsions:
REMARK  status: ('A' for Active; 'I' for Inactive)
REMARK    1  A    between atoms: O1_2  and  S1_3 
REMARK    2  A    between atoms: S1_3  and  O4_6 
REMARK    3  A    between atoms: O4_6  and  C2_7 
REMARK    4  A    between atoms: C3_8  and  O5_9 
REMARK    5  A    between atoms: C7_14  and  C8_15 
REMARK    6  A    between atoms: C8_15  and  O6_16 
REMARK    7  A    between atoms: O6_16  and  N1_17 
REMARK    8  A    between atoms: C9_19  and  C10_20 
REMARK    9  A    between atoms: C12_25  and  N4_26 
REMARK   10  A    between atoms: C13_31  and  N6_32 
ROOT
HETATM    1  N1  UNL     1      33.539  40.353  44.127  1.00  0.00    -0.275 N 
ATOM      2  H1  UNL     1      32.674  40.197  44.644  1.00  0.00     0.193 HD
HETATM    3  C9  UNL     1      34.602  39.663  44.466  1.00  0.00     0.148 C 
ENDROOT
BRANCH   1   4
HETATM    4  O6  UNL     1      33.534  41.261  43.125  1.00  0.00    -0.276 OA
BRANCH   4   5
HETATM    5  C8  UNL     1      34.341  41.073  42.004  1.00  0.00     0.242 C 
BRANCH   5   6
HETATM    6  C7  UNL     1      34.668  42.356  41.319  1.00  0.00     0.005 A 
HETATM    7  C2  UNL     1      35.877  42.572  40.697  1.00  0.00     0.133 A 
HETATM    8  C3  UNL     1      36.174  43.758  40.067  1.00  0.00     0.101 A 
HETATM    9  C4  UNL     1      35.228  44.762  40.059  1.00  0.00     0.039 A 
HETATM   10  C5  UNL     1      34.006  44.583  40.672  1.00  0.00     0.003 A 
HETATM   11  C6  UNL     1      33.730  43.368  41.305  1.00  0.00     0.012 A 
BRANCH   7  12
HETATM   12  O4  UNL     1      36.842  41.577  40.691  1.00  0.00    -0.208 OA
BRANCH  12  13
HETATM   13  S1  UNL     1      37.051  40.476  39.441  1.00  0.00     0.406 S 
HETATM   14  O2  UNL     1      35.683  40.214  38.827  1.00  0.00    -0.168 OA
HETATM   15  O3  UNL     1      37.981  41.040  38.378  1.00  0.00    -0.168 OA
BRANCH  13  16
HETATM   16  O1  UNL     1      37.668  39.016  39.923  1.00  0.00    -0.259 OA
HETATM   17  C1  UNL     1      36.857  38.355  40.842  1.00  0.00     0.228 C 
ENDBRANCH  13  16
ENDBRANCH  12  13
ENDBRANCH   7  12
BRANCH   8  18
HETATM   18  O5  UNL     1      37.391  43.994  39.433  1.00  0.00    -0.358 OA
ATOM     19  H5  UNL     1      37.600  43.649  38.573  1.00  0.00     0.217 HD
ENDBRANCH   8  18
ENDBRANCH   5   6
ENDBRANCH   4   5
ENDBRANCH   1   4
BRANCH   3  20
HETATM   20  C10 UNL     1      34.539  38.705  45.550  1.00  0.00     0.110 A 
HETATM   21  N2  UNL     1      33.414  37.950  45.743  1.00  0.00    -0.280 N 
HETATM   22  N3  UNL     1      33.324  37.070  46.717  1.00  0.00    -0.128 N 
ATOM     23  H2  UNL     1      32.623  38.074  45.112  1.00  0.00     0.188 HD
HETATM   24  C11 UNL     1      32.123  36.268  46.919  1.00  0.00     0.197 C 
HETATM   25  C12 UNL     1      34.357  36.912  47.537  1.00  0.00     0.694 A 
HETATM   26  N5  UNL     1      35.477  37.616  47.404  1.00  0.00    -0.174 N 
HETATM   27  C13 UNL     1      35.608  38.542  46.399  1.00  0.00     0.144 A 
ATOM     28  H5  UNL     1      36.248  37.466  48.055  1.00  0.00     0.186 HD
BRANCH  25  29
HETATM   29  N4  UNL     1      34.244  36.035  48.497  1.00  0.00    -0.233 N 
ATOM     30  H42 UNL     1      34.328  35.039  48.294  1.00  0.00     0.174 HD
ATOM     31  H41 UNL     1      34.072  36.382  49.440  1.00  0.00     0.174 HD
ENDBRANCH  25  29
BRANCH  27  32
HETATM   32  N6  UNL     1      36.711  39.204  46.301  1.00  0.00    -0.383 N 
ATOM     33  H62 UNL     1      37.408  38.902  45.621  1.00  0.00     0.157 HD
ATOM     34  H61 UNL     1      36.934  40.022  46.866  1.00  0.00     0.157 HD
ENDBRANCH  27  32
ENDBRANCH   3  20
TORSDOF 10
ENDMDL
MODEL 4
REMARK VINA RESULT: -7.503224574      4.537      8.072
REMARK  10 active torsions:
REMARK  status: ('A' for Active; 'I' for Inactive)
REMARK    1  A    between atoms: O1_2  and  S1_3 
REMARK    2  A    between atoms: S1_3  and  O4_6 
REMARK    3  A    between atoms: O4_6  and  C2_7 
REMARK    4  A    between atoms: C3_8  and  O5_9 
REMARK    5  A    between atoms: C7_14  and  C8_15 
REMARK    6  A    between atoms: C8_15  and  O6_16 
REMARK    7  A    between atoms: O6_16  and  N1_17 
REMARK    8  A    between atoms: C9_19  and  C10_20 
REMARK    9  A    between atoms: C12_25  and  N4_26 
REMARK   10  A    between atoms: C13_31  and  N6_32 
ROOT
HETATM    1  N1  UNL     1      34.723  40.646  44.231  1.00  0.00    -0.275 N 
ATOM      2  H1  UNL     1      35.031  41.184  45.041  1.00  0.00     0.193 HD
HETATM    3  C9  UNL     1      34.468  39.369  44.391  1.00  0.00     0.148 C 
ENDROOT
BRANCH   1   4
HETATM    4  O6  UNL     1      34.599  41.283  43.046  1.00  0.00    -0.276 OA
BRANCH   4   5
HETATM    5  C8  UNL     1      34.308  40.562  41.888  1.00  0.00     0.242 C 
BRANCH   5   6
HETATM    6  C7  UNL     1      35.503  40.380  41.018  1.00  0.00     0.005 A 
HETATM    7  C2  UNL     1      35.885  41.319  40.085  1.00  0.00     0.133 A 
HETATM    8  C3  UNL     1      36.989  41.145  39.284  1.00  0.00     0.101 A 
HETATM    9  C4  UNL     1      37.738  39.995  39.420  1.00  0.00     0.039 A 
HETATM   10  C5  UNL     1      37.387  39.032  40.343  1.00  0.00     0.003 A 
HETATM   11  C6  UNL     1      36.259  39.233  41.145  1.00  0.00     0.012 A 
BRANCH   7  12
HETATM   12  O4  UNL     1      35.149  42.482  39.930  1.00  0.00    -0.208 OA
BRANCH  12  13
HETATM   13  S1  UNL     1      35.622  43.980  40.523  1.00  0.00     0.406 S 
HETATM   14  O2  UNL     1      36.316  43.748  41.857  1.00  0.00    -0.168 OA
HETATM   15  O3  UNL     1      36.589  44.657  39.563  1.00  0.00    -0.168 OA
BRANCH  13  16
HETATM   16  O1  UNL     1      34.367  45.028  40.791  1.00  0.00    -0.259 OA
HETATM   17  C1  UNL     1      33.201  44.668  40.119  1.00  0.00     0.228 C 
ENDBRANCH  13  16
ENDBRANCH  12  13
ENDBRANCH   7  12
BRANCH   8  18
HETATM   18  O5  UNL     1      37.390  42.083  38.335  1.00  0.00    -0.358 OA
ATOM     19  H5  UNL     1      38.250  42.075  37.932  1.00  0.00     0.217 HD
ENDBRANCH   8  18
ENDBRANCH   5   6
ENDBRANCH   4   5
ENDBRANCH   1   4
BRANCH   3  20
HETATM   20  C10 UNL     1      34.622  38.748  45.690  1.00  0.00     0.110 A 
HETATM   21  N2  UNL     1      35.869  38.489  46.190  1.00  0.00    -0.280 N 
HETATM   22  N3  UNL     1      36.046  37.925  47.367  1.00  0.00    -0.128 N 
ATOM     23  H2  UNL     1      36.686  38.740  45.634  1.00  0.00     0.188 HD
HETATM   24  C11 UNL     1      37.376  37.651  47.895  1.00  0.00     0.197 C 
HETATM   25  C12 UNL     1      34.978  37.600  48.088  1.00  0.00     0.694 A 
HETATM   26  N5  UNL     1      33.741  37.825  47.658  1.00  0.00    -0.174 N 
HETATM   27  C13 UNL     1      33.519  38.411  46.437  1.00  0.00     0.144 A 
ATOM     28  H5  UNL     1      32.948  37.559  48.242  1.00  0.00     0.186 HD
BRANCH  25  29
HETATM   29  N4  UNL     1      35.178  37.041  49.251  1.00  0.00    -0.233 N 
ATOM     30  H42 UNL     1      35.013  37.569  50.109  1.00  0.00     0.174 HD
ATOM     31  H41 UNL     1      35.497  36.073  49.264  1.00  0.00     0.174 HD
ENDBRANCH  25  29
BRANCH  27  32
HETATM   32  N6  UNL     1      32.304  38.614  46.055  1.00  0.00    -0.383 N 
ATOM     33  H62 UNL     1      31.962  38.136  45.222  1.00  0.00     0.157 HD
ATOM     34  H61 UNL     1      31.652  39.231  46.539  1.00  0.00     0.157 HD
ENDBRANCH  27  32
ENDBRANCH   3  20
TORSDOF 10
ENDMDL
MODEL 5
REMARK VINA RESULT: -7.484801026      3.730      6.556
REMARK  10 active torsions:
REMARK  status: ('A' for Active; 'I' for Inactive)
REMARK    1  A    between atoms: O1_2  and  S1_3 
REMARK    2  A    between atoms: S1_3  and  O4_6 
REMARK    3  A    between atoms: O4_6  and  C2_7 
REMARK    4  A    between atoms: C3_8  and  O5_9 
REMARK    5  A    between atoms: C7_14  and  C8_15 
REMARK    6  A    between atoms: C8_15  and  O6_16 
REMARK    7  A    between atoms: O6_16  and  N1_17 
REMARK    8  A    between atoms: C9_19  and  C10_20 
REMARK    9  A    between atoms: C12_25  and  N4_26 
REMARK   10  A    between atoms: C13_31  and  N6_32 
ROOT
HETATM    1  N1  UNL     1      34.061  42.222  42.234  1.00  0.00    -0.275 N 
ATOM      2  H1  UNL     1      35.074  42.254  42.115  1.00  0.00     0.193 HD
HETATM    3  C9  UNL     1      33.512  41.086  42.592  1.00  0.00     0.148 C 
ENDROOT
BRANCH   1   4
HETATM    4  O6  UNL     1      33.353  43.352  42.016  1.00  0.00    -0.276 OA
BRANCH   4   5
HETATM    5  C8  UNL     1      33.788  44.281  41.072  1.00  0.00     0.242 C 
BRANCH   5   6
HETATM    6  C7  UNL     1      33.286  43.976  39.703  1.00  0.00     0.005 A 
HETATM    7  C2  UNL     1      33.778  42.928  38.955  1.00  0.00     0.133 A 
HETATM    8  C3  UNL     1      33.311  42.651  37.691  1.00  0.00     0.101 A 
HETATM    9  C4  UNL     1      32.320  43.447  37.157  1.00  0.00     0.039 A 
HETATM   10  C5  UNL     1      31.804  44.505  37.876  1.00  0.00     0.003 A 
HETATM   11  C6  UNL     1      32.295  44.766  39.158  1.00  0.00     0.012 A 
BRANCH   7  12
HETATM   12  O4  UNL     1      34.774  42.114  39.470  1.00  0.00    -0.208 OA
BRANCH  12  13
HETATM   13  S1  UNL     1      36.381  42.574  39.617  1.00  0.00     0.406 S 
HETATM   14  O2  UNL     1      36.519  43.964  39.012  1.00  0.00    -0.168 OA
HETATM   15  O3  UNL     1      36.796  42.618  41.080  1.00  0.00    -0.168 OA
BRANCH  13  16
HETATM   16  O1  UNL     1      37.444  41.578  38.825  1.00  0.00    -0.259 OA
HETATM   17  C1  UNL     1      37.572  40.328  39.424  1.00  0.00     0.228 C 
ENDBRANCH  13  16
ENDBRANCH  12  13
ENDBRANCH   7  12
BRANCH   8  18
HETATM   18  O5  UNL     1      33.796  41.597  36.920  1.00  0.00    -0.358 OA
ATOM     19  H5  UNL     1      33.540  40.693  37.063  1.00  0.00     0.217 HD
ENDBRANCH   8  18
ENDBRANCH   5   6
ENDBRANCH   4   5
ENDBRANCH   1   4
BRANCH   3  20
HETATM   20  C10 UNL     1      34.330  39.911  42.810  1.00  0.00     0.110 A 
HETATM   21  N2  UNL     1      34.653  39.089  41.765  1.00  0.00    -0.280 N 
HETATM   22  N3  UNL     1      35.395  38.014  41.927  1.00  0.00    -0.128 N 
ATOM     23  H2  UNL     1      34.309  39.318  40.832  1.00  0.00     0.188 HD
HETATM   24  C11 UNL     1      35.737  37.141  40.810  1.00  0.00     0.197 C 
HETATM   25  C12 UNL     1      35.842  37.720  43.143  1.00  0.00     0.694 A 
HETATM   26  N5  UNL     1      35.562  38.478  44.199  1.00  0.00    -0.174 N 
HETATM   27  C13 UNL     1      34.792  39.607  44.068  1.00  0.00     0.144 A 
ATOM     28  H5  UNL     1      35.923  38.218  45.117  1.00  0.00     0.186 HD
BRANCH  25  29
HETATM   29  N4  UNL     1      36.574  36.649  43.280  1.00  0.00    -0.233 N 
ATOM     30  H42 UNL     1      37.506  36.713  43.690  1.00  0.00     0.174 HD
ATOM     31  H41 UNL     1      36.181  35.762  42.966  1.00  0.00     0.174 HD
ENDBRANCH  25  29
BRANCH  27  32
HETATM   32  N6  UNL     1      34.543  40.317  45.115  1.00  0.00    -0.383 N 
ATOM     33  H62 UNL     1      35.305  40.835  45.552  1.00  0.00     0.157 HD
ATOM     34  H61 UNL     1      33.621  40.396  45.542  1.00  0.00     0.157 HD
ENDBRANCH  27  32
ENDBRANCH   3  20
TORSDOF 10
ENDMDL
