MODEL 1
REMARK VINA RESULT: -4.681547868      0.000      0.000
REMARK  2 active torsions:
REMARK  status: ('A' for Active; 'I' for Inactive)
REMARK    1  A    between atoms: C2_4  and  N2_5 
REMARK       I    between atoms: N2_5  and  C3_7 
REMARK    2  A    between atoms: N4_9  and  O1_11 
ROOT
HETATM    1  N2  UNL     1      25.266  38.618  46.380  1.00  0.00    -0.326 N 
ATOM      2  H2  UNL     1      25.219  38.231  47.322  1.00  0.00     0.169 HD
HETATM    3  C3  UNL     1      24.233  39.504  45.933  1.00  0.00     0.213 C 
HETATM    4  N3  UNL     1      23.849  40.608  46.731  1.00  0.00    -0.061 NA
HETATM    5  N4  UNL     1      23.660  39.304  44.819  1.00  0.00    -0.241 N 
ATOM      6  H4  UNL     1      23.946  38.506  44.251  1.00  0.00     0.197 HD
ENDROOT
BRANCH   1   7
HETATM    7  C2  UNL     1      26.344  38.270  45.543  1.00  0.00     0.178 C 
HETATM    8  N1  UNL     1      27.131  37.322  45.865  1.00  0.00    -0.390 N 
HETATM    9  C1  UNL     1      28.257  36.872  45.105  1.00  0.00     0.147 C 
ATOM     10  H1  UNL     1      26.941  36.839  46.743  1.00  0.00     0.159 HD
ENDBRANCH   1   7
BRANCH   5  11
HETATM   11  O1  UNL     1      22.679  40.121  44.361  1.00  0.00    -0.287 OA
ATOM     12  H1  UNL     1      22.475  40.947  44.784  1.00  0.00     0.244 HD
ENDBRANCH   5  11
TORSDOF 2
ENDMDL
MODEL 2
REMARK VINA RESULT: -4.519991776      3.016      4.626
REMARK  2 active torsions:
REMARK  status: ('A' for Active; 'I' for Inactive)
REMARK    1  A    between atoms: C2_4  and  N2_5 
REMARK       I    between atoms: N2_5  and  C3_7 
REMARK    2  A    between atoms: N4_9  and  O1_11 
ROOT
HETATM    1  N2  UNL     1      27.777  38.793  45.996  1.00  0.00    -0.326 N 
ATOM      2  H2  UNL     1      28.428  39.498  46.339  1.00  0.00     0.169 HD
HETATM    3  C3  UNL     1      28.231  37.446  45.817  1.00  0.00     0.213 C 
HETATM    4  N3  UNL     1      28.925  36.786  46.858  1.00  0.00    -0.061 NA
HETATM    5  N4  UNL     1      28.011  36.840  44.724  1.00  0.00    -0.241 N 
ATOM      6  H4  UNL     1      27.509  37.326  43.981  1.00  0.00     0.197 HD
ENDROOT
BRANCH   1   7
HETATM    7  C2  UNL     1      26.449  39.162  45.706  1.00  0.00     0.178 C 
HETATM    8  N1  UNL     1      25.489  38.364  45.953  1.00  0.00    -0.390 N 
HETATM    9  C1  UNL     1      24.102  38.618  45.708  1.00  0.00     0.147 C 
ATOM     10  H1  UNL     1      25.730  37.461  46.363  1.00  0.00     0.159 HD
ENDBRANCH   1   7
BRANCH   5  11
HETATM   11  O1  UNL     1      28.424  35.564  44.517  1.00  0.00    -0.287 OA
ATOM     12  H1  UNL     1      28.202  35.087  43.727  1.00  0.00     0.244 HD
ENDBRANCH   5  11
TORSDOF 2
ENDMDL
MODEL 3
REMARK VINA RESULT: -4.364268920      2.901      4.717
REMARK  2 active torsions:
REMARK  status: ('A' for Active; 'I' for Inactive)
REMARK    1  A    between atoms: C2_4  and  N2_5 
REMARK       I    between atoms: N2_5  and  C3_7 
REMARK    2  A    between atoms: N4_9  and  O1_11 
ROOT
HETATM    1  N2  UNL     1      26.057  37.755  45.653  1.00  0.00    -0.326 N 
ATOM      2  H2  UNL     1      25.588  36.861  45.508  1.00  0.00     0.169 HD
HETATM    3  C3  UNL     1      27.489  37.798  45.684  1.00  0.00     0.213 C 
HETATM    4  N3  UNL     1      28.241  37.185  44.654  1.00  0.00    -0.061 NA
HETATM    5  N4  UNL     1      28.087  38.389  46.634  1.00  0.00    -0.241 N 
ATOM      6  H4  UNL     1      27.535  38.828  47.370  1.00  0.00     0.197 HD
ENDROOT
BRANCH   1   7
HETATM    7  C2  UNL     1      25.286  38.921  45.818  1.00  0.00     0.178 C 
HETATM    8  N1  UNL     1      24.145  39.025  45.262  1.00  0.00    -0.390 N 
HETATM    9  C1  UNL     1      23.267  40.152  45.352  1.00  0.00     0.147 C 
ATOM     10  H1  UNL     1      23.828  38.234  44.702  1.00  0.00     0.159 HD
ENDBRANCH   1   7
BRANCH   5  11
HETATM   11  O1  UNL     1      29.441  38.452  46.698  1.00  0.00    -0.287 OA
ATOM     12  H1  UNL     1      29.890  38.863  47.427  1.00  0.00     0.244 HD
ENDBRANCH   5  11
TORSDOF 2
ENDMDL
MODEL 4
REMARK VINA RESULT: -4.135158344      3.400      5.127
REMARK  2 active torsions:
REMARK  status: ('A' for Active; 'I' for Inactive)
REMARK    1  A    between atoms: C2_4  and  N2_5 
REMARK       I    between atoms: N2_5  and  C3_7 
REMARK    2  A    between atoms: N4_9  and  O1_11 
ROOT
HETATM    1  N2  UNL     1      27.723  38.436  45.630  1.00  0.00    -0.326 N 
ATOM      2  H2  UNL     1      27.952  39.249  45.059  1.00  0.00     0.169 HD
HETATM    3  C3  UNL     1      28.776  37.581  46.090  1.00  0.00     0.213 C 
HETATM    4  N3  UNL     1      29.912  38.132  46.729  1.00  0.00    -0.061 NA
HETATM    5  N4  UNL     1      28.693  36.325  45.927  1.00  0.00    -0.241 N 
ATOM      6  H4  UNL     1      27.869  35.939  45.466  1.00  0.00     0.197 HD
ENDROOT
BRANCH   1   7
HETATM    7  C2  UNL     1      26.376  38.178  45.953  1.00  0.00     0.178 C 
HETATM    8  N1  UNL     1      25.439  38.809  45.367  1.00  0.00    -0.390 N 
HETATM    9  C1  UNL     1      24.038  38.640  45.602  1.00  0.00     0.147 C 
ATOM     10  H1  UNL     1      25.712  39.499  44.666  1.00  0.00     0.159 HD
ENDBRANCH   1   7
BRANCH   5  11
HETATM   11  O1  UNL     1      29.669  35.483  46.348  1.00  0.00    -0.287 OA
ATOM     12  H1  UNL     1      29.482  34.587  46.604  1.00  0.00     0.244 HD
ENDBRANCH   5  11
TORSDOF 2
ENDMDL
MODEL 5
REMARK VINA RESULT: -4.009142175      1.158      1.158
REMARK  2 active torsions:
REMARK  status: ('A' for Active; 'I' for Inactive)
REMARK    1  A    between atoms: C2_4  and  N2_5 
REMARK       I    between atoms: N2_5  and  C3_7 
REMARK    2  A    between atoms: N4_9  and  O1_11 
ROOT
HETATM    1  N2  UNL     1      24.485  39.539  46.215  1.00  0.00    -0.326 N 
ATOM      2  H2  UNL     1      24.285  39.460  47.211  1.00  0.00     0.169 HD
HETATM    3  C3  UNL     1      23.479  40.055  45.335  1.00  0.00     0.213 C 
HETATM    4  N3  UNL     1      22.819  41.268  45.644  1.00  0.00    -0.061 NA
HETATM    5  N4  UNL     1      23.177  39.427  44.275  1.00  0.00    -0.241 N 
ATOM      6  H4  UNL     1      23.660  38.554  44.062  1.00  0.00     0.197 HD
ENDROOT
BRANCH   1   7
HETATM    7  C2  UNL     1      25.746  39.140  45.730  1.00  0.00     0.178 C 
HETATM    8  N1  UNL     1      26.170  37.956  45.932  1.00  0.00    -0.390 N 
HETATM    9  C1  UNL     1      27.426  37.429  45.494  1.00  0.00     0.147 C 
ATOM     10  H1  UNL     1      25.559  37.327  46.454  1.00  0.00     0.159 HD
ENDBRANCH   1   7
BRANCH   5  11
HETATM   11  O1  UNL     1      22.230  39.883  43.417  1.00  0.00    -0.287 OA
ATOM     12  H1  UNL     1      21.324  39.605  43.476  1.00  0.00     0.244 HD
ENDBRANCH   5  11
TORSDOF 2
ENDMDL
