MODEL 1
REMARK VINA RESULT: -5.268697476      0.000      0.000
REMARK  4 active torsions:
REMARK  status: ('A' for Active; 'I' for Inactive)
REMARK    1  A    between atoms: C3_3  and  N1_4 
REMARK    2  A    between atoms: C3_3  and  N2_8 
REMARK    3  A    between atoms: N2_8  and  N3_10 
REMARK    4  A    between atoms: C4_12  and  C5_13 
ROOT
HETATM    1  C1  UNL     1      32.087  74.139  14.986  1.00  0.00     0.016 C 
HETATM    2  C2  UNL     1      30.930  74.078  14.616  1.00  0.00    -0.062 C 
HETATM    3  C3  UNL     1      29.530  73.978  14.170  1.00  0.00     0.376 C 
ENDROOT
BRANCH   3   4
HETATM    4  N1  UNL     1      28.667  74.698  15.070  1.00  0.00    -0.046 N 
ATOM      5  H13 UNL     1      28.687  75.702  14.894  1.00  0.00     0.278 HD
ATOM      6  H12 UNL     1      27.682  74.529  14.868  1.00  0.00     0.278 HD
ATOM      7  H11 UNL     1      28.902  74.476  16.038  1.00  0.00     0.278 HD
ENDBRANCH   3   4
BRANCH   3   8
HETATM    8  N2  UNL     1      29.433  74.453  12.807  1.00  0.00    -0.296 N 
ATOM      9  H2  UNL     1      29.769  75.387  12.571  1.00  0.00     0.183 HD
BRANCH   8  10
HETATM   10  N3  UNL     1      28.890  73.652  11.826  1.00  0.00    -0.310 N 
HETATM   11  C4  UNL     1      29.071  72.390  11.723  1.00  0.00     0.159 C 
ATOM     12  H3  UNL     1      28.298  74.101  11.128  1.00  0.00     0.185 HD
BRANCH  11  13
HETATM   13  C5  UNL     1      28.442  71.648  10.638  1.00  0.00     0.166 A 
HETATM   14  N4  UNL     1      27.641  70.568  10.545  1.00  0.00    -0.222 N 
HETATM   15  O1  UNL     1      27.603  70.650   9.250  1.00  0.00    -0.153 OA
ATOM     16  H4  UNL     1      27.227  69.933  11.227  1.00  0.00     0.198 HD
HETATM   17  N5  UNL     1      28.373  71.692   9.303  1.00  0.00    -0.222 N 
ATOM     18  H5  UNL     1      28.773  72.310   8.597  1.00  0.00     0.198 HD
ENDBRANCH  11  13
ENDBRANCH   8  10
ENDBRANCH   3   8
TORSDOF 4
ENDMDL
MODEL 2
REMARK VINA RESULT: -5.015155822      3.227      3.623
REMARK  4 active torsions:
REMARK  status: ('A' for Active; 'I' for Inactive)
REMARK    1  A    between atoms: C3_3  and  N1_4 
REMARK    2  A    between atoms: C3_3  and  N2_8 
REMARK    3  A    between atoms: N2_8  and  N3_10 
REMARK    4  A    between atoms: C4_12  and  C5_13 
ROOT
HETATM    1  C1  UNL     1      31.049  71.160  15.980  1.00  0.00     0.016 C 
HETATM    2  C2  UNL     1      31.570  70.852  14.924  1.00  0.00    -0.062 C 
HETATM    3  C3  UNL     1      32.193  70.503  13.637  1.00  0.00     0.376 C 
ENDROOT
BRANCH   3   4
HETATM    4  N1  UNL     1      33.591  70.214  13.822  1.00  0.00    -0.046 N 
ATOM      5  H13 UNL     1      34.159  71.061  13.810  1.00  0.00     0.278 HD
ATOM      6  H12 UNL     1      33.794  69.909  14.773  1.00  0.00     0.278 HD
ATOM      7  H11 UNL     1      33.907  69.535  13.128  1.00  0.00     0.278 HD
ENDBRANCH   3   4
BRANCH   3   8
HETATM    8  N2  UNL     1      31.470  69.397  13.047  1.00  0.00    -0.296 N 
ATOM      9  H2  UNL     1      31.800  68.443  13.188  1.00  0.00     0.183 HD
BRANCH   8  10
HETATM   10  N3  UNL     1      30.339  69.626  12.295  1.00  0.00    -0.310 N 
HETATM   11  C4  UNL     1      30.298  70.316  11.219  1.00  0.00     0.159 C 
ATOM     12  H3  UNL     1      29.466  69.212  12.622  1.00  0.00     0.185 HD
BRANCH  11  13
HETATM   13  C5  UNL     1      29.037  70.489  10.508  1.00  0.00     0.166 A 
HETATM   14  N4  UNL     1      27.896  69.783  10.382  1.00  0.00    -0.222 N 
HETATM   15  O1  UNL     1      27.376  70.675   9.596  1.00  0.00    -0.153 OA
ATOM     16  H4  UNL     1      27.569  68.893  10.757  1.00  0.00     0.198 HD
HETATM   17  N5  UNL     1      28.460  71.381   9.695  1.00  0.00    -0.222 N 
ATOM     18  H5  UNL     1      28.758  72.274   9.303  1.00  0.00     0.198 HD
ENDBRANCH  11  13
ENDBRANCH   8  10
ENDBRANCH   3   8
TORSDOF 4
ENDMDL
MODEL 3
REMARK VINA RESULT: -4.996475070      2.838      5.213
REMARK  4 active torsions:
REMARK  status: ('A' for Active; 'I' for Inactive)
REMARK    1  A    between atoms: C3_3  and  N1_4 
REMARK    2  A    between atoms: C3_3  and  N2_8 
REMARK    3  A    between atoms: N2_8  and  N3_10 
REMARK    4  A    between atoms: C4_12  and  C5_13 
ROOT
HETATM    1  C1  UNL     1      30.363  69.752  12.442  1.00  0.00     0.016 C 
HETATM    2  C2  UNL     1      29.694  70.281  11.574  1.00  0.00    -0.062 C 
HETATM    3  C3  UNL     1      28.905  70.920  10.509  1.00  0.00     0.376 C 
ENDROOT
BRANCH   3   4
HETATM    4  N1  UNL     1      27.746  70.124  10.201  1.00  0.00    -0.046 N 
ATOM      5  H13 UNL     1      27.464  70.224   9.226  1.00  0.00     0.278 HD
ATOM      6  H12 UNL     1      27.960  69.127  10.194  1.00  0.00     0.278 HD
ATOM      7  H11 UNL     1      26.983  70.345  10.841  1.00  0.00     0.278 HD
ENDBRANCH   3   4
BRANCH   3   8
HETATM    8  N2  UNL     1      28.562  72.265  10.916  1.00  0.00    -0.296 N 
ATOM      9  H2  UNL     1      28.100  72.892  10.257  1.00  0.00     0.183 HD
BRANCH   8  10
HETATM   10  N3  UNL     1      28.856  72.705  12.188  1.00  0.00    -0.310 N 
HETATM   11  C4  UNL     1      29.172  73.906  12.496  1.00  0.00     0.159 C 
ATOM     12  H3  UNL     1      28.820  72.020  12.942  1.00  0.00     0.185 HD
BRANCH  11  13
HETATM   13  C5  UNL     1      29.463  74.253  13.881  1.00  0.00     0.166 A 
HETATM   14  N4  UNL     1      30.499  74.810  14.540  1.00  0.00    -0.222 N 
HETATM   15  O1  UNL     1      29.883  74.722  15.679  1.00  0.00    -0.153 OA
ATOM     16  H4  UNL     1      31.412  75.163  14.254  1.00  0.00     0.198 HD
HETATM   17  N5  UNL     1      28.868  74.182  15.077  1.00  0.00    -0.222 N 
ATOM     18  H5  UNL     1      27.963  73.837  15.395  1.00  0.00     0.198 HD
ENDBRANCH  11  13
ENDBRANCH   8  10
ENDBRANCH   3   8
TORSDOF 4
ENDMDL
MODEL 4
REMARK VINA RESULT: -4.981130625      1.402      1.556
REMARK  4 active torsions:
REMARK  status: ('A' for Active; 'I' for Inactive)
REMARK    1  A    between atoms: C3_3  and  N1_4 
REMARK    2  A    between atoms: C3_3  and  N2_8 
REMARK    3  A    between atoms: N2_8  and  N3_10 
REMARK    4  A    between atoms: C4_12  and  C5_13 
ROOT
HETATM    1  C1  UNL     1      30.264  76.096  15.516  1.00  0.00     0.016 C 
HETATM    2  C2  UNL     1      29.965  74.977  15.143  1.00  0.00    -0.062 C 
HETATM    3  C3  UNL     1      29.627  73.616  14.694  1.00  0.00     0.376 C 
ENDROOT
BRANCH   3   4
HETATM    4  N1  UNL     1      28.676  73.016  15.593  1.00  0.00    -0.046 N 
ATOM      5  H13 UNL     1      28.846  73.284  16.562  1.00  0.00     0.278 HD
ATOM      6  H12 UNL     1      27.745  73.418  15.486  1.00  0.00     0.278 HD
ATOM      7  H11 UNL     1      28.668  72.002  15.475  1.00  0.00     0.278 HD
ENDBRANCH   3   4
BRANCH   3   8
HETATM    8  N2  UNL     1      29.144  73.674  13.332  1.00  0.00    -0.296 N 
ATOM      9  H2  UNL     1      28.765  74.547  12.965  1.00  0.00     0.183 HD
BRANCH   8  10
HETATM   10  N3  UNL     1      29.193  72.557  12.526  1.00  0.00    -0.310 N 
HETATM   11  C4  UNL     1      28.430  72.340  11.523  1.00  0.00     0.159 C 
ATOM     12  H3  UNL     1      29.892  71.848  12.748  1.00  0.00     0.185 HD
BRANCH  11  13
HETATM   13  C5  UNL     1      28.577  71.117  10.744  1.00  0.00     0.166 A 
HETATM   14  N4  UNL     1      29.609  70.375  10.298  1.00  0.00    -0.222 N 
HETATM   15  O1  UNL     1      28.812  69.522   9.729  1.00  0.00    -0.153 OA
ATOM     16  H4  UNL     1      30.623  70.452  10.377  1.00  0.00     0.198 HD
HETATM   17  N5  UNL     1      27.795  70.213  10.142  1.00  0.00    -0.222 N 
ATOM     18  H5  UNL     1      26.785  70.108  10.046  1.00  0.00     0.198 HD
ENDBRANCH  11  13
ENDBRANCH   8  10
ENDBRANCH   3   8
TORSDOF 4
ENDMDL
MODEL 5
REMARK VINA RESULT: -4.911255344      9.508      9.960
REMARK  4 active torsions:
REMARK  status: ('A' for Active; 'I' for Inactive)
REMARK    1  A    between atoms: C3_3  and  N1_4 
REMARK    2  A    between atoms: C3_3  and  N2_8 
REMARK    3  A    between atoms: N2_8  and  N3_10 
REMARK    4  A    between atoms: C4_12  and  C5_13 
ROOT
HETATM    1  C1  UNL     1      33.253  68.818  18.383  1.00  0.00     0.016 C 
HETATM    2  C2  UNL     1      34.376  68.375  18.535  1.00  0.00    -0.062 C 
HETATM    3  C3  UNL     1      35.744  67.860  18.709  1.00  0.00     0.376 C 
ENDROOT
BRANCH   3   4
HETATM    4  N1  UNL     1      36.026  67.651  20.105  1.00  0.00    -0.046 N 
ATOM      5  H13 UNL     1      35.281  68.013  20.702  1.00  0.00     0.278 HD
ATOM      6  H12 UNL     1      35.961  66.667  20.363  1.00  0.00     0.278 HD
ATOM      7  H11 UNL     1      36.933  68.050  20.347  1.00  0.00     0.278 HD
ENDBRANCH   3   4
BRANCH   3   8
HETATM    8  N2  UNL     1      35.899  66.655  17.925  1.00  0.00    -0.296 N 
ATOM      9  H2  UNL     1      35.994  65.754  18.393  1.00  0.00     0.183 HD
BRANCH   8  10
HETATM   10  N3  UNL     1      35.921  66.716  16.549  1.00  0.00    -0.310 N 
HETATM   11  C4  UNL     1      35.902  65.703  15.767  1.00  0.00     0.159 C 
ATOM     12  H3  UNL     1      35.955  67.640  16.120  1.00  0.00     0.185 HD
BRANCH  11  13
HETATM   13  C5  UNL     1      35.928  65.894  14.323  1.00  0.00     0.166 A 
HETATM   14  N4  UNL     1      35.638  66.902  13.476  1.00  0.00    -0.222 N 
HETATM   15  O1  UNL     1      35.949  66.185  12.440  1.00  0.00    -0.153 OA
ATOM     16  H4  UNL     1      35.303  67.857  13.602  1.00  0.00     0.198 HD
HETATM   17  N5  UNL     1      36.238  65.193  13.226  1.00  0.00    -0.222 N 
ATOM     18  H5  UNL     1      36.572  64.243  13.067  1.00  0.00     0.198 HD
ENDBRANCH  11  13
ENDBRANCH   8  10
ENDBRANCH   3   8
TORSDOF 4
ENDMDL
