MODEL 1
REMARK VINA RESULT: -5.099026813      0.000      0.000
REMARK  5 active torsions:
REMARK  status: ('A' for Active; 'I' for Inactive)
REMARK    1  A    between atoms: C1_2  and  N2_4 
REMARK    2  A    between atoms: N2_4  and  N3_6 
REMARK    3  A    between atoms: N3_6  and  O1_8 
REMARK    4  A    between atoms: O1_8  and  C2_9 
REMARK    5  A    between atoms: C2_9  and  C3_10 
ROOT
HETATM    1  O1  UNL     1      14.504  10.876  20.885  1.00  0.00    -0.263 OA
ENDROOT
BRANCH   1   2
HETATM    2  N3  UNL     1      15.161   9.771  21.207  1.00  0.00    -0.206 N 
ATOM      3  H3  UNL     1      15.666   9.217  20.514  1.00  0.00     0.216 HD
BRANCH   2   4
HETATM    4  N2  UNL     1      15.118   9.417  22.535  1.00  0.00    -0.259 N 
ATOM      5  H2  UNL     1      14.262   9.055  22.954  1.00  0.00     0.191 HD
BRANCH   4   6
HETATM    6  C1  UNL     1      16.303   9.569  23.312  1.00  0.00     0.201 C 
HETATM    7  N1  UNL     1      17.338   8.622  23.290  1.00  0.00    -0.068 NA
HETATM    8  S1  UNL     1      16.442  10.914  24.262  1.00  0.00    -0.043 SA
ENDBRANCH   4   6
ENDBRANCH   2   4
ENDBRANCH   1   2
BRANCH   1   9
HETATM    9  C2  UNL     1      13.152  10.670  21.151  1.00  0.00     0.235 C 
BRANCH   9  10
HETATM   10  C3  UNL     1      12.318  10.660  19.902  1.00  0.00     0.212 C 
HETATM   11  C4  UNL     1      10.915  11.090  20.172  1.00  0.00     0.037 C 
HETATM   12  C5  UNL     1      10.086   9.931  19.622  1.00  0.00     0.029 C 
HETATM   13  C6  UNL     1      11.013   9.397  18.548  1.00  0.00     0.233 C 
HETATM   14  N4  UNL     1      12.284   9.373  19.267  1.00  0.00    -0.069 N 
ATOM     15  H42 UNL     1      13.098   9.162  18.689  1.00  0.00     0.277 HD
ATOM     16  H41 UNL     1      12.401   8.583  19.900  1.00  0.00     0.277 HD
ENDBRANCH   9  10
ENDBRANCH   1   9
TORSDOF 5
ENDMDL
MODEL 2
REMARK VINA RESULT: -4.945269218      1.150      1.151
REMARK  5 active torsions:
REMARK  status: ('A' for Active; 'I' for Inactive)
REMARK    1  A    between atoms: C1_2  and  N2_4 
REMARK    2  A    between atoms: N2_4  and  N3_6 
REMARK    3  A    between atoms: N3_6  and  O1_8 
REMARK    4  A    between atoms: O1_8  and  C2_9 
REMARK    5  A    between atoms: C2_9  and  C3_10 
ROOT
HETATM    1  O1  UNL     1      13.553  11.652  21.161  1.00  0.00    -0.263 OA
ENDROOT
BRANCH   1   2
HETATM    2  N3  UNL     1      14.525  11.364  22.016  1.00  0.00    -0.206 N 
ATOM      3  H3  UNL     1      14.911  12.060  22.654  1.00  0.00     0.216 HD
BRANCH   2   4
HETATM    4  N2  UNL     1      14.980  10.066  21.987  1.00  0.00    -0.259 N 
ATOM      5  H2  UNL     1      15.047   9.554  21.107  1.00  0.00     0.191 HD
BRANCH   4   6
HETATM    6  C1  UNL     1      15.355   9.456  23.218  1.00  0.00     0.201 C 
HETATM    7  N1  UNL     1      16.643   8.943  23.437  1.00  0.00    -0.068 NA
HETATM    8  S1  UNL     1      14.220   9.360  24.415  1.00  0.00    -0.043 SA
ENDBRANCH   4   6
ENDBRANCH   2   4
ENDBRANCH   1   2
BRANCH   1   9
HETATM    9  C2  UNL     1      12.749  10.522  21.022  1.00  0.00     0.235 C 
BRANCH   9  10
HETATM   10  C3  UNL     1      11.973  10.527  19.735  1.00  0.00     0.212 C 
HETATM   11  C4  UNL     1      10.546  10.903  19.954  1.00  0.00     0.037 C 
HETATM   12  C5  UNL     1       9.782   9.738  19.328  1.00  0.00     0.029 C 
HETATM   13  C6  UNL     1      10.774   9.270  18.282  1.00  0.00     0.233 C 
HETATM   14  N4  UNL     1      12.012   9.262  19.059  1.00  0.00    -0.069 N 
ATOM     15  H42 UNL     1      12.857   9.097  18.513  1.00  0.00     0.277 HD
ATOM     16  H41 UNL     1      12.126   8.455  19.671  1.00  0.00     0.277 HD
ENDBRANCH   9  10
ENDBRANCH   1   9
TORSDOF 5
ENDMDL
MODEL 3
REMARK VINA RESULT: -4.924446976      3.358      5.716
REMARK  5 active torsions:
REMARK  status: ('A' for Active; 'I' for Inactive)
REMARK    1  A    between atoms: C1_2  and  N2_4 
REMARK    2  A    between atoms: N2_4  and  N3_6 
REMARK    3  A    between atoms: N3_6  and  O1_8 
REMARK    4  A    between atoms: O1_8  and  C2_9 
REMARK    5  A    between atoms: C2_9  and  C3_10 
ROOT
HETATM    1  O1  UNL     1      13.109  10.452  19.298  1.00  0.00    -0.263 OA
ENDROOT
BRANCH   1   2
HETATM    2  N3  UNL     1      12.423   9.317  19.303  1.00  0.00    -0.206 N 
ATOM      3  H3  UNL     1      12.709   8.513  19.861  1.00  0.00     0.216 HD
BRANCH   2   4
HETATM    4  N2  UNL     1      11.301   9.294  18.507  1.00  0.00    -0.259 N 
ATOM      5  H2  UNL     1      11.315   8.836  17.596  1.00  0.00     0.191 HD
BRANCH   4   6
HETATM    6  C1  UNL     1      10.119   9.927  18.990  1.00  0.00     0.201 C 
HETATM    7  N1  UNL     1       9.781   9.940  20.351  1.00  0.00    -0.068 NA
HETATM    8  S1  UNL     1       9.130  10.664  17.890  1.00  0.00    -0.043 SA
ENDBRANCH   4   6
ENDBRANCH   2   4
ENDBRANCH   1   2
BRANCH   1   9
HETATM    9  C2  UNL     1      13.266  10.869  20.619  1.00  0.00     0.235 C 
BRANCH   9  10
HETATM   10  C3  UNL     1      14.711  10.985  21.013  1.00  0.00     0.212 C 
HETATM   11  C4  UNL     1      15.586  11.235  19.830  1.00  0.00     0.037 C 
HETATM   12  C5  UNL     1      16.616  10.109  19.918  1.00  0.00     0.029 C 
HETATM   13  C6  UNL     1      16.627   9.845  21.411  1.00  0.00     0.233 C 
HETATM   14  N4  UNL     1      15.195   9.822  21.699  1.00  0.00    -0.069 N 
ATOM     15  H42 UNL     1      14.960   9.783  22.690  1.00  0.00     0.277 HD
ATOM     16  H41 UNL     1      14.725   8.952  21.448  1.00  0.00     0.277 HD
ENDBRANCH   9  10
ENDBRANCH   1   9
TORSDOF 5
ENDMDL
MODEL 4
REMARK VINA RESULT: -4.919167928      3.298      5.567
REMARK  5 active torsions:
REMARK  status: ('A' for Active; 'I' for Inactive)
REMARK    1  A    between atoms: C1_2  and  N2_4 
REMARK    2  A    between atoms: N2_4  and  N3_6 
REMARK    3  A    between atoms: N3_6  and  O1_8 
REMARK    4  A    between atoms: O1_8  and  C2_9 
REMARK    5  A    between atoms: C2_9  and  C3_10 
ROOT
HETATM    1  O1  UNL     1      13.309  10.448  19.086  1.00  0.00    -0.263 OA
ENDROOT
BRANCH   1   2
HETATM    2  N3  UNL     1      12.573   9.363  19.281  1.00  0.00    -0.206 N 
ATOM      3  H3  UNL     1      12.872   8.608  19.899  1.00  0.00     0.216 HD
BRANCH   2   4
HETATM    4  N2  UNL     1      11.381   9.320  18.596  1.00  0.00    -0.259 N 
ATOM      5  H2  UNL     1      11.283   8.758  17.751  1.00  0.00     0.191 HD
BRANCH   4   6
HETATM    6  C1  UNL     1      10.287  10.080  19.100  1.00  0.00     0.201 C 
HETATM    7  N1  UNL     1      10.236  10.527  20.429  1.00  0.00    -0.068 NA
HETATM    8  S1  UNL     1       9.048  10.436  18.066  1.00  0.00    -0.043 SA
ENDBRANCH   4   6
ENDBRANCH   2   4
ENDBRANCH   1   2
BRANCH   1   9
HETATM    9  C2  UNL     1      14.323  10.462  20.043  1.00  0.00     0.235 C 
BRANCH   9  10
HETATM   10  C3  UNL     1      13.846  10.972  21.374  1.00  0.00     0.212 C 
HETATM   11  C4  UNL     1      14.428  12.309  21.692  1.00  0.00     0.037 C 
HETATM   12  C5  UNL     1      15.078  12.087  23.056  1.00  0.00     0.029 C 
HETATM   13  C6  UNL     1      14.217  10.967  23.608  1.00  0.00     0.233 C 
HETATM   14  N4  UNL     1      14.149  10.076  22.453  1.00  0.00    -0.069 N 
ATOM     15  H42 UNL     1      13.500   9.296  22.554  1.00  0.00     0.277 HD
ATOM     16  H41 UNL     1      14.978   9.500  22.309  1.00  0.00     0.277 HD
ENDBRANCH   9  10
ENDBRANCH   1   9
TORSDOF 5
ENDMDL
MODEL 5
REMARK VINA RESULT: -4.857327340      2.201      2.732
REMARK  5 active torsions:
REMARK  status: ('A' for Active; 'I' for Inactive)
REMARK    1  A    between atoms: C1_2  and  N2_4 
REMARK    2  A    between atoms: N2_4  and  N3_6 
REMARK    3  A    between atoms: N3_6  and  O1_8 
REMARK    4  A    between atoms: O1_8  and  C2_9 
REMARK    5  A    between atoms: C2_9  and  C3_10 
ROOT
HETATM    1  O1  UNL     1      14.200  10.922  20.720  1.00  0.00    -0.263 OA
ENDROOT
BRANCH   1   2
HETATM    2  N3  UNL     1      14.969   9.846  20.809  1.00  0.00    -0.206 N 
ATOM      3  H3  UNL     1      15.137   9.371  21.696  1.00  0.00     0.216 HD
BRANCH   2   4
HETATM    4  N2  UNL     1      15.528   9.412  19.630  1.00  0.00    -0.259 N 
ATOM      5  H2  UNL     1      15.307   8.490  19.254  1.00  0.00     0.191 HD
BRANCH   4   6
HETATM    6  C1  UNL     1      16.423  10.284  18.946  1.00  0.00     0.201 C 
HETATM    7  N1  UNL     1      16.157  10.766  17.655  1.00  0.00    -0.068 NA
HETATM    8  S1  UNL     1      17.813  10.731  19.719  1.00  0.00    -0.043 SA
ENDBRANCH   4   6
ENDBRANCH   2   4
ENDBRANCH   1   2
BRANCH   1   9
HETATM    9  C2  UNL     1      12.884  10.536  20.973  1.00  0.00     0.235 C 
BRANCH   9  10
HETATM   10  C3  UNL     1      12.035  10.553  19.734  1.00  0.00     0.212 C 
HETATM   11  C4  UNL     1      10.634  10.972  20.033  1.00  0.00     0.037 C 
HETATM   12  C5  UNL     1       9.801   9.824  19.465  1.00  0.00     0.029 C 
HETATM   13  C6  UNL     1      10.717   9.319  18.367  1.00  0.00     0.233 C 
HETATM   14  N4  UNL     1      11.997   9.282  19.070  1.00  0.00    -0.069 N 
ATOM     15  H42 UNL     1      12.803   9.087  18.477  1.00  0.00     0.277 HD
ATOM     16  H41 UNL     1      12.124   8.476  19.682  1.00  0.00     0.277 HD
ENDBRANCH   9  10
ENDBRANCH   1   9
TORSDOF 5
ENDMDL
