MODEL 1
REMARK VINA RESULT: -5.756927551      0.000      0.000
REMARK  4 active torsions:
REMARK  status: ('A' for Active; 'I' for Inactive)
REMARK    1  A    between atoms: N1_1  and  C1_5 
REMARK    2  A    between atoms: C1_5  and  C2_6 
REMARK       I    between atoms: C2_6  and  N2_8 
REMARK    3  A    between atoms: N2_8  and  C3_10 
REMARK    4  A    between atoms: C5_12  and  C6_13 
ROOT
HETATM    1  C3  UNL     1      12.380  10.434  20.019  1.00  0.00     0.201 C 
HETATM    2  C4  UNL     1      10.890  10.789  20.010  1.00  0.00     0.084 C 
HETATM    3  C5  UNL     1      10.604  10.381  18.555  1.00  0.00     0.191 C 
HETATM    4  N4  UNL     1      11.398   9.205  18.459  1.00  0.00    -0.325 N 
ATOM      5  H4  UNL     1      11.200   8.437  17.818  1.00  0.00     0.180 HD
HETATM    6  N5  UNL     1      12.356   9.220  19.241  1.00  0.00    -0.317 N 
ATOM      7  H5  UNL     1      13.042   8.470  19.325  1.00  0.00     0.182 HD
ENDROOT
BRANCH   1   8
HETATM    8  N2  UNL     1      12.890  10.225  21.320  1.00  0.00    -0.337 N 
HETATM    9  C2  UNL     1      13.907  11.077  21.817  1.00  0.00     0.244 C 
HETATM   10  O1  UNL     1      14.357  12.027  21.096  1.00  0.00    -0.272 OA
ATOM     11  H2  UNL     1      12.529   9.465  21.897  1.00  0.00     0.164 HD
BRANCH   9  12
HETATM   12  C1  UNL     1      14.477  10.897  23.181  1.00  0.00     0.332 C 
BRANCH  12  13
HETATM   13  N1  UNL     1      14.313   9.516  23.584  1.00  0.00    -0.071 N 
ATOM     14  H13 UNL     1      13.388   9.153  23.357  1.00  0.00     0.274 HD
ATOM     15  H12 UNL     1      14.863   8.877  23.011  1.00  0.00     0.274 HD
ATOM     16  H11 UNL     1      14.530   9.432  24.578  1.00  0.00     0.274 HD
ENDBRANCH  12  13
ENDBRANCH   9  12
ENDBRANCH   1   8
BRANCH   3  17
HETATM   17  C6  UNL     1       9.162  10.120  18.370  1.00  0.00     0.255 C 
HETATM   18  N3  UNL     1       8.330  11.239  18.084  1.00  0.00    -0.060 NA
HETATM   19  O2  UNL     1       8.747   8.954  18.471  1.00  0.00    -0.275 OA
ENDBRANCH   3  17
TORSDOF 4
ENDMDL
MODEL 2
REMARK VINA RESULT: -5.640470759      2.171      5.982
REMARK  4 active torsions:
REMARK  status: ('A' for Active; 'I' for Inactive)
REMARK    1  A    between atoms: N1_1  and  C1_5 
REMARK    2  A    between atoms: C1_5  and  C2_6 
REMARK       I    between atoms: C2_6  and  N2_8 
REMARK    3  A    between atoms: N2_8  and  C3_10 
REMARK    4  A    between atoms: C5_12  and  C6_13 
ROOT
HETATM    1  C3  UNL     1      13.554  10.600  20.053  1.00  0.00     0.201 C 
HETATM    2  C4  UNL     1      15.014  10.189  19.841  1.00  0.00     0.084 C 
HETATM    3  C5  UNL     1      15.552  10.689  21.192  1.00  0.00     0.191 C 
HETATM    4  N4  UNL     1      14.477  10.321  22.048  1.00  0.00    -0.325 N 
ATOM      5  H4  UNL     1      14.585  10.124  23.042  1.00  0.00     0.180 HD
HETATM    6  N5  UNL     1      13.396  10.269  21.449  1.00  0.00    -0.317 N 
ATOM      7  H5  UNL     1      12.508  10.024  21.885  1.00  0.00     0.182 HD
ENDROOT
BRANCH   1   8
HETATM    8  N2  UNL     1      12.653   9.886  19.231  1.00  0.00    -0.337 N 
HETATM    9  C2  UNL     1      11.262  10.128  19.345  1.00  0.00     0.244 C 
HETATM   10  O1  UNL     1      10.826  10.984  20.182  1.00  0.00    -0.272 OA
ATOM     11  H2  UNL     1      13.002   9.202  18.561  1.00  0.00     0.164 HD
BRANCH   9  12
HETATM   12  C1  UNL     1      10.272   9.401  18.501  1.00  0.00     0.332 C 
BRANCH  12  13
HETATM   13  N1  UNL     1       9.022  10.131  18.504  1.00  0.00    -0.071 N 
ATOM     14  H13 UNL     1       8.475   9.960  19.347  1.00  0.00     0.274 HD
ATOM     15  H12 UNL     1       9.159  11.135  18.622  1.00  0.00     0.274 HD
ATOM     16  H11 UNL     1       8.504   9.907  17.653  1.00  0.00     0.274 HD
ENDBRANCH  12  13
ENDBRANCH   9  12
ENDBRANCH   1   8
BRANCH   3  17
HETATM   17  C6  UNL     1      16.816  10.001  21.526  1.00  0.00     0.255 C 
HETATM   18  N3  UNL     1      16.773   9.033  22.569  1.00  0.00    -0.060 NA
HETATM   19  O2  UNL     1      17.843  10.294  20.893  1.00  0.00    -0.275 OA
ENDBRANCH   3  17
TORSDOF 4
ENDMDL
MODEL 3
REMARK VINA RESULT: -5.614288199      1.427      1.432
REMARK  4 active torsions:
REMARK  status: ('A' for Active; 'I' for Inactive)
REMARK    1  A    between atoms: N1_1  and  C1_5 
REMARK    2  A    between atoms: C1_5  and  C2_6 
REMARK       I    between atoms: C2_6  and  N2_8 
REMARK    3  A    between atoms: N2_8  and  C3_10 
REMARK    4  A    between atoms: C5_12  and  C6_13 
ROOT
HETATM    1  C3  UNL     1      13.199  10.659  20.103  1.00  0.00     0.201 C 
HETATM    2  C4  UNL     1      11.726  10.937  20.418  1.00  0.00     0.084 C 
HETATM    3  C5  UNL     1      11.150  10.473  19.070  1.00  0.00     0.191 C 
HETATM    4  N4  UNL     1      11.969   9.337  18.820  1.00  0.00    -0.325 N 
ATOM      5  H4  UNL     1      11.677   8.542  18.252  1.00  0.00     0.180 HD
HETATM    6  N5  UNL     1      13.073   9.423  19.370  1.00  0.00    -0.317 N 
ATOM      7  H5  UNL     1      13.802   8.712  19.312  1.00  0.00     0.182 HD
ENDROOT
BRANCH   1   8
HETATM    8  N2  UNL     1      13.994  10.513  21.262  1.00  0.00    -0.337 N 
HETATM    9  C2  UNL     1      15.355  10.142  21.133  1.00  0.00     0.244 C 
HETATM   10  O1  UNL     1      15.859   9.943  19.980  1.00  0.00    -0.272 OA
ATOM     11  H2  UNL     1      13.591  10.673  22.185  1.00  0.00     0.164 HD
BRANCH   9  12
HETATM   12  C1  UNL     1      16.235   9.975  22.324  1.00  0.00     0.332 C 
BRANCH  12  13
HETATM   13  N1  UNL     1      15.461   9.408  23.407  1.00  0.00    -0.071 N 
ATOM     14  H13 UNL     1      15.897   9.559  24.317  1.00  0.00     0.274 HD
ATOM     15  H12 UNL     1      14.596   9.920  23.576  1.00  0.00     0.274 HD
ATOM     16  H11 UNL     1      15.296   8.419  23.216  1.00  0.00     0.274 HD
ENDBRANCH  12  13
ENDBRANCH   9  12
ENDBRANCH   1   8
BRANCH   3  17
HETATM   17  C6  UNL     1       9.720  10.134  19.213  1.00  0.00     0.255 C 
HETATM   18  N3  UNL     1       8.813  10.741  18.299  1.00  0.00    -0.060 NA
HETATM   19  O2  UNL     1       9.378   9.347  20.110  1.00  0.00    -0.275 OA
ENDBRANCH   3  17
TORSDOF 4
ENDMDL
MODEL 4
REMARK VINA RESULT: -5.208874700      1.979      2.422
REMARK  4 active torsions:
REMARK  status: ('A' for Active; 'I' for Inactive)
REMARK    1  A    between atoms: N1_1  and  C1_5 
REMARK    2  A    between atoms: C1_5  and  C2_6 
REMARK       I    between atoms: C2_6  and  N2_8 
REMARK    3  A    between atoms: N2_8  and  C3_10 
REMARK    4  A    between atoms: C5_12  and  C6_13 
ROOT
HETATM    1  C3  UNL     1      12.413   9.866  19.770  1.00  0.00     0.201 C 
HETATM    2  C4  UNL     1      11.410   9.380  18.719  1.00  0.00     0.084 C 
HETATM    3  C5  UNL     1      10.132   9.797  19.465  1.00  0.00     0.191 C 
HETATM    4  N4  UNL     1      10.551  11.042  20.013  1.00  0.00    -0.325 N 
ATOM      5  H4  UNL     1       9.913  11.805  20.241  1.00  0.00     0.180 HD
HETATM    6  N5  UNL     1      11.774  11.092  20.182  1.00  0.00    -0.317 N 
ATOM      7  H5  UNL     1      12.270  11.898  20.564  1.00  0.00     0.182 HD
ENDROOT
BRANCH   1   8
HETATM    8  N2  UNL     1      13.704  10.087  19.242  1.00  0.00    -0.337 N 
HETATM    9  C2  UNL     1      14.701  10.675  20.058  1.00  0.00     0.244 C 
HETATM   10  O1  UNL     1      14.436  11.000  21.262  1.00  0.00    -0.272 OA
ATOM     11  H2  UNL     1      13.916   9.827  18.279  1.00  0.00     0.164 HD
BRANCH   9  12
HETATM   12  C1  UNL     1      16.078  10.929  19.548  1.00  0.00     0.332 C 
BRANCH  12  13
HETATM   13  N1  UNL     1      16.201  10.367  18.220  1.00  0.00    -0.071 N 
ATOM     14  H13 UNL     1      15.554  10.794  17.556  1.00  0.00     0.274 HD
ATOM     15  H12 UNL     1      17.072  10.636  17.764  1.00  0.00     0.274 HD
ATOM     16  H11 UNL     1      16.088   9.354  18.275  1.00  0.00     0.274 HD
ENDBRANCH  12  13
ENDBRANCH   9  12
ENDBRANCH   1   8
BRANCH   3  17
HETATM   17  C6  UNL     1       9.007   9.934  18.518  1.00  0.00     0.255 C 
HETATM   18  N3  UNL     1       8.783  11.223  17.955  1.00  0.00    -0.060 NA
HETATM   19  O2  UNL     1       8.317   8.935  18.259  1.00  0.00    -0.275 OA
ENDBRANCH   3  17
TORSDOF 4
ENDMDL
MODEL 5
REMARK VINA RESULT: -5.170227865      3.264      6.758
REMARK  4 active torsions:
REMARK  status: ('A' for Active; 'I' for Inactive)
REMARK    1  A    between atoms: N1_1  and  C1_5 
REMARK    2  A    between atoms: C1_5  and  C2_6 
REMARK       I    between atoms: C2_6  and  N2_8 
REMARK    3  A    between atoms: N2_8  and  C3_10 
REMARK    4  A    between atoms: C5_12  and  C6_13 
ROOT
HETATM    1  C3  UNL     1      14.450  10.788  23.720  1.00  0.00     0.201 C 
HETATM    2  C4  UNL     1      14.226   9.888  24.939  1.00  0.00     0.084 C 
HETATM    3  C5  UNL     1      14.493  10.953  26.016  1.00  0.00     0.191 C 
HETATM    4  N4  UNL     1      13.863  12.082  25.421  1.00  0.00    -0.325 N 
ATOM      5  H4  UNL     1      13.481  12.864  25.952  1.00  0.00     0.180 HD
HETATM    6  N5  UNL     1      13.833  12.006  24.187  1.00  0.00    -0.317 N 
ATOM      7  H5  UNL     1      13.424  12.714  23.577  1.00  0.00     0.182 HD
ENDROOT
BRANCH   1   8
HETATM    8  N2  UNL     1      13.836  10.294  22.548  1.00  0.00    -0.337 N 
HETATM    9  C2  UNL     1      13.790  11.106  21.388  1.00  0.00     0.244 C 
HETATM   10  O1  UNL     1      14.300  12.274  21.401  1.00  0.00    -0.272 OA
ATOM     11  H2  UNL     1      13.428   9.360  22.537  1.00  0.00     0.164 HD
BRANCH   9  12
HETATM   12  C1  UNL     1      13.153  10.631  20.127  1.00  0.00     0.332 C 
BRANCH  12  13
HETATM   13  N1  UNL     1      14.094   9.800  19.407  1.00  0.00    -0.071 N 
ATOM     14  H13 UNL     1      14.067   9.964  18.401  1.00  0.00     0.274 HD
ATOM     15  H12 UNL     1      15.062  10.076  19.572  1.00  0.00     0.274 HD
ATOM     16  H11 UNL     1      13.924   8.822  19.645  1.00  0.00     0.274 HD
ENDBRANCH  12  13
ENDBRANCH   9  12
ENDBRANCH   1   8
BRANCH   3  17
HETATM   17  C6  UNL     1      13.872  10.555  27.295  1.00  0.00     0.255 C 
HETATM   18  N3  UNL     1      13.884  11.512  28.350  1.00  0.00    -0.060 NA
HETATM   19  O2  UNL     1      13.377   9.421  27.393  1.00  0.00    -0.275 OA
ENDBRANCH   3  17
TORSDOF 4
ENDMDL
