MODEL 1
REMARK VINA RESULT: -8.242141124      0.000      0.000
REMARK  18 active torsions:
REMARK  status: ('A' for Active; 'I' for Inactive)
REMARK    1  A    between atoms: N1_1  and  C1_5 
REMARK    2  A    between atoms: C1_5  and  C2_6 
REMARK    3  A    between atoms: C1_5  and  C3_9 
REMARK    4  A    between atoms: C1_5  and  C13_31 
REMARK    5  A    between atoms: C2_6  and  O1_7 
REMARK    6  A    between atoms: C3_9  and  O2_10 
REMARK    7  A    between atoms: O2_10  and  C4_11 
REMARK    8  A    between atoms: C7_14  and  C8_15 
REMARK    9  A    between atoms: C8_15  and  N2_16 
REMARK   10  A    between atoms: N2_16  and  C9_19 
REMARK   11  A    between atoms: C9_19  and  C10_20 
REMARK   12  A    between atoms: C10_20  and  N3_21 
REMARK   13  A    between atoms: N3_21  and  S1_23 
REMARK   14  A    between atoms: S1_23  and  N4_24 
REMARK   15  A    between atoms: C13_31  and  C14_32 
REMARK   16  A    between atoms: C14_32  and  C15_33 
REMARK   17  A    between atoms: C14_32  and  C22_40 
REMARK   18  A    between atoms: C15_33  and  C16_34 
ROOT
HETATM    1  C1  UNL     1      23.166  12.245  23.175  1.00  0.00     0.166 C 
ENDROOT
BRANCH   1   2
HETATM    2  N1  UNL     1      22.393  13.323  23.656  1.00  0.00    -0.066 N 
ATOM      3  H13 UNL     1      22.939  14.004  24.183  1.00  0.00     0.275 HD
ATOM      4  H12 UNL     1      22.079  13.952  22.917  1.00  0.00     0.275 HD
ATOM      5  H11 UNL     1      21.626  12.921  24.195  1.00  0.00     0.275 HD
ENDBRANCH   1   2
BRANCH   1   6
HETATM    6  C2  UNL     1      23.973  12.771  21.980  1.00  0.00     0.205 C 
BRANCH   6   7
HETATM    7  O1  UNL     1      23.228  12.838  20.830  1.00  0.00    -0.398 OA
ATOM      8  H1  UNL     1      23.766  12.828  20.047  1.00  0.00     0.209 HD
ENDBRANCH   6   7
ENDBRANCH   1   6
BRANCH   1   9
HETATM    9  C3  UNL     1      22.286  11.105  22.618  1.00  0.00     0.216 C 
BRANCH   9  10
HETATM   10  O2  UNL     1      22.807  10.241  21.828  1.00  0.00    -0.349 OA
BRANCH  10  11
HETATM   11  C4  UNL     1      23.336   9.363  21.029  1.00  0.00     0.068 A 
HETATM   12  C5  UNL     1      24.149   9.738  19.945  1.00  0.00     0.037 A 
HETATM   13  C6  UNL     1      24.697   8.811  19.115  1.00  0.00     0.011 A 
HETATM   14  C7  UNL     1      24.501   7.459  19.268  1.00  0.00    -0.033 A 
HETATM   15  C11 UNL     1      23.706   7.081  20.327  1.00  0.00     0.011 A 
HETATM   16  C12 UNL     1      23.144   7.977  21.173  1.00  0.00     0.037 A 
BRANCH  14  17
HETATM   17  C8  UNL     1      25.104   6.459  18.355  1.00  0.00     0.270 C 
BRANCH  17  18
HETATM   18  N2  UNL     1      24.599   6.622  17.006  1.00  0.00    -0.070 N 
ATOM     19  H22 UNL     1      23.907   7.366  16.914  1.00  0.00     0.277 HD
ATOM     20  H21 UNL     1      25.283   7.013  16.357  1.00  0.00     0.277 HD
BRANCH  18  21
HETATM   21  C9  UNL     1      24.099   5.296  16.610  1.00  0.00     0.253 C 
BRANCH  21  22
HETATM   22  C10 UNL     1      22.621   5.281  16.899  1.00  0.00     0.161 C 
BRANCH  22  23
HETATM   23  N3  UNL     1      22.007   6.367  16.171  1.00  0.00    -0.301 N 
ATOM     24  H3  UNL     1      22.420   6.870  15.387  1.00  0.00     0.173 HD
BRANCH  23  25
HETATM   25  S1  UNL     1      20.450   6.667  16.861  1.00  0.00     0.312 S 
HETATM   26  O3  UNL     1      19.552   5.504  16.513  1.00  0.00    -0.183 OA
HETATM   27  O4  UNL     1      20.598   6.757  18.333  1.00  0.00    -0.183 OA
BRANCH  25  28
HETATM   28  N4  UNL     1      19.820   8.105  16.150  1.00  0.00    -0.312 N 
ATOM     29  H42 UNL     1      20.349   8.752  15.566  1.00  0.00     0.170 HD
ATOM     30  H41 UNL     1      18.839   8.185  16.417  1.00  0.00     0.170 HD
ENDBRANCH  25  28
ENDBRANCH  23  25
ENDBRANCH  22  23
ENDBRANCH  21  22
ENDBRANCH  18  21
ENDBRANCH  17  18
ENDBRANCH  14  17
ENDBRANCH  10  11
ENDBRANCH   9  10
ENDBRANCH   1   9
BRANCH   1  31
HETATM   31  C13 UNL     1      24.165  11.718  24.145  1.00  0.00     0.053 C 
BRANCH  31  32
HETATM   32  C14 UNL     1      24.615  12.588  25.240  1.00  0.00     0.032 C 
BRANCH  32  33
HETATM   33  C15 UNL     1      24.198  12.022  26.574  1.00  0.00     0.048 C 
BRANCH  33  34
HETATM   34  C16 UNL     1      23.041  12.599  27.236  1.00  0.00    -0.058 A 
HETATM   35  C17 UNL     1      21.760  12.096  27.152  1.00  0.00     0.007 A 
HETATM   36  C18 UNL     1      20.697  12.670  27.806  1.00  0.00     0.001 A 
HETATM   37  C19 UNL     1      20.938  13.797  28.574  1.00  0.00     0.000 A 
HETATM   38  C20 UNL     1      22.205  14.329  28.683  1.00  0.00     0.001 A 
HETATM   39  C21 UNL     1      23.233  13.725  28.015  1.00  0.00     0.007 A 
ENDBRANCH  33  34
ENDBRANCH  32  33
BRANCH  32  40
HETATM   40  C22 UNL     1      26.078  12.885  25.292  1.00  0.00    -0.013 A 
HETATM   41  C23 UNL     1      27.164  12.197  24.818  1.00  0.00     0.015 A 
HETATM   42  C24 UNL     1      28.373  12.710  25.036  1.00  0.00     0.008 A 
HETATM   43  C25 UNL     1      28.461  13.890  25.716  1.00  0.00     0.050 A 
HETATM   44  S2  UNL     1      26.828  14.253  26.038  1.00  0.00    -0.106 SA
ENDBRANCH  32  40
ENDBRANCH  31  32
ENDBRANCH   1  31
TORSDOF 18
ENDMDL
MODEL 2
REMARK VINA RESULT: -8.023500260      1.357      3.511
REMARK  18 active torsions:
REMARK  status: ('A' for Active; 'I' for Inactive)
REMARK    1  A    between atoms: N1_1  and  C1_5 
REMARK    2  A    between atoms: C1_5  and  C2_6 
REMARK    3  A    between atoms: C1_5  and  C3_9 
REMARK    4  A    between atoms: C1_5  and  C13_31 
REMARK    5  A    between atoms: C2_6  and  O1_7 
REMARK    6  A    between atoms: C3_9  and  O2_10 
REMARK    7  A    between atoms: O2_10  and  C4_11 
REMARK    8  A    between atoms: C7_14  and  C8_15 
REMARK    9  A    between atoms: C8_15  and  N2_16 
REMARK   10  A    between atoms: N2_16  and  C9_19 
REMARK   11  A    between atoms: C9_19  and  C10_20 
REMARK   12  A    between atoms: C10_20  and  N3_21 
REMARK   13  A    between atoms: N3_21  and  S1_23 
REMARK   14  A    between atoms: S1_23  and  N4_24 
REMARK   15  A    between atoms: C13_31  and  C14_32 
REMARK   16  A    between atoms: C14_32  and  C15_33 
REMARK   17  A    between atoms: C14_32  and  C22_40 
REMARK   18  A    between atoms: C15_33  and  C16_34 
ROOT
HETATM    1  C1  UNL     1      22.710  11.547  22.713  1.00  0.00     0.166 C 
ENDROOT
BRANCH   1   2
HETATM    2  N1  UNL     1      21.387  12.029  22.799  1.00  0.00    -0.066 N 
ATOM      3  H13 UNL     1      20.719  11.462  22.279  1.00  0.00     0.275 HD
ATOM      4  H12 UNL     1      20.973  11.902  23.723  1.00  0.00     0.275 HD
ATOM      5  H11 UNL     1      21.406  13.004  22.498  1.00  0.00     0.275 HD
ENDBRANCH   1   2
BRANCH   1   6
HETATM    6  C2  UNL     1      23.226  11.904  21.312  1.00  0.00     0.205 C 
BRANCH   6   7
HETATM    7  O1  UNL     1      22.223  11.956  20.378  1.00  0.00    -0.398 OA
ATOM      8  H1  UNL     1      22.517  11.698  19.513  1.00  0.00     0.209 HD
ENDBRANCH   6   7
ENDBRANCH   1   6
BRANCH   1   9
HETATM    9  C3  UNL     1      22.771  10.006  22.802  1.00  0.00     0.216 C 
BRANCH   9  10
HETATM   10  O2  UNL     1      23.191   9.337  21.792  1.00  0.00    -0.349 OA
BRANCH  10  11
HETATM   11  C4  UNL     1      23.616   8.658  20.769  1.00  0.00     0.068 A 
HETATM   12  C5  UNL     1      23.748   7.260  20.806  1.00  0.00     0.037 A 
HETATM   13  C6  UNL     1      24.194   6.560  19.729  1.00  0.00     0.011 A 
HETATM   14  C7  UNL     1      24.546   7.156  18.542  1.00  0.00    -0.033 A 
HETATM   15  C11 UNL     1      24.421   8.527  18.494  1.00  0.00     0.011 A 
HETATM   16  C12 UNL     1      23.979   9.255  19.547  1.00  0.00     0.037 A 
BRANCH  14  17
HETATM   17  C8  UNL     1      25.032   6.381  17.375  1.00  0.00     0.270 C 
BRANCH  17  18
HETATM   18  N2  UNL     1      23.926   5.968  16.534  1.00  0.00    -0.070 N 
ATOM     19  H22 UNL     1      23.142   6.621  16.538  1.00  0.00     0.277 HD
ATOM     20  H21 UNL     1      24.127   6.027  15.535  1.00  0.00     0.277 HD
BRANCH  18  21
HETATM   21  C9  UNL     1      23.571   4.614  16.986  1.00  0.00     0.253 C 
BRANCH  21  22
HETATM   22  C10 UNL     1      22.089   4.617  17.256  1.00  0.00     0.161 C 
BRANCH  22  23
HETATM   23  N3  UNL     1      21.476   5.604  16.398  1.00  0.00    -0.301 N 
ATOM     24  H3  UNL     1      21.704   5.769  15.418  1.00  0.00     0.173 HD
BRANCH  23  25
HETATM   25  S1  UNL     1      20.289   6.458  17.320  1.00  0.00     0.312 S 
HETATM   26  O3  UNL     1      19.088   5.557  17.486  1.00  0.00    -0.183 OA
HETATM   27  O4  UNL     1      20.862   6.770  18.651  1.00  0.00    -0.183 OA
BRANCH  25  28
HETATM   28  N4  UNL     1      19.828   7.859  16.429  1.00  0.00    -0.312 N 
ATOM     29  H42 UNL     1      19.967   8.822  16.736  1.00  0.00     0.170 HD
ATOM     30  H41 UNL     1      19.399   7.552  15.556  1.00  0.00     0.170 HD
ENDBRANCH  25  28
ENDBRANCH  23  25
ENDBRANCH  22  23
ENDBRANCH  21  22
ENDBRANCH  18  21
ENDBRANCH  17  18
ENDBRANCH  14  17
ENDBRANCH  10  11
ENDBRANCH   9  10
ENDBRANCH   1   9
BRANCH   1  31
HETATM   31  C13 UNL     1      23.661  12.171  23.673  1.00  0.00     0.053 C 
BRANCH  31  32
HETATM   32  C14 UNL     1      23.485  11.917  25.110  1.00  0.00     0.032 C 
BRANCH  32  33
HETATM   33  C15 UNL     1      24.807  11.591  25.756  1.00  0.00     0.048 C 
BRANCH  33  34
HETATM   34  C16 UNL     1      25.918  12.506  25.554  1.00  0.00    -0.058 A 
HETATM   35  C17 UNL     1      25.959  13.803  26.020  1.00  0.00     0.007 A 
HETATM   36  C18 UNL     1      27.037  14.629  25.813  1.00  0.00     0.001 A 
HETATM   37  C19 UNL     1      28.116  14.124  25.107  1.00  0.00     0.000 A 
HETATM   38  C20 UNL     1      28.112  12.833  24.624  1.00  0.00     0.001 A 
HETATM   39  C21 UNL     1      27.018  12.047  24.854  1.00  0.00     0.007 A 
ENDBRANCH  33  34
ENDBRANCH  32  33
BRANCH  32  40
HETATM   40  C22 UNL     1      22.829  13.001  25.899  1.00  0.00    -0.013 A 
HETATM   41  C23 UNL     1      22.283  14.200  25.521  1.00  0.00     0.015 A 
HETATM   42  C24 UNL     1      21.778  14.984  26.471  1.00  0.00     0.008 A 
HETATM   43  C25 UNL     1      21.832  14.550  27.764  1.00  0.00     0.050 A 
HETATM   44  S2  UNL     1      22.600  13.036  27.613  1.00  0.00    -0.106 SA
ENDBRANCH  32  40
ENDBRANCH  31  32
ENDBRANCH   1  31
TORSDOF 18
ENDMDL
MODEL 3
REMARK VINA RESULT: -7.994347099      0.841      1.213
REMARK  18 active torsions:
REMARK  status: ('A' for Active; 'I' for Inactive)
REMARK    1  A    between atoms: N1_1  and  C1_5 
REMARK    2  A    between atoms: C1_5  and  C2_6 
REMARK    3  A    between atoms: C1_5  and  C3_9 
REMARK    4  A    between atoms: C1_5  and  C13_31 
REMARK    5  A    between atoms: C2_6  and  O1_7 
REMARK    6  A    between atoms: C3_9  and  O2_10 
REMARK    7  A    between atoms: O2_10  and  C4_11 
REMARK    8  A    between atoms: C7_14  and  C8_15 
REMARK    9  A    between atoms: C8_15  and  N2_16 
REMARK   10  A    between atoms: N2_16  and  C9_19 
REMARK   11  A    between atoms: C9_19  and  C10_20 
REMARK   12  A    between atoms: C10_20  and  N3_21 
REMARK   13  A    between atoms: N3_21  and  S1_23 
REMARK   14  A    between atoms: S1_23  and  N4_24 
REMARK   15  A    between atoms: C13_31  and  C14_32 
REMARK   16  A    between atoms: C14_32  and  C15_33 
REMARK   17  A    between atoms: C14_32  and  C22_40 
REMARK   18  A    between atoms: C15_33  and  C16_34 
ROOT
HETATM    1  C1  UNL     1      23.275  12.055  23.135  1.00  0.00     0.166 C 
ENDROOT
BRANCH   1   2
HETATM    2  N1  UNL     1      22.475  13.156  23.505  1.00  0.00    -0.066 N 
ATOM      3  H13 UNL     1      22.719  13.540  24.418  1.00  0.00     0.275 HD
ATOM      4  H12 UNL     1      22.667  13.994  22.957  1.00  0.00     0.275 HD
ATOM      5  H11 UNL     1      21.503  12.851  23.446  1.00  0.00     0.275 HD
ENDBRANCH   1   2
BRANCH   1   6
HETATM    6  C2  UNL     1      24.125  12.503  21.937  1.00  0.00     0.205 C 
BRANCH   6   7
HETATM    7  O1  UNL     1      23.364  12.832  20.845  1.00  0.00    -0.398 OA
ATOM      8  H1  UNL     1      23.768  12.568  20.026  1.00  0.00     0.209 HD
ENDBRANCH   6   7
ENDBRANCH   1   6
BRANCH   1   9
HETATM    9  C3  UNL     1      22.427  10.869  22.627  1.00  0.00     0.216 C 
BRANCH   9  10
HETATM   10  O2  UNL     1      22.936  10.052  21.780  1.00  0.00    -0.349 OA
BRANCH  10  11
HETATM   11  C4  UNL     1      23.454   9.224  20.922  1.00  0.00     0.068 A 
HETATM   12  C5  UNL     1      23.361   7.831  21.084  1.00  0.00     0.037 A 
HETATM   13  C6  UNL     1      23.906   6.974  20.180  1.00  0.00     0.011 A 
HETATM   14  C7  UNL     1      24.580   7.397  19.059  1.00  0.00    -0.033 A 
HETATM   15  C11 UNL     1      24.676   8.760  18.891  1.00  0.00     0.011 A 
HETATM   16  C12 UNL     1      24.145   9.642  19.771  1.00  0.00     0.037 A 
BRANCH  14  17
HETATM   17  C8  UNL     1      25.171   6.452  18.081  1.00  0.00     0.270 C 
BRANCH  17  18
HETATM   18  N2  UNL     1      24.373   6.395  16.872  1.00  0.00    -0.070 N 
ATOM     19  H22 UNL     1      23.508   6.933  16.926  1.00  0.00     0.277 HD
ATOM     20  H21 UNL     1      24.781   6.902  16.088  1.00  0.00     0.277 HD
BRANCH  18  21
HETATM   21  C9  UNL     1      24.163   4.963  16.605  1.00  0.00     0.253 C 
BRANCH  21  22
HETATM   22  C10 UNL     1      22.993   4.528  17.448  1.00  0.00     0.161 C 
BRANCH  22  23
HETATM   23  N3  UNL     1      21.810   4.541  16.619  1.00  0.00    -0.301 N 
ATOM     24  H3  UNL     1      21.562   3.841  15.920  1.00  0.00     0.173 HD
BRANCH  23  25
HETATM   25  S1  UNL     1      20.887   5.947  17.018  1.00  0.00     0.312 S 
HETATM   26  O3  UNL     1      20.994   6.171  18.508  1.00  0.00    -0.183 OA
HETATM   27  O4  UNL     1      21.466   7.108  16.300  1.00  0.00    -0.183 OA
BRANCH  25  28
HETATM   28  N4  UNL     1      19.243   5.641  16.605  1.00  0.00    -0.312 N 
ATOM     29  H42 UNL     1      18.801   4.722  16.596  1.00  0.00     0.170 HD
ATOM     30  H41 UNL     1      18.803   6.533  16.377  1.00  0.00     0.170 HD
ENDBRANCH  25  28
ENDBRANCH  23  25
ENDBRANCH  22  23
ENDBRANCH  21  22
ENDBRANCH  18  21
ENDBRANCH  17  18
ENDBRANCH  14  17
ENDBRANCH  10  11
ENDBRANCH   9  10
ENDBRANCH   1   9
BRANCH   1  31
HETATM   31  C13 UNL     1      24.238  11.610  24.178  1.00  0.00     0.053 C 
BRANCH  31  32
HETATM   32  C14 UNL     1      24.689  12.580  25.186  1.00  0.00     0.032 C 
BRANCH  32  33
HETATM   33  C15 UNL     1      24.261  12.149  26.566  1.00  0.00     0.048 C 
BRANCH  33  34
HETATM   34  C16 UNL     1      22.995  12.643  27.081  1.00  0.00    -0.058 A 
HETATM   35  C17 UNL     1      22.059  11.867  27.730  1.00  0.00     0.007 A 
HETATM   36  C18 UNL     1      20.879  12.381  28.211  1.00  0.00     0.001 A 
HETATM   37  C19 UNL     1      20.636  13.731  28.026  1.00  0.00     0.000 A 
HETATM   38  C20 UNL     1      21.547  14.539  27.382  1.00  0.00     0.001 A 
HETATM   39  C21 UNL     1      22.708  13.986  26.920  1.00  0.00     0.007 A 
ENDBRANCH  33  34
ENDBRANCH  32  33
BRANCH  32  40
HETATM   40  C22 UNL     1      26.153  12.872  25.216  1.00  0.00    -0.013 A 
HETATM   41  C23 UNL     1      27.232  12.164  24.756  1.00  0.00     0.015 A 
HETATM   42  C24 UNL     1      28.445  12.679  24.947  1.00  0.00     0.008 A 
HETATM   43  C25 UNL     1      28.543  13.880  25.589  1.00  0.00     0.050 A 
HETATM   44  S2  UNL     1      26.914  14.261  25.912  1.00  0.00    -0.106 SA
ENDBRANCH  32  40
ENDBRANCH  31  32
ENDBRANCH   1  31
TORSDOF 18
ENDMDL
MODEL 4
REMARK VINA RESULT: -7.991574996      2.623      3.993
REMARK  18 active torsions:
REMARK  status: ('A' for Active; 'I' for Inactive)
REMARK    1  A    between atoms: N1_1  and  C1_5 
REMARK    2  A    between atoms: C1_5  and  C2_6 
REMARK    3  A    between atoms: C1_5  and  C3_9 
REMARK    4  A    between atoms: C1_5  and  C13_31 
REMARK    5  A    between atoms: C2_6  and  O1_7 
REMARK    6  A    between atoms: C3_9  and  O2_10 
REMARK    7  A    between atoms: O2_10  and  C4_11 
REMARK    8  A    between atoms: C7_14  and  C8_15 
REMARK    9  A    between atoms: C8_15  and  N2_16 
REMARK   10  A    between atoms: N2_16  and  C9_19 
REMARK   11  A    between atoms: C9_19  and  C10_20 
REMARK   12  A    between atoms: C10_20  and  N3_21 
REMARK   13  A    between atoms: N3_21  and  S1_23 
REMARK   14  A    between atoms: S1_23  and  N4_24 
REMARK   15  A    between atoms: C13_31  and  C14_32 
REMARK   16  A    between atoms: C14_32  and  C15_33 
REMARK   17  A    between atoms: C14_32  and  C22_40 
REMARK   18  A    between atoms: C15_33  and  C16_34 
ROOT
HETATM    1  C1  UNL     1      22.653  11.673  22.025  1.00  0.00     0.166 C 
ENDROOT
BRANCH   1   2
HETATM    2  N1  UNL     1      22.167  11.718  20.701  1.00  0.00    -0.066 N 
ATOM      3  H13 UNL     1      22.332  12.613  20.243  1.00  0.00     0.275 HD
ATOM      4  H12 UNL     1      22.707  11.141  20.056  1.00  0.00     0.275 HD
ATOM      5  H11 UNL     1      21.180  11.462  20.738  1.00  0.00     0.275 HD
ENDBRANCH   1   2
BRANCH   1   6
HETATM    6  C2  UNL     1      23.712  12.778  22.150  1.00  0.00     0.205 C 
BRANCH   6   7
HETATM    7  O1  UNL     1      24.926  12.405  21.631  1.00  0.00    -0.398 OA
ATOM      8  H1  UNL     1      25.656  12.810  22.084  1.00  0.00     0.209 HD
ENDBRANCH   6   7
ENDBRANCH   1   6
BRANCH   1   9
HETATM    9  C3  UNL     1      23.390  10.350  22.326  1.00  0.00     0.216 C 
BRANCH   9  10
HETATM   10  O2  UNL     1      23.664   9.552  21.361  1.00  0.00    -0.349 OA
BRANCH  10  11
HETATM   11  C4  UNL     1      23.941   8.744  20.381  1.00  0.00     0.068 A 
HETATM   12  C5  UNL     1      24.161   9.209  19.073  1.00  0.00     0.037 A 
HETATM   13  C6  UNL     1      24.450   8.354  18.056  1.00  0.00     0.011 A 
HETATM   14  C7  UNL     1      24.546   6.993  18.225  1.00  0.00    -0.033 A 
HETATM   15  C11 UNL     1      24.332   6.528  19.503  1.00  0.00     0.011 A 
HETATM   16  C12 UNL     1      24.043   7.350  20.540  1.00  0.00     0.037 A 
BRANCH  14  17
HETATM   17  C8  UNL     1      24.862   6.072  17.107  1.00  0.00     0.270 C 
BRANCH  17  18
HETATM   18  N2  UNL     1      23.656   5.679  16.407  1.00  0.00    -0.070 N 
ATOM     19  H22 UNL     1      22.910   6.373  16.453  1.00  0.00     0.277 HD
ATOM     20  H21 UNL     1      23.754   5.675  15.391  1.00  0.00     0.277 HD
BRANCH  18  21
HETATM   21  C9  UNL     1      23.282   4.372  16.969  1.00  0.00     0.253 C 
BRANCH  21  22
HETATM   22  C10 UNL     1      21.848   4.481  17.417  1.00  0.00     0.161 C 
BRANCH  22  23
HETATM   23  N3  UNL     1      21.162   5.380  16.518  1.00  0.00    -0.301 N 
ATOM     24  H3  UNL     1      21.231   5.376  15.501  1.00  0.00     0.173 HD
BRANCH  23  25
HETATM   25  S1  UNL     1      20.204   6.462  17.466  1.00  0.00     0.312 S 
HETATM   26  O3  UNL     1      18.940   5.739  17.868  1.00  0.00    -0.183 OA
HETATM   27  O4  UNL     1      20.972   6.830  18.680  1.00  0.00    -0.183 OA
BRANCH  25  28
HETATM   28  N4  UNL     1      19.795   7.815  16.480  1.00  0.00    -0.312 N 
ATOM     29  H42 UNL     1      19.411   7.761  15.537  1.00  0.00     0.170 HD
ATOM     30  H41 UNL     1      20.007   8.664  17.006  1.00  0.00     0.170 HD
ENDBRANCH  25  28
ENDBRANCH  23  25
ENDBRANCH  22  23
ENDBRANCH  21  22
ENDBRANCH  18  21
ENDBRANCH  17  18
ENDBRANCH  14  17
ENDBRANCH  10  11
ENDBRANCH   9  10
ENDBRANCH   1   9
BRANCH   1  31
HETATM   31  C13 UNL     1      21.633  11.962  23.069  1.00  0.00     0.053 C 
BRANCH  31  32
HETATM   32  C14 UNL     1      21.269  10.899  24.016  1.00  0.00     0.032 C 
BRANCH  32  33
HETATM   33  C15 UNL     1      20.692  11.487  25.278  1.00  0.00     0.048 C 
BRANCH  33  34
HETATM   34  C16 UNL     1      21.462  12.498  25.982  1.00  0.00    -0.058 A 
HETATM   35  C17 UNL     1      21.069  13.810  26.141  1.00  0.00     0.007 A 
HETATM   36  C18 UNL     1      21.826  14.730  26.826  1.00  0.00     0.001 A 
HETATM   37  C19 UNL     1      23.028  14.307  27.369  1.00  0.00     0.000 A 
HETATM   38  C20 UNL     1      23.454  13.004  27.231  1.00  0.00     0.001 A 
HETATM   39  C21 UNL     1      22.668  12.123  26.542  1.00  0.00     0.007 A 
ENDBRANCH  33  34
ENDBRANCH  32  33
BRANCH  32  40
HETATM   40  C22 UNL     1      20.328   9.854  23.510  1.00  0.00    -0.013 A 
HETATM   41  C23 UNL     1      20.538   8.729  22.756  1.00  0.00     0.015 A 
HETATM   42  C24 UNL     1      19.480   7.986  22.436  1.00  0.00     0.008 A 
HETATM   43  C25 UNL     1      18.252   8.386  22.877  1.00  0.00     0.050 A 
HETATM   44  S2  UNL     1      18.614   9.810  23.738  1.00  0.00    -0.106 SA
ENDBRANCH  32  40
ENDBRANCH  31  32
ENDBRANCH   1  31
TORSDOF 18
ENDMDL
MODEL 5
REMARK VINA RESULT: -7.925340700      1.900      2.278
REMARK  18 active torsions:
REMARK  status: ('A' for Active; 'I' for Inactive)
REMARK    1  A    between atoms: N1_1  and  C1_5 
REMARK    2  A    between atoms: C1_5  and  C2_6 
REMARK    3  A    between atoms: C1_5  and  C3_9 
REMARK    4  A    between atoms: C1_5  and  C13_31 
REMARK    5  A    between atoms: C2_6  and  O1_7 
REMARK    6  A    between atoms: C3_9  and  O2_10 
REMARK    7  A    between atoms: O2_10  and  C4_11 
REMARK    8  A    between atoms: C7_14  and  C8_15 
REMARK    9  A    between atoms: C8_15  and  N2_16 
REMARK   10  A    between atoms: N2_16  and  C9_19 
REMARK   11  A    between atoms: C9_19  and  C10_20 
REMARK   12  A    between atoms: C10_20  and  N3_21 
REMARK   13  A    between atoms: N3_21  and  S1_23 
REMARK   14  A    between atoms: S1_23  and  N4_24 
REMARK   15  A    between atoms: C13_31  and  C14_32 
REMARK   16  A    between atoms: C14_32  and  C15_33 
REMARK   17  A    between atoms: C14_32  and  C22_40 
REMARK   18  A    between atoms: C15_33  and  C16_34 
ROOT
HETATM    1  C1  UNL     1      23.224  12.262  23.152  1.00  0.00     0.166 C 
ENDROOT
BRANCH   1   2
HETATM    2  N1  UNL     1      22.466  13.351  23.633  1.00  0.00    -0.066 N 
ATOM      3  H13 UNL     1      22.917  14.252  23.481  1.00  0.00     0.275 HD
ATOM      4  H12 UNL     1      21.627  13.531  23.081  1.00  0.00     0.275 HD
ATOM      5  H11 UNL     1      22.266  13.163  24.616  1.00  0.00     0.275 HD
ENDBRANCH   1   2
BRANCH   1   6
HETATM    6  C2  UNL     1      24.002  12.765  21.928  1.00  0.00     0.205 C 
BRANCH   6   7
HETATM    7  O1  UNL     1      23.235  12.790  20.791  1.00  0.00    -0.398 OA
ATOM      8  H1  UNL     1      22.482  12.214  20.846  1.00  0.00     0.209 HD
ENDBRANCH   6   7
ENDBRANCH   1   6
BRANCH   1   9
HETATM    9  C3  UNL     1      22.327  11.115  22.638  1.00  0.00     0.216 C 
BRANCH   9  10
HETATM   10  O2  UNL     1      22.824  10.241  21.843  1.00  0.00    -0.349 OA
BRANCH  10  11
HETATM   11  C4  UNL     1      23.327   9.354  21.037  1.00  0.00     0.068 A 
HETATM   12  C5  UNL     1      23.086   7.979  21.200  1.00  0.00     0.037 A 
HETATM   13  C6  UNL     1      23.618   7.060  20.351  1.00  0.00     0.011 A 
HETATM   14  C7  UNL     1      24.419   7.398  19.286  1.00  0.00    -0.033 A 
HETATM   15  C11 UNL     1      24.661   8.744  19.118  1.00  0.00     0.011 A 
HETATM   16  C12 UNL     1      24.148   9.686  19.944  1.00  0.00     0.037 A 
BRANCH  14  17
HETATM   17  C8  UNL     1      24.993   6.386  18.368  1.00  0.00     0.270 C 
BRANCH  17  18
HETATM   18  N2  UNL     1      24.497   6.574  17.019  1.00  0.00    -0.070 N 
ATOM     19  H22 UNL     1      23.675   7.175  16.964  1.00  0.00     0.277 HD
ATOM     20  H21 UNL     1      25.105   7.149  16.436  1.00  0.00     0.277 HD
BRANCH  18  21
HETATM   21  C9  UNL     1      24.276   5.220  16.488  1.00  0.00     0.253 C 
BRANCH  21  22
HETATM   22  C10 UNL     1      23.073   4.661  17.199  1.00  0.00     0.161 C 
BRANCH  22  23
HETATM   23  N3  UNL     1      22.784   3.360  16.644  1.00  0.00    -0.301 N 
ATOM     24  H3  UNL     1      22.551   3.163  15.671  1.00  0.00     0.173 HD
BRANCH  23  25
HETATM   25  S1  UNL     1      22.902   2.193  17.914  1.00  0.00     0.312 S 
HETATM   26  O3  UNL     1      24.313   2.226  18.451  1.00  0.00    -0.183 OA
HETATM   27  O4  UNL     1      21.953   2.571  18.989  1.00  0.00    -0.183 OA
BRANCH  25  28
HETATM   28  N4  UNL     1      22.586   0.638  17.241  1.00  0.00    -0.312 N 
ATOM     29  H42 UNL     1      21.875   0.435  16.539  1.00  0.00     0.170 HD
ATOM     30  H41 UNL     1      23.230  -0.027  17.669  1.00  0.00     0.170 HD
ENDBRANCH  25  28
ENDBRANCH  23  25
ENDBRANCH  22  23
ENDBRANCH  21  22
ENDBRANCH  18  21
ENDBRANCH  17  18
ENDBRANCH  14  17
ENDBRANCH  10  11
ENDBRANCH   9  10
ENDBRANCH   1   9
BRANCH   1  31
HETATM   31  C13 UNL     1      24.245  11.750  24.106  1.00  0.00     0.053 C 
BRANCH  31  32
HETATM   32  C14 UNL     1      24.684  12.618  25.207  1.00  0.00     0.032 C 
BRANCH  32  33
HETATM   33  C15 UNL     1      24.237  12.059  26.534  1.00  0.00     0.048 C 
BRANCH  33  34
HETATM   34  C16 UNL     1      23.062  12.636  27.164  1.00  0.00    -0.058 A 
HETATM   35  C17 UNL     1      21.788  12.119  27.066  1.00  0.00     0.007 A 
HETATM   36  C18 UNL     1      20.707  12.693  27.690  1.00  0.00     0.001 A 
HETATM   37  C19 UNL     1      20.923  13.836  28.442  1.00  0.00     0.000 A 
HETATM   38  C20 UNL     1      22.182  14.384  28.564  1.00  0.00     0.001 A 
HETATM   39  C21 UNL     1      23.228  13.778  27.926  1.00  0.00     0.007 A 
ENDBRANCH  33  34
ENDBRANCH  32  33
BRANCH  32  40
HETATM   40  C22 UNL     1      26.148  12.902  25.285  1.00  0.00    -0.013 A 
HETATM   41  C23 UNL     1      27.233  12.229  24.786  1.00  0.00     0.015 A 
HETATM   42  C24 UNL     1      28.444  12.722  25.039  1.00  0.00     0.008 A 
HETATM   43  C25 UNL     1      28.535  13.866  25.776  1.00  0.00     0.050 A 
HETATM   44  S2  UNL     1      26.902  14.226  26.103  1.00  0.00    -0.106 SA
ENDBRANCH  32  40
ENDBRANCH  31  32
ENDBRANCH   1  31
TORSDOF 18
ENDMDL
