MODEL 1
REMARK VINA RESULT: -8.788658230      0.000      0.000
REMARK  17 active torsions:
REMARK  status: ('A' for Active; 'I' for Inactive)
REMARK    1  A    between atoms: C1_2  and  C2_4 
REMARK    2  A    between atoms: C2_4  and  N1_5 
REMARK    3  A    between atoms: N1_5  and  C3_6 
REMARK       I    between atoms: N1_5  and  C27_42 
REMARK    4  A    between atoms: C3_6  and  C4_7 
REMARK    5  A    between atoms: C4_7  and  C5_8 
REMARK    6  A    between atoms: C5_8  and  N2_9 
REMARK    7  A    between atoms: N2_9  and  C6_12 
REMARK    8  A    between atoms: C6_12  and  C7_13 
REMARK    9  A    between atoms: C7_13  and  C8_14 
REMARK   10  A    between atoms: C8_14  and  C9_15 
REMARK   11  A    between atoms: C9_15  and  N3_16 
REMARK   12  A    between atoms: N3_16  and  C10_18 
REMARK   13  A    between atoms: C13_21  and  S1_22 
REMARK   14  A    between atoms: S1_22  and  N4_25 
REMARK   15  A    between atoms: N4_25  and  C14_27 
REMARK   16  A    between atoms: C17_30  and  C18_31 
REMARK   17  A    between atoms: C27_42  and  C28_44 
ROOT
HETATM    1  C10 UNL     1      23.299   7.713  19.913  1.00  0.00     0.028 A 
HETATM    2  C11 UNL     1      23.946   8.902  19.543  1.00  0.00     0.030 A 
HETATM    3  C12 UNL     1      23.885   9.987  20.384  1.00  0.00     0.027 A 
HETATM    4  C13 UNL     1      23.210   9.962  21.587  1.00  0.00     0.080 A 
HETATM    5  C25 UNL     1      22.575   8.808  21.960  1.00  0.00     0.027 A 
HETATM    6  C26 UNL     1      22.626   7.700  21.122  1.00  0.00     0.030 A 
ENDROOT
BRANCH   1   7
HETATM    7  N3  UNL     1      23.362   6.578  19.073  1.00  0.00    -0.390 N 
ATOM      8  H3  UNL     1      24.273   6.199  18.817  1.00  0.00     0.159 HD
BRANCH   7   9
HETATM    9  C9  UNL     1      22.173   5.945  18.568  1.00  0.00     0.120 C 
BRANCH   9  10
HETATM   10  C8  UNL     1      22.298   5.718  17.067  1.00  0.00     0.021 C 
BRANCH  10  11
HETATM   11  C7  UNL     1      21.173   6.466  16.341  1.00  0.00     0.029 C 
BRANCH  11  12
HETATM   12  C6  UNL     1      20.136   5.445  15.961  1.00  0.00     0.232 C 
BRANCH  12  13
HETATM   13  N2  UNL     1      19.093   5.326  16.942  1.00  0.00    -0.075 N 
ATOM     14  H22 UNL     1      18.196   5.609  16.548  1.00  0.00     0.277 HD
ATOM     15  H21 UNL     1      19.197   6.039  17.664  1.00  0.00     0.277 HD
BRANCH  13  16
HETATM   16  C5  UNL     1      18.995   4.004  17.540  1.00  0.00     0.234 C 
BRANCH  16  17
HETATM   17  C4  UNL     1      18.747   4.110  19.001  1.00  0.00     0.047 C 
BRANCH  17  18
HETATM   18  C3  UNL     1      17.367   4.550  19.384  1.00  0.00     0.128 C 
BRANCH  18  19
HETATM   19  N1  UNL     1      17.322   5.800  20.135  1.00  0.00    -0.340 N 
HETATM   20  C27 UNL     1      16.060   6.369  20.374  1.00  0.00     0.249 C 
HETATM   21  O5  UNL     1      15.044   5.714  19.919  1.00  0.00    -0.270 OA
BRANCH  19  22
HETATM   22  C2  UNL     1      18.602   6.335  20.532  1.00  0.00     0.238 C 
BRANCH  22  23
HETATM   23  C1  UNL     1      18.945   7.618  19.856  1.00  0.00     0.191 C 
HETATM   24  O1  UNL     1      18.889   7.765  18.631  1.00  0.00    -0.647 OA
HETATM   25  O2  UNL     1      19.334   8.660  20.665  1.00  0.00    -0.647 OA
ENDBRANCH  22  23
ENDBRANCH  19  22
BRANCH  20  26
HETATM   26  C28 UNL     1      15.739   7.607  21.081  1.00  0.00     0.213 C 
HETATM   27  C29 UNL     1      14.353   7.721  21.631  1.00  0.00     0.043 C 
HETATM   28  C30 UNL     1      14.415   6.785  22.822  1.00  0.00     0.029 C 
HETATM   29  C31 UNL     1      15.863   6.900  23.208  1.00  0.00     0.168 C 
HETATM   30  O6  UNL     1      16.486   7.710  22.283  1.00  0.00    -0.376 OA
ENDBRANCH  20  26
ENDBRANCH  18  19
ENDBRANCH  17  18
ENDBRANCH  16  17
ENDBRANCH  13  16
ENDBRANCH  12  13
ENDBRANCH  11  12
ENDBRANCH  10  11
ENDBRANCH   9  10
ENDBRANCH   7   9
ENDBRANCH   1   7
BRANCH   4  31
HETATM   31  S1  UNL     1      23.198  11.416  22.548  1.00  0.00     0.263 S 
HETATM   32  O3  UNL     1      23.712  11.038  23.918  1.00  0.00    -0.200 OA
HETATM   33  O4  UNL     1      24.169  12.436  22.021  1.00  0.00    -0.200 OA
BRANCH  31  34
HETATM   34  N4  UNL     1      21.611  12.007  22.653  1.00  0.00    -0.281 N 
ATOM     35  H4  UNL     1      21.257  12.552  21.867  1.00  0.00     0.179 HD
BRANCH  34  36
HETATM   36  C14 UNL     1      20.741  11.800  23.751  1.00  0.00     0.042 A 
HETATM   37  C15 UNL     1      19.862  10.754  23.861  1.00  0.00     0.030 A 
HETATM   38  C16 UNL     1      19.032  10.613  24.955  1.00  0.00     0.010 A 
HETATM   39  C17 UNL     1      19.040  11.518  26.001  1.00  0.00    -0.054 A 
HETATM   40  C23 UNL     1      19.931  12.577  25.891  1.00  0.00     0.010 A 
HETATM   41  C24 UNL     1      20.761  12.716  24.795  1.00  0.00     0.030 A 
BRANCH  39  42
HETATM   42  C18 UNL     1      18.146  11.382  27.186  1.00  0.00     0.021 C 
HETATM   43  C19 UNL     1      17.076  10.363  27.036  1.00  0.00     0.028 C 
HETATM   44  C20 UNL     1      16.964   9.420  28.206  1.00  0.00     0.114 C 
HETATM   45  N5  UNL     1      18.222   8.890  28.628  1.00  0.00    -0.421 N 
HETATM   46  C21 UNL     1      19.246   9.848  28.873  1.00  0.00     0.114 C 
ATOM     47  H5  UNL     1      18.377   7.888  28.747  1.00  0.00     0.153 HD
HETATM   48  C22 UNL     1      18.940  11.252  28.460  1.00  0.00     0.028 C 
ENDBRANCH  39  42
ENDBRANCH  34  36
ENDBRANCH  31  34
ENDBRANCH   4  31
TORSDOF 17
ENDMDL
MODEL 2
REMARK VINA RESULT: -8.645108358      1.503      2.099
REMARK  17 active torsions:
REMARK  status: ('A' for Active; 'I' for Inactive)
REMARK    1  A    between atoms: C1_2  and  C2_4 
REMARK    2  A    between atoms: C2_4  and  N1_5 
REMARK    3  A    between atoms: N1_5  and  C3_6 
REMARK       I    between atoms: N1_5  and  C27_42 
REMARK    4  A    between atoms: C3_6  and  C4_7 
REMARK    5  A    between atoms: C4_7  and  C5_8 
REMARK    6  A    between atoms: C5_8  and  N2_9 
REMARK    7  A    between atoms: N2_9  and  C6_12 
REMARK    8  A    between atoms: C6_12  and  C7_13 
REMARK    9  A    between atoms: C7_13  and  C8_14 
REMARK   10  A    between atoms: C8_14  and  C9_15 
REMARK   11  A    between atoms: C9_15  and  N3_16 
REMARK   12  A    between atoms: N3_16  and  C10_18 
REMARK   13  A    between atoms: C13_21  and  S1_22 
REMARK   14  A    between atoms: S1_22  and  N4_25 
REMARK   15  A    between atoms: N4_25  and  C14_27 
REMARK   16  A    between atoms: C17_30  and  C18_31 
REMARK   17  A    between atoms: C27_42  and  C28_44 
ROOT
HETATM    1  C10 UNL     1      23.362   8.255  20.321  1.00  0.00     0.028 A 
HETATM    2  C11 UNL     1      23.874   9.534  20.051  1.00  0.00     0.030 A 
HETATM    3  C12 UNL     1      23.618  10.558  20.930  1.00  0.00     0.027 A 
HETATM    4  C13 UNL     1      22.872  10.386  22.079  1.00  0.00     0.080 A 
HETATM    5  C25 UNL     1      22.367   9.144  22.354  1.00  0.00     0.027 A 
HETATM    6  C26 UNL     1      22.616   8.096  21.476  1.00  0.00     0.030 A 
ENDROOT
BRANCH   1   7
HETATM    7  N3  UNL     1      23.627   7.183  19.441  1.00  0.00    -0.390 N 
ATOM      8  H3  UNL     1      23.685   6.236  19.814  1.00  0.00     0.159 HD
BRANCH   7   9
HETATM    9  C9  UNL     1      23.818   7.392  18.030  1.00  0.00     0.120 C 
BRANCH   9  10
HETATM   10  C8  UNL     1      24.722   6.308  17.458  1.00  0.00     0.021 C 
BRANCH  10  11
HETATM   11  C7  UNL     1      23.913   5.416  16.509  1.00  0.00     0.029 C 
BRANCH  11  12
HETATM   12  C6  UNL     1      22.917   4.665  17.350  1.00  0.00     0.232 C 
BRANCH  12  13
HETATM   13  N2  UNL     1      22.320   3.563  16.647  1.00  0.00    -0.075 N 
ATOM     14  H22 UNL     1      22.699   2.677  16.982  1.00  0.00     0.277 HD
ATOM     15  H21 UNL     1      22.646   3.535  15.681  1.00  0.00     0.277 HD
BRANCH  13  16
HETATM   16  C5  UNL     1      20.868   3.549  16.697  1.00  0.00     0.234 C 
BRANCH  16  17
HETATM   17  C4  UNL     1      20.386   4.044  18.013  1.00  0.00     0.047 C 
BRANCH  17  18
HETATM   18  C3  UNL     1      19.059   4.740  17.985  1.00  0.00     0.128 C 
BRANCH  18  19
HETATM   19  N1  UNL     1      19.078   6.090  18.540  1.00  0.00    -0.340 N 
HETATM   20  C27 UNL     1      18.006   6.469  19.364  1.00  0.00     0.249 C 
HETATM   21  O5  UNL     1      17.101   5.569  19.570  1.00  0.00    -0.270 OA
BRANCH  19  22
HETATM   22  C2  UNL     1      20.204   6.907  18.154  1.00  0.00     0.238 C 
BRANCH  22  23
HETATM   23  C1  UNL     1      20.166   7.332  16.726  1.00  0.00     0.191 C 
HETATM   24  O1  UNL     1      20.829   6.777  15.844  1.00  0.00    -0.647 OA
HETATM   25  O2  UNL     1      19.344   8.391  16.417  1.00  0.00    -0.647 OA
ENDBRANCH  22  23
ENDBRANCH  19  22
BRANCH  20  26
HETATM   26  C28 UNL     1      17.777   7.749  20.028  1.00  0.00     0.213 C 
HETATM   27  C29 UNL     1      16.841   7.738  21.195  1.00  0.00     0.043 C 
HETATM   28  C30 UNL     1      17.685   7.071  22.263  1.00  0.00     0.029 C 
HETATM   29  C31 UNL     1      19.066   7.494  21.849  1.00  0.00     0.168 C 
HETATM   30  O6  UNL     1      18.958   8.203  20.671  1.00  0.00    -0.376 OA
ENDBRANCH  20  26
ENDBRANCH  18  19
ENDBRANCH  17  18
ENDBRANCH  16  17
ENDBRANCH  13  16
ENDBRANCH  12  13
ENDBRANCH  11  12
ENDBRANCH  10  11
ENDBRANCH   9  10
ENDBRANCH   7   9
ENDBRANCH   1   7
BRANCH   4  31
HETATM   31  S1  UNL     1      22.607  11.776  23.097  1.00  0.00     0.263 S 
HETATM   32  O3  UNL     1      23.151  11.425  24.463  1.00  0.00    -0.200 OA
HETATM   33  O4  UNL     1      23.410  12.961  22.636  1.00  0.00    -0.200 OA
BRANCH  31  34
HETATM   34  N4  UNL     1      20.944  12.099  23.187  1.00  0.00    -0.281 N 
ATOM     35  H4  UNL     1      20.545  12.721  22.484  1.00  0.00     0.179 HD
BRANCH  34  36
HETATM   36  C14 UNL     1      20.069  11.569  24.166  1.00  0.00     0.042 A 
HETATM   37  C15 UNL     1      19.369  10.399  24.031  1.00  0.00     0.030 A 
HETATM   38  C16 UNL     1      18.521   9.939  25.020  1.00  0.00     0.010 A 
HETATM   39  C17 UNL     1      18.331  10.635  26.201  1.00  0.00    -0.054 A 
HETATM   40  C23 UNL     1      19.040  11.819  26.339  1.00  0.00     0.010 A 
HETATM   41  C24 UNL     1      19.888  12.277  25.347  1.00  0.00     0.030 A 
BRANCH  39  42
HETATM   42  C18 UNL     1      17.416  10.154  27.276  1.00  0.00     0.021 C 
HETATM   43  C19 UNL     1      17.059   8.716  27.182  1.00  0.00     0.028 C 
HETATM   44  C20 UNL     1      17.211   7.964  28.479  1.00  0.00     0.114 C 
HETATM   45  N5  UNL     1      18.454   8.217  29.137  1.00  0.00    -0.421 N 
HETATM   46  C21 UNL     1      18.784   9.589  29.329  1.00  0.00     0.114 C 
ATOM     47  H5  UNL     1      19.065   7.463  29.450  1.00  0.00     0.153 HD
HETATM   48  C22 UNL     1      17.900  10.577  28.638  1.00  0.00     0.028 C 
ENDBRANCH  39  42
ENDBRANCH  34  36
ENDBRANCH  31  34
ENDBRANCH   4  31
TORSDOF 17
ENDMDL
MODEL 3
REMARK VINA RESULT: -8.594918808      1.274      1.667
REMARK  17 active torsions:
REMARK  status: ('A' for Active; 'I' for Inactive)
REMARK    1  A    between atoms: C1_2  and  C2_4 
REMARK    2  A    between atoms: C2_4  and  N1_5 
REMARK    3  A    between atoms: N1_5  and  C3_6 
REMARK       I    between atoms: N1_5  and  C27_42 
REMARK    4  A    between atoms: C3_6  and  C4_7 
REMARK    5  A    between atoms: C4_7  and  C5_8 
REMARK    6  A    between atoms: C5_8  and  N2_9 
REMARK    7  A    between atoms: N2_9  and  C6_12 
REMARK    8  A    between atoms: C6_12  and  C7_13 
REMARK    9  A    between atoms: C7_13  and  C8_14 
REMARK   10  A    between atoms: C8_14  and  C9_15 
REMARK   11  A    between atoms: C9_15  and  N3_16 
REMARK   12  A    between atoms: N3_16  and  C10_18 
REMARK   13  A    between atoms: C13_21  and  S1_22 
REMARK   14  A    between atoms: S1_22  and  N4_25 
REMARK   15  A    between atoms: N4_25  and  C14_27 
REMARK   16  A    between atoms: C17_30  and  C18_31 
REMARK   17  A    between atoms: C27_42  and  C28_44 
ROOT
HETATM    1  C10 UNL     1      22.700   7.875  20.471  1.00  0.00     0.028 A 
HETATM    2  C11 UNL     1      23.544   8.934  20.099  1.00  0.00     0.030 A 
HETATM    3  C12 UNL     1      23.581  10.065  20.878  1.00  0.00     0.027 A 
HETATM    4  C13 UNL     1      22.819  10.211  22.020  1.00  0.00     0.080 A 
HETATM    5  C25 UNL     1      21.993   9.186  22.393  1.00  0.00     0.027 A 
HETATM    6  C26 UNL     1      21.942   8.033  21.618  1.00  0.00     0.030 A 
ENDROOT
BRANCH   1   7
HETATM    7  N3  UNL     1      22.657   6.695  19.695  1.00  0.00    -0.390 N 
ATOM      8  H3  UNL     1      21.759   6.242  19.529  1.00  0.00     0.159 HD
BRANCH   7   9
HETATM    9  C9  UNL     1      23.848   6.114  19.135  1.00  0.00     0.120 C 
BRANCH   9  10
HETATM   10  C8  UNL     1      23.983   6.509  17.670  1.00  0.00     0.021 C 
BRANCH  10  11
HETATM   11  C7  UNL     1      23.178   5.535  16.802  1.00  0.00     0.029 C 
BRANCH  11  12
HETATM   12  C6  UNL     1      21.934   6.258  16.363  1.00  0.00     0.232 C 
BRANCH  12  13
HETATM   13  N2  UNL     1      20.760   5.434  16.437  1.00  0.00    -0.075 N 
ATOM     14  H22 UNL     1      20.320   5.355  15.521  1.00  0.00     0.277 HD
ATOM     15  H21 UNL     1      20.017   5.913  16.945  1.00  0.00     0.277 HD
BRANCH  13  16
HETATM   16  C5  UNL     1      20.999   4.117  17.004  1.00  0.00     0.234 C 
BRANCH  16  17
HETATM   17  C4  UNL     1      20.047   3.845  18.112  1.00  0.00     0.047 C 
BRANCH  17  18
HETATM   18  C3  UNL     1      18.611   4.147  17.808  1.00  0.00     0.128 C 
BRANCH  18  19
HETATM   19  N1  UNL     1      17.949   4.981  18.805  1.00  0.00    -0.340 N 
HETATM   20  C27 UNL     1      16.545   4.969  18.833  1.00  0.00     0.249 C 
HETATM   21  O5  UNL     1      15.965   4.195  17.976  1.00  0.00    -0.270 OA
BRANCH  19  22
HETATM   22  C2  UNL     1      18.825   5.759  19.649  1.00  0.00     0.238 C 
BRANCH  22  23
HETATM   23  C1  UNL     1      18.895   7.198  19.265  1.00  0.00     0.191 C 
HETATM   24  O1  UNL     1      19.160   7.572  18.118  1.00  0.00    -0.647 OA
HETATM   25  O2  UNL     1      18.646   8.116  20.259  1.00  0.00    -0.647 OA
ENDBRANCH  22  23
ENDBRANCH  19  22
BRANCH  20  26
HETATM   26  C28 UNL     1      15.645   5.711  19.712  1.00  0.00     0.213 C 
HETATM   27  C29 UNL     1      14.273   5.144  19.897  1.00  0.00     0.043 C 
HETATM   28  C30 UNL     1      14.547   3.957  20.797  1.00  0.00     0.029 C 
HETATM   29  C31 UNL     1      15.748   4.441  21.561  1.00  0.00     0.168 C 
HETATM   30  O6  UNL     1      16.105   5.673  21.054  1.00  0.00    -0.376 OA
ENDBRANCH  20  26
ENDBRANCH  18  19
ENDBRANCH  17  18
ENDBRANCH  16  17
ENDBRANCH  13  16
ENDBRANCH  12  13
ENDBRANCH  11  12
ENDBRANCH  10  11
ENDBRANCH   9  10
ENDBRANCH   7   9
ENDBRANCH   1   7
BRANCH   4  31
HETATM   31  S1  UNL     1      22.950  11.708  22.903  1.00  0.00     0.263 S 
HETATM   32  O3  UNL     1      23.537  11.366  24.255  1.00  0.00    -0.200 OA
HETATM   33  O4  UNL     1      23.935  12.646  22.262  1.00  0.00    -0.200 OA
BRANCH  31  34
HETATM   34  N4  UNL     1      21.408  12.391  23.084  1.00  0.00    -0.281 N 
ATOM     35  H4  UNL     1      21.078  13.012  22.346  1.00  0.00     0.179 HD
BRANCH  34  36
HETATM   36  C14 UNL     1      20.545  12.163  24.183  1.00  0.00     0.042 A 
HETATM   37  C15 UNL     1      20.616  12.830  25.379  1.00  0.00     0.030 A 
HETATM   38  C16 UNL     1      19.748  12.554  26.418  1.00  0.00     0.010 A 
HETATM   39  C17 UNL     1      18.761  11.591  26.311  1.00  0.00    -0.054 A 
HETATM   40  C23 UNL     1      18.688  10.917  25.100  1.00  0.00     0.010 A 
HETATM   41  C24 UNL     1      19.557  11.194  24.061  1.00  0.00     0.030 A 
BRANCH  39  42
HETATM   42  C18 UNL     1      17.821  11.280  27.425  1.00  0.00     0.021 C 
HETATM   43  C19 UNL     1      16.759  10.302  27.079  1.00  0.00     0.028 C 
HETATM   44  C20 UNL     1      16.600   9.191  28.085  1.00  0.00     0.114 C 
HETATM   45  N5  UNL     1      17.841   8.596  28.470  1.00  0.00    -0.421 N 
HETATM   46  C21 UNL     1      18.854   9.500  28.899  1.00  0.00     0.114 C 
ATOM     47  H5  UNL     1      17.992   7.587  28.439  1.00  0.00     0.153 HD
HETATM   48  C22 UNL     1      18.564  10.952  28.694  1.00  0.00     0.028 C 
ENDBRANCH  39  42
ENDBRANCH  34  36
ENDBRANCH  31  34
ENDBRANCH   4  31
TORSDOF 17
ENDMDL
MODEL 4
REMARK VINA RESULT: -8.579900372      1.555      2.632
REMARK  17 active torsions:
REMARK  status: ('A' for Active; 'I' for Inactive)
REMARK    1  A    between atoms: C1_2  and  C2_4 
REMARK    2  A    between atoms: C2_4  and  N1_5 
REMARK    3  A    between atoms: N1_5  and  C3_6 
REMARK       I    between atoms: N1_5  and  C27_42 
REMARK    4  A    between atoms: C3_6  and  C4_7 
REMARK    5  A    between atoms: C4_7  and  C5_8 
REMARK    6  A    between atoms: C5_8  and  N2_9 
REMARK    7  A    between atoms: N2_9  and  C6_12 
REMARK    8  A    between atoms: C6_12  and  C7_13 
REMARK    9  A    between atoms: C7_13  and  C8_14 
REMARK   10  A    between atoms: C8_14  and  C9_15 
REMARK   11  A    between atoms: C9_15  and  N3_16 
REMARK   12  A    between atoms: N3_16  and  C10_18 
REMARK   13  A    between atoms: C13_21  and  S1_22 
REMARK   14  A    between atoms: S1_22  and  N4_25 
REMARK   15  A    between atoms: N4_25  and  C14_27 
REMARK   16  A    between atoms: C17_30  and  C18_31 
REMARK   17  A    between atoms: C27_42  and  C28_44 
ROOT
HETATM    1  C10 UNL     1      22.893   7.662  20.125  1.00  0.00     0.028 A 
HETATM    2  C11 UNL     1      22.091   7.871  21.258  1.00  0.00     0.030 A 
HETATM    3  C12 UNL     1      22.203   9.053  21.949  1.00  0.00     0.027 A 
HETATM    4  C13 UNL     1      23.078  10.054  21.578  1.00  0.00     0.080 A 
HETATM    5  C25 UNL     1      23.866   9.863  20.476  1.00  0.00     0.027 A 
HETATM    6  C26 UNL     1      23.766   8.673  19.763  1.00  0.00     0.030 A 
ENDROOT
BRANCH   1   7
HETATM    7  N3  UNL     1      22.783   6.461  19.388  1.00  0.00    -0.390 N 
ATOM      8  H3  UNL     1      22.639   5.584  19.887  1.00  0.00     0.159 HD
BRANCH   7   9
HETATM    9  C9  UNL     1      22.869   6.445  17.952  1.00  0.00     0.120 C 
BRANCH   9  10
HETATM   10  C8  UNL     1      22.670   5.027  17.432  1.00  0.00     0.021 C 
BRANCH  10  11
HETATM   11  C7  UNL     1      21.197   4.629  17.582  1.00  0.00     0.029 C 
BRANCH  11  12
HETATM   12  C6  UNL     1      20.379   5.709  16.929  1.00  0.00     0.232 C 
BRANCH  12  13
HETATM   13  N2  UNL     1      19.145   5.961  17.619  1.00  0.00    -0.075 N 
ATOM     14  H22 UNL     1      18.731   5.087  17.945  1.00  0.00     0.277 HD
ATOM     15  H21 UNL     1      18.422   6.259  16.964  1.00  0.00     0.277 HD
BRANCH  13  16
HETATM   16  C5  UNL     1      19.264   6.909  18.714  1.00  0.00     0.234 C 
BRANCH  16  17
HETATM   17  C4  UNL     1      18.660   6.354  19.954  1.00  0.00     0.047 C 
BRANCH  17  18
HETATM   18  C3  UNL     1      17.822   5.127  19.760  1.00  0.00     0.128 C 
BRANCH  18  19
HETATM   19  N1  UNL     1      16.384   5.376  19.768  1.00  0.00    -0.340 N 
HETATM   20  C27 UNL     1      15.658   5.028  18.617  1.00  0.00     0.249 C 
HETATM   21  O5  UNL     1      16.337   4.495  17.656  1.00  0.00    -0.270 OA
BRANCH  19  22
HETATM   22  C2  UNL     1      15.863   5.987  20.968  1.00  0.00     0.238 C 
BRANCH  22  23
HETATM   23  C1  UNL     1      15.317   7.356  20.748  1.00  0.00     0.191 C 
HETATM   24  O1  UNL     1      15.684   8.081  19.818  1.00  0.00    -0.647 OA
HETATM   25  O2  UNL     1      14.365   7.794  21.640  1.00  0.00    -0.647 OA
ENDBRANCH  22  23
ENDBRANCH  19  22
BRANCH  20  26
HETATM   26  C28 UNL     1      14.228   5.180  18.362  1.00  0.00     0.213 C 
HETATM   27  C29 UNL     1      13.684   4.470  17.163  1.00  0.00     0.043 C 
HETATM   28  C30 UNL     1      13.683   3.029  17.630  1.00  0.00     0.029 C 
HETATM   29  C31 UNL     1      13.472   3.201  19.108  1.00  0.00     0.168 C 
HETATM   30  O6  UNL     1      13.464   4.553  19.381  1.00  0.00    -0.376 OA
ENDBRANCH  20  26
ENDBRANCH  18  19
ENDBRANCH  17  18
ENDBRANCH  16  17
ENDBRANCH  13  16
ENDBRANCH  12  13
ENDBRANCH  11  12
ENDBRANCH  10  11
ENDBRANCH   9  10
ENDBRANCH   7   9
ENDBRANCH   1   7
BRANCH   4  31
HETATM   31  S1  UNL     1      23.132  11.496  22.557  1.00  0.00     0.263 S 
HETATM   32  O3  UNL     1      23.673  11.086  23.908  1.00  0.00    -0.200 OA
HETATM   33  O4  UNL     1      24.116  12.496  22.016  1.00  0.00    -0.200 OA
BRANCH  31  34
HETATM   34  N4  UNL     1      21.566  12.128  22.714  1.00  0.00    -0.281 N 
ATOM     35  H4  UNL     1      21.168  12.610  21.908  1.00  0.00     0.179 HD
BRANCH  34  36
HETATM   36  C14 UNL     1      20.769  12.036  23.881  1.00  0.00     0.042 A 
HETATM   37  C15 UNL     1      20.859  12.885  24.953  1.00  0.00     0.030 A 
HETATM   38  C16 UNL     1      20.058  12.736  26.068  1.00  0.00     0.010 A 
HETATM   39  C17 UNL     1      19.121  11.723  26.166  1.00  0.00    -0.054 A 
HETATM   40  C23 UNL     1      19.028  10.864  25.080  1.00  0.00     0.010 A 
HETATM   41  C24 UNL     1      19.831  11.014  23.965  1.00  0.00     0.030 A 
BRANCH  39  42
HETATM   42  C18 UNL     1      18.253  11.547  27.365  1.00  0.00     0.021 C 
HETATM   43  C19 UNL     1      17.132  10.591  27.178  1.00  0.00     0.028 C 
HETATM   44  C20 UNL     1      17.005   9.576  28.285  1.00  0.00     0.114 C 
HETATM   45  N5  UNL     1      18.247   8.962  28.634  1.00  0.00    -0.421 N 
HETATM   46  C21 UNL     1      19.321   9.853  28.913  1.00  0.00     0.114 C 
ATOM     47  H5  UNL     1      18.357   7.948  28.681  1.00  0.00     0.153 HD
HETATM   48  C22 UNL     1      19.072  11.294  28.603  1.00  0.00     0.028 C 
ENDBRANCH  39  42
ENDBRANCH  34  36
ENDBRANCH  31  34
ENDBRANCH   4  31
TORSDOF 17
ENDMDL
MODEL 5
REMARK VINA RESULT: -8.507859412      1.340      2.268
REMARK  17 active torsions:
REMARK  status: ('A' for Active; 'I' for Inactive)
REMARK    1  A    between atoms: C1_2  and  C2_4 
REMARK    2  A    between atoms: C2_4  and  N1_5 
REMARK    3  A    between atoms: N1_5  and  C3_6 
REMARK       I    between atoms: N1_5  and  C27_42 
REMARK    4  A    between atoms: C3_6  and  C4_7 
REMARK    5  A    between atoms: C4_7  and  C5_8 
REMARK    6  A    between atoms: C5_8  and  N2_9 
REMARK    7  A    between atoms: N2_9  and  C6_12 
REMARK    8  A    between atoms: C6_12  and  C7_13 
REMARK    9  A    between atoms: C7_13  and  C8_14 
REMARK   10  A    between atoms: C8_14  and  C9_15 
REMARK   11  A    between atoms: C9_15  and  N3_16 
REMARK   12  A    between atoms: N3_16  and  C10_18 
REMARK   13  A    between atoms: C13_21  and  S1_22 
REMARK   14  A    between atoms: S1_22  and  N4_25 
REMARK   15  A    between atoms: N4_25  and  C14_27 
REMARK   16  A    between atoms: C17_30  and  C18_31 
REMARK   17  A    between atoms: C27_42  and  C28_44 
ROOT
HETATM    1  C10 UNL     1      23.184   7.788  20.510  1.00  0.00     0.028 A 
HETATM    2  C11 UNL     1      22.409   7.919  21.673  1.00  0.00     0.030 A 
HETATM    3  C12 UNL     1      22.365   9.133  22.315  1.00  0.00     0.027 A 
HETATM    4  C13 UNL     1      23.056  10.240  21.867  1.00  0.00     0.080 A 
HETATM    5  C25 UNL     1      23.815  10.126  20.734  1.00  0.00     0.027 A 
HETATM    6  C26 UNL     1      23.872   8.906  20.070  1.00  0.00     0.030 A 
ENDROOT
BRANCH   1   7
HETATM    7  N3  UNL     1      23.232   6.554  19.823  1.00  0.00    -0.390 N 
ATOM      8  H3  UNL     1      22.869   5.718  20.278  1.00  0.00     0.159 HD
BRANCH   7   9
HETATM    9  C9  UNL     1      23.780   6.449  18.497  1.00  0.00     0.120 C 
BRANCH   9  10
HETATM   10  C8  UNL     1      22.666   6.529  17.462  1.00  0.00     0.021 C 
BRANCH  10  11
HETATM   11  C7  UNL     1      21.374   5.955  18.055  1.00  0.00     0.029 C 
BRANCH  11  12
HETATM   12  C6  UNL     1      20.228   6.585  17.312  1.00  0.00     0.232 C 
BRANCH  12  13
HETATM   13  N2  UNL     1      19.369   7.353  18.170  1.00  0.00    -0.075 N 
ATOM     14  H22 UNL     1      18.394   7.085  18.035  1.00  0.00     0.277 HD
ATOM     15  H21 UNL     1      19.325   8.323  17.857  1.00  0.00     0.277 HD
BRANCH  13  16
HETATM   16  C5  UNL     1      19.727   7.286  19.577  1.00  0.00     0.234 C 
BRANCH  16  17
HETATM   17  C4  UNL     1      18.703   7.968  20.410  1.00  0.00     0.047 C 
BRANCH  17  18
HETATM   18  C3  UNL     1      18.049   7.107  21.448  1.00  0.00     0.128 C 
BRANCH  18  19
HETATM   19  N1  UNL     1      16.592   7.078  21.371  1.00  0.00    -0.340 N 
HETATM   20  C27 UNL     1      15.875   7.285  22.561  1.00  0.00     0.249 C 
HETATM   21  O5  UNL     1      16.581   7.502  23.621  1.00  0.00    -0.270 OA
BRANCH  19  22
HETATM   22  C2  UNL     1      16.041   6.811  20.064  1.00  0.00     0.238 C 
BRANCH  22  23
HETATM   23  C1  UNL     1      16.395   5.464  19.535  1.00  0.00     0.191 C 
HETATM   24  O1  UNL     1      17.038   5.302  18.493  1.00  0.00    -0.647 OA
HETATM   25  O2  UNL     1      15.970   4.380  20.267  1.00  0.00    -0.647 OA
ENDBRANCH  22  23
ENDBRANCH  19  22
BRANCH  20  26
HETATM   26  C28 UNL     1      14.428   7.294  22.762  1.00  0.00     0.213 C 
HETATM   27  C29 UNL     1      13.671   6.121  22.223  1.00  0.00     0.043 C 
HETATM   28  C30 UNL     1      14.035   5.035  23.215  1.00  0.00     0.029 C 
HETATM   29  C31 UNL     1      14.249   5.841  24.465  1.00  0.00     0.168 C 
HETATM   30  O6  UNL     1      14.109   7.174  24.140  1.00  0.00    -0.376 OA
ENDBRANCH  20  26
ENDBRANCH  18  19
ENDBRANCH  17  18
ENDBRANCH  16  17
ENDBRANCH  13  16
ENDBRANCH  12  13
ENDBRANCH  11  12
ENDBRANCH  10  11
ENDBRANCH   9  10
ENDBRANCH   7   9
ENDBRANCH   1   7
BRANCH   4  31
HETATM   31  S1  UNL     1      22.926  11.713  22.789  1.00  0.00     0.263 S 
HETATM   32  O3  UNL     1      23.473  11.414  24.167  1.00  0.00    -0.200 OA
HETATM   33  O4  UNL     1      23.807  12.796  22.232  1.00  0.00    -0.200 OA
BRANCH  31  34
HETATM   34  N4  UNL     1      21.295  12.173  22.888  1.00  0.00    -0.281 N 
ATOM     35  H4  UNL     1      20.877  12.607  22.065  1.00  0.00     0.179 HD
BRANCH  34  36
HETATM   36  C14 UNL     1      20.472  12.000  24.026  1.00  0.00     0.042 A 
HETATM   37  C15 UNL     1      20.523  12.785  25.149  1.00  0.00     0.030 A 
HETATM   38  C16 UNL     1      19.697  12.558  26.233  1.00  0.00     0.010 A 
HETATM   39  C17 UNL     1      18.775  11.528  26.247  1.00  0.00    -0.054 A 
HETATM   40  C23 UNL     1      18.722  10.734  25.110  1.00  0.00     0.010 A 
HETATM   41  C24 UNL     1      19.549  10.962  24.026  1.00  0.00     0.030 A 
BRANCH  39  42
HETATM   42  C18 UNL     1      17.881  11.268  27.411  1.00  0.00     0.021 C 
HETATM   43  C19 UNL     1      16.814  10.266  27.157  1.00  0.00     0.028 C 
HETATM   44  C20 UNL     1      16.705   9.208  28.224  1.00  0.00     0.114 C 
HETATM   45  N5  UNL     1      17.964   8.642  28.592  1.00  0.00    -0.421 N 
HETATM   46  C21 UNL     1      18.984   9.574  28.934  1.00  0.00     0.114 C 
ATOM     47  H5  UNL     1      18.123   7.635  28.608  1.00  0.00     0.153 HD
HETATM   48  C22 UNL     1      18.674  11.012  28.666  1.00  0.00     0.028 C 
ENDBRANCH  39  42
ENDBRANCH  34  36
ENDBRANCH  31  34
ENDBRANCH   4  31
TORSDOF 17
ENDMDL
