MODEL 1
REMARK VINA RESULT: -9.406540146      0.000      0.000
REMARK  12 active torsions:
REMARK  status: ('A' for Active; 'I' for Inactive)
REMARK    1  A    between atoms: C2_2  and  C3_3 
REMARK    2  A    between atoms: C3_3  and  N1_5 
REMARK       I    between atoms: N1_5  and  C5_7 
REMARK    3  A    between atoms: C5_7  and  C6_9 
REMARK    4  A    between atoms: C9_13  and  C10_14 
REMARK    5  A    between atoms: C10_14  and  N2_16 
REMARK       I    between atoms: N2_16  and  C12_18 
REMARK    6  A    between atoms: C12_18  and  C13_20 
REMARK       I    between atoms: N3_24  and  C17_25 
REMARK    7  A    between atoms: C17_25  and  C18_27 
REMARK    8  A    between atoms: C18_27  and  C19_28 
REMARK    9  A    between atoms: C18_27  and  N4_35 
REMARK   10  A    between atoms: C19_28  and  C20_29 
REMARK       I    between atoms: N4_35  and  C26_37 
REMARK   11  A    between atoms: C26_37  and  O6_39 
REMARK   12  A    between atoms: O6_39  and  C27_40 
ROOT
HETATM    1  C13 UNL     1      -8.683  16.273  27.582  1.00  0.00     0.114 C 
HETATM    2  C14 UNL     1      -8.615  14.815  27.993  1.00  0.00     0.049 C 
HETATM    3  C15 UNL     1      -9.177  16.453  26.156  1.00  0.00     0.061 C 
HETATM    4  C16 UNL     1      -9.805  17.697  26.723  1.00  0.00     0.130 C 
HETATM    5  N3  UNL     1      -9.850  17.006  28.028  1.00  0.00    -0.332 N 
HETATM    6  C17 UNL     1     -10.746  17.156  29.099  1.00  0.00     0.243 C 
HETATM    7  O4  UNL     1     -11.665  18.049  28.971  1.00  0.00    -0.271 OA
ENDROOT
BRANCH   1   8
HETATM    8  C12 UNL     1      -7.399  16.989  27.740  1.00  0.00     0.246 C 
HETATM    9  N2  UNL     1      -6.358  16.743  26.815  1.00  0.00    -0.352 N 
ATOM     10  H2  UNL     1      -6.521  16.074  26.062  1.00  0.00     0.163 HD
HETATM   11  O3  UNL     1      -7.216  17.796  28.663  1.00  0.00    -0.271 OA
BRANCH   9  12
HETATM   12  C10 UNL     1      -5.061  17.407  26.893  1.00  0.00     0.118 C 
HETATM   13  C11 UNL     1      -4.197  16.679  27.878  1.00  0.00     0.034 C 
BRANCH  12  14
HETATM   14  C9  UNL     1      -4.490  17.445  25.505  1.00  0.00     0.278 C 
HETATM   15  C8  UNL     1      -4.022  18.782  25.105  1.00  0.00     0.162 C 
HETATM   16  C7  UNL     1      -5.097  19.320  24.190  1.00  0.00     0.123 C 
HETATM   17  O2  UNL     1      -3.020  19.412  25.383  1.00  0.00    -0.296 OA
HETATM   18  C6  UNL     1      -5.492  18.030  23.498  1.00  0.00     0.285 C 
HETATM   19  N5  UNL     1      -5.364  16.991  24.473  1.00  0.00    -0.049 N 
ATOM     20  H52 UNL     1      -6.266  16.679  24.833  1.00  0.00     0.279 HD
ATOM     21  H51 UNL     1      -5.062  16.106  24.066  1.00  0.00     0.279 HD
BRANCH  18  22
HETATM   22  C5  UNL     1      -6.798  18.098  22.833  1.00  0.00     0.249 C 
HETATM   23  N1  UNL     1      -7.720  16.999  22.836  1.00  0.00    -0.355 N 
ATOM     24  H1  UNL     1      -7.450  16.142  23.319  1.00  0.00     0.162 HD
HETATM   25  O1  UNL     1      -7.187  19.138  22.214  1.00  0.00    -0.271 OA
BRANCH  23  26
HETATM   26  C3  UNL     1      -8.996  17.045  22.197  1.00  0.00     0.080 C 
HETATM   27  C4  UNL     1      -8.925  16.929  20.678  1.00  0.00     0.032 C 
BRANCH  26  28
HETATM   28  C2  UNL     1     -10.018  16.106  22.755  1.00  0.00     0.020 C 
HETATM   29  C1  UNL     1     -11.159  15.991  21.772  1.00  0.00     0.007 C 
ENDBRANCH  26  28
ENDBRANCH  23  26
ENDBRANCH  18  22
ENDBRANCH  12  14
ENDBRANCH   9  12
ENDBRANCH   1   8
BRANCH   6  30
HETATM   30  C18 UNL     1     -10.769  16.425  30.356  1.00  0.00     0.179 C 
BRANCH  30  31
HETATM   31  C19 UNL     1      -9.497  16.488  31.149  1.00  0.00     0.039 C 
BRANCH  31  32
HETATM   32  C20 UNL     1      -9.592  16.504  32.617  1.00  0.00    -0.012 C 
HETATM   33  C21 UNL     1      -8.715  17.436  33.372  1.00  0.00     0.005 C 
HETATM   34  C22 UNL     1      -8.289  16.822  34.721  1.00  0.00     0.000 C 
HETATM   35  C23 UNL     1      -9.431  16.062  35.335  1.00  0.00     0.000 C 
HETATM   36  C24 UNL     1      -9.846  14.926  34.463  1.00  0.00     0.000 C 
HETATM   37  C25 UNL     1      -9.222  15.090  33.099  1.00  0.00     0.005 C 
ENDBRANCH  31  32
ENDBRANCH  30  31
BRANCH  30  38
HETATM   38  N4  UNL     1     -11.133  15.055  30.168  1.00  0.00    -0.324 N 
HETATM   39  C26 UNL     1     -12.158  14.427  30.965  1.00  0.00     0.362 C 
HETATM   40  O5  UNL     1     -12.713  15.149  31.832  1.00  0.00    -0.238 OA
ATOM     41  H4  UNL     1     -10.656  14.507  29.453  1.00  0.00     0.165 HD
BRANCH  39  42
HETATM   42  O6  UNL     1     -12.544  13.125  30.827  1.00  0.00    -0.294 OA
BRANCH  42  43
HETATM   43  C27 UNL     1     -13.356  12.709  29.759  1.00  0.00     0.061 C 
HETATM   44  C28 UNL     1     -14.165  11.499  30.169  1.00  0.00     0.046 C 
HETATM   45  C29 UNL     1     -12.493  12.283  28.583  1.00  0.00     0.046 C 
HETATM   46  C30 UNL     1     -14.273  13.806  29.252  1.00  0.00     0.046 C 
ENDBRANCH  42  43
ENDBRANCH  39  42
ENDBRANCH  30  38
ENDBRANCH   6  30
TORSDOF 12
ENDMDL
MODEL 2
REMARK VINA RESULT: -9.344076822      2.325      9.829
REMARK  12 active torsions:
REMARK  status: ('A' for Active; 'I' for Inactive)
REMARK    1  A    between atoms: C2_2  and  C3_3 
REMARK    2  A    between atoms: C3_3  and  N1_5 
REMARK       I    between atoms: N1_5  and  C5_7 
REMARK    3  A    between atoms: C5_7  and  C6_9 
REMARK    4  A    between atoms: C9_13  and  C10_14 
REMARK    5  A    between atoms: C10_14  and  N2_16 
REMARK       I    between atoms: N2_16  and  C12_18 
REMARK    6  A    between atoms: C12_18  and  C13_20 
REMARK       I    between atoms: N3_24  and  C17_25 
REMARK    7  A    between atoms: C17_25  and  C18_27 
REMARK    8  A    between atoms: C18_27  and  C19_28 
REMARK    9  A    between atoms: C18_27  and  N4_35 
REMARK   10  A    between atoms: C19_28  and  C20_29 
REMARK       I    between atoms: N4_35  and  C26_37 
REMARK   11  A    between atoms: C26_37  and  O6_39 
REMARK   12  A    between atoms: O6_39  and  C27_40 
ROOT
HETATM    1  C13 UNL     1     -11.348  16.045  29.381  1.00  0.00     0.114 C 
HETATM    2  C14 UNL     1     -11.308  17.499  28.951  1.00  0.00     0.049 C 
HETATM    3  C15 UNL     1     -12.752  15.579  29.727  1.00  0.00     0.061 C 
HETATM    4  C16 UNL     1     -12.267  14.277  29.148  1.00  0.00     0.130 C 
HETATM    5  N3  UNL     1     -11.335  15.066  28.314  1.00  0.00    -0.332 N 
HETATM    6  C17 UNL     1     -10.801  14.785  27.046  1.00  0.00     0.243 C 
HETATM    7  O4  UNL     1     -11.128  13.660  26.510  1.00  0.00    -0.271 OA
ENDROOT
BRANCH   1   8
HETATM    8  C12 UNL     1     -10.447  15.742  30.515  1.00  0.00     0.246 C 
HETATM    9  N2  UNL     1     -10.814  16.167  31.813  1.00  0.00    -0.352 N 
ATOM     10  H2  UNL     1     -11.691  16.675  31.932  1.00  0.00     0.163 HD
HETATM   11  O3  UNL     1      -9.383  15.129  30.352  1.00  0.00    -0.271 OA
BRANCH   9  12
HETATM   12  C10 UNL     1      -9.988  15.909  32.989  1.00  0.00     0.118 C 
HETATM   13  C11 UNL     1      -8.926  16.963  33.081  1.00  0.00     0.034 C 
BRANCH  12  14
HETATM   14  C9  UNL     1     -10.902  15.870  34.180  1.00  0.00     0.278 C 
HETATM   15  C8  UNL     1     -10.351  15.103  35.309  1.00  0.00     0.162 C 
HETATM   16  C7  UNL     1     -11.076  13.778  35.278  1.00  0.00     0.123 C 
HETATM   17  O2  UNL     1      -9.506  15.371  36.142  1.00  0.00    -0.296 OA
HETATM   18  C6  UNL     1     -12.440  14.260  34.825  1.00  0.00     0.285 C 
HETATM   19  N5  UNL     1     -12.207  15.353  33.931  1.00  0.00    -0.049 N 
ATOM     20  H52 UNL     1     -12.347  15.096  32.954  1.00  0.00     0.279 HD
ATOM     21  H51 UNL     1     -12.930  16.070  33.992  1.00  0.00     0.279 HD
BRANCH  18  22
HETATM   22  C5  UNL     1     -13.291  13.192  34.289  1.00  0.00     0.249 C 
HETATM   23  N1  UNL     1     -13.070  12.609  32.998  1.00  0.00    -0.355 N 
ATOM     24  H1  UNL     1     -12.292  12.955  32.437  1.00  0.00     0.162 HD
HETATM   25  O1  UNL     1     -14.276  12.724  34.941  1.00  0.00    -0.271 OA
BRANCH  23  26
HETATM   26  C3  UNL     1     -13.886  11.568  32.459  1.00  0.00     0.080 C 
HETATM   27  C4  UNL     1     -14.113  11.683  30.956  1.00  0.00     0.032 C 
BRANCH  26  28
HETATM   28  C2  UNL     1     -13.467  10.180  32.829  1.00  0.00     0.020 C 
HETATM   29  C1  UNL     1     -13.255   9.384  31.563  1.00  0.00     0.007 C 
ENDBRANCH  26  28
ENDBRANCH  23  26
ENDBRANCH  18  22
ENDBRANCH  12  14
ENDBRANCH   9  12
ENDBRANCH   1   8
BRANCH   6  30
HETATM   30  C18 UNL     1      -9.911  15.613  26.247  1.00  0.00     0.179 C 
BRANCH  30  31
HETATM   31  C19 UNL     1      -9.591  15.068  24.887  1.00  0.00     0.039 C 
BRANCH  31  32
HETATM   32  C20 UNL     1      -9.442  16.020  23.774  1.00  0.00    -0.012 C 
HETATM   33  C21 UNL     1     -10.537  16.117  22.775  1.00  0.00     0.005 C 
HETATM   34  C22 UNL     1      -9.977  16.412  21.368  1.00  0.00     0.000 C 
HETATM   35  C23 UNL     1      -8.831  17.382  21.455  1.00  0.00     0.000 C 
HETATM   36  C24 UNL     1      -7.707  16.810  22.249  1.00  0.00     0.000 C 
HETATM   37  C25 UNL     1      -8.189  15.588  22.989  1.00  0.00     0.005 C 
ENDBRANCH  31  32
ENDBRANCH  30  31
BRANCH  30  38
HETATM   38  N4  UNL     1      -8.690  15.898  26.934  1.00  0.00    -0.324 N 
HETATM   39  C26 UNL     1      -8.195  17.245  27.071  1.00  0.00     0.362 C 
HETATM   40  O5  UNL     1      -8.893  18.153  26.555  1.00  0.00    -0.238 OA
ATOM     41  H4  UNL     1      -8.155  15.129  27.337  1.00  0.00     0.165 HD
BRANCH  39  42
HETATM   42  O6  UNL     1      -7.036  17.573  27.716  1.00  0.00    -0.294 OA
BRANCH  42  43
HETATM   43  C27 UNL     1      -5.818  17.683  27.026  1.00  0.00     0.061 C 
HETATM   44  C28 UNL     1      -4.699  17.106  27.862  1.00  0.00     0.046 C 
HETATM   45  C29 UNL     1      -5.483  19.147  26.793  1.00  0.00     0.046 C 
HETATM   46  C30 UNL     1      -5.850  17.021  25.661  1.00  0.00     0.046 C 
ENDBRANCH  42  43
ENDBRANCH  39  42
ENDBRANCH  30  38
ENDBRANCH   6  30
TORSDOF 12
ENDMDL
MODEL 3
REMARK VINA RESULT: -9.246682326      1.716     10.109
REMARK  12 active torsions:
REMARK  status: ('A' for Active; 'I' for Inactive)
REMARK    1  A    between atoms: C2_2  and  C3_3 
REMARK    2  A    between atoms: C3_3  and  N1_5 
REMARK       I    between atoms: N1_5  and  C5_7 
REMARK    3  A    between atoms: C5_7  and  C6_9 
REMARK    4  A    between atoms: C9_13  and  C10_14 
REMARK    5  A    between atoms: C10_14  and  N2_16 
REMARK       I    between atoms: N2_16  and  C12_18 
REMARK    6  A    between atoms: C12_18  and  C13_20 
REMARK       I    between atoms: N3_24  and  C17_25 
REMARK    7  A    between atoms: C17_25  and  C18_27 
REMARK    8  A    between atoms: C18_27  and  C19_28 
REMARK    9  A    between atoms: C18_27  and  N4_35 
REMARK   10  A    between atoms: C19_28  and  C20_29 
REMARK       I    between atoms: N4_35  and  C26_37 
REMARK   11  A    between atoms: C26_37  and  O6_39 
REMARK   12  A    between atoms: O6_39  and  C27_40 
ROOT
HETATM    1  C13 UNL     1      -8.854  15.633  28.302  1.00  0.00     0.114 C 
HETATM    2  C14 UNL     1      -7.895  14.594  27.755  1.00  0.00     0.049 C 
HETATM    3  C15 UNL     1      -8.620  15.922  29.776  1.00  0.00     0.061 C 
HETATM    4  C16 UNL     1      -9.028  17.316  29.381  1.00  0.00     0.130 C 
HETATM    5  N3  UNL     1      -8.520  17.015  28.026  1.00  0.00    -0.332 N 
HETATM    6  C17 UNL     1      -7.980  17.872  27.053  1.00  0.00     0.243 C 
HETATM    7  O4  UNL     1      -7.934  19.127  27.341  1.00  0.00    -0.271 OA
ENDROOT
BRANCH   1   8
HETATM    8  C12 UNL     1     -10.278  15.284  28.101  1.00  0.00     0.246 C 
HETATM    9  N2  UNL     1     -10.800  14.140  28.747  1.00  0.00    -0.352 N 
ATOM     10  H2  UNL     1     -10.178  13.582  29.334  1.00  0.00     0.163 HD
HETATM   11  O3  UNL     1     -11.018  15.969  27.382  1.00  0.00    -0.271 OA
BRANCH   9  12
HETATM   12  C10 UNL     1     -12.192  13.723  28.608  1.00  0.00     0.118 C 
HETATM   13  C11 UNL     1     -12.321  12.843  27.401  1.00  0.00     0.034 C 
BRANCH  12  14
HETATM   14  C9  UNL     1     -12.590  13.049  29.889  1.00  0.00     0.278 C 
HETATM   15  C8  UNL     1     -13.976  13.339  30.292  1.00  0.00     0.162 C 
HETATM   16  C7  UNL     1     -13.862  14.365  31.395  1.00  0.00     0.123 C 
HETATM   17  O2  UNL     1     -15.046  12.913  29.900  1.00  0.00    -0.296 OA
HETATM   18  C6  UNL     1     -12.596  13.862  32.060  1.00  0.00     0.285 C 
HETATM   19  N5  UNL     1     -11.767  13.344  31.015  1.00  0.00    -0.049 N 
ATOM     20  H52 UNL     1     -10.994  13.968  30.783  1.00  0.00     0.279 HD
ATOM     21  H51 UNL     1     -11.213  12.542  31.316  1.00  0.00     0.279 HD
BRANCH  18  22
HETATM   22  C5  UNL     1     -11.952  14.858  32.925  1.00  0.00     0.249 C 
HETATM   23  N1  UNL     1     -10.564  14.787  33.277  1.00  0.00    -0.355 N 
ATOM     24  H1  UNL     1     -10.010  14.013  32.911  1.00  0.00     0.162 HD
HETATM   25  O1  UNL     1     -12.592  15.842  33.412  1.00  0.00    -0.271 OA
BRANCH  23  26
HETATM   26  C3  UNL     1      -9.919  15.747  34.115  1.00  0.00     0.080 C 
HETATM   27  C4  UNL     1      -9.959  15.392  35.598  1.00  0.00     0.032 C 
BRANCH  26  28
HETATM   28  C2  UNL     1      -8.533  16.124  33.696  1.00  0.00     0.020 C 
HETATM   29  C1  UNL     1      -8.561  17.527  33.137  1.00  0.00     0.007 C 
ENDBRANCH  26  28
ENDBRANCH  23  26
ENDBRANCH  18  22
ENDBRANCH  12  14
ENDBRANCH   9  12
ENDBRANCH   1   8
BRANCH   6  30
HETATM   30  C18 UNL     1      -7.459  17.522  25.741  1.00  0.00     0.179 C 
BRANCH  30  31
HETATM   31  C19 UNL     1      -8.237  16.465  25.014  1.00  0.00     0.039 C 
BRANCH  31  32
HETATM   32  C20 UNL     1      -8.836  16.813  23.716  1.00  0.00    -0.012 C 
HETATM   33  C21 UNL     1     -10.198  16.304  23.407  1.00  0.00     0.005 C 
HETATM   34  C22 UNL     1     -10.342  15.991  21.904  1.00  0.00     0.000 C 
HETATM   35  C23 UNL     1      -9.628  17.028  21.082  1.00  0.00     0.000 C 
HETATM   36  C24 UNL     1      -8.167  17.028  21.377  1.00  0.00     0.000 C 
HETATM   37  C25 UNL     1      -7.911  16.230  22.632  1.00  0.00     0.005 C 
ENDBRANCH  31  32
ENDBRANCH  30  31
BRANCH  30  38
HETATM   38  N4  UNL     1      -6.085  17.132  25.800  1.00  0.00    -0.324 N 
HETATM   39  C26 UNL     1      -5.020  18.071  25.554  1.00  0.00     0.362 C 
HETATM   40  O5  UNL     1      -5.364  19.249  25.284  1.00  0.00    -0.238 OA
ATOM     41  H4  UNL     1      -5.852  16.164  26.023  1.00  0.00     0.165 HD
BRANCH  39  42
HETATM   42  O6  UNL     1      -3.693  17.752  25.597  1.00  0.00    -0.294 OA
BRANCH  42  43
HETATM   43  C27 UNL     1      -2.897  17.762  24.440  1.00  0.00     0.061 C 
HETATM   44  C28 UNL     1      -2.024  16.529  24.405  1.00  0.00     0.046 C 
HETATM   45  C29 UNL     1      -1.964  18.961  24.460  1.00  0.00     0.046 C 
HETATM   46  C30 UNL     1      -3.711  17.865  23.164  1.00  0.00     0.046 C 
ENDBRANCH  42  43
ENDBRANCH  39  42
ENDBRANCH  30  38
ENDBRANCH   6  30
TORSDOF 12
ENDMDL
MODEL 4
REMARK VINA RESULT: -9.228642080      2.002      9.472
REMARK  12 active torsions:
REMARK  status: ('A' for Active; 'I' for Inactive)
REMARK    1  A    between atoms: C2_2  and  C3_3 
REMARK    2  A    between atoms: C3_3  and  N1_5 
REMARK       I    between atoms: N1_5  and  C5_7 
REMARK    3  A    between atoms: C5_7  and  C6_9 
REMARK    4  A    between atoms: C9_13  and  C10_14 
REMARK    5  A    between atoms: C10_14  and  N2_16 
REMARK       I    between atoms: N2_16  and  C12_18 
REMARK    6  A    between atoms: C12_18  and  C13_20 
REMARK       I    between atoms: N3_24  and  C17_25 
REMARK    7  A    between atoms: C17_25  and  C18_27 
REMARK    8  A    between atoms: C18_27  and  C19_28 
REMARK    9  A    between atoms: C18_27  and  N4_35 
REMARK   10  A    between atoms: C19_28  and  C20_29 
REMARK       I    between atoms: N4_35  and  C26_37 
REMARK   11  A    between atoms: C26_37  and  O6_39 
REMARK   12  A    between atoms: O6_39  and  C27_40 
ROOT
HETATM    1  C13 UNL     1     -10.246  15.887  29.123  1.00  0.00     0.114 C 
HETATM    2  C14 UNL     1      -9.092  14.937  29.377  1.00  0.00     0.049 C 
HETATM    3  C15 UNL     1     -10.596  16.718  30.346  1.00  0.00     0.061 C 
HETATM    4  C16 UNL     1     -10.909  17.770  29.317  1.00  0.00     0.130 C 
HETATM    5  N3  UNL     1      -9.916  17.120  28.438  1.00  0.00    -0.332 N 
HETATM    6  C17 UNL     1      -9.104  17.669  27.432  1.00  0.00     0.243 C 
HETATM    7  O4  UNL     1      -9.243  18.927  27.190  1.00  0.00    -0.271 OA
ENDROOT
BRANCH   1   8
HETATM    8  C12 UNL     1     -11.468  15.212  28.635  1.00  0.00     0.246 C 
HETATM    9  N2  UNL     1     -11.860  13.990  29.231  1.00  0.00    -0.352 N 
ATOM     10  H2  UNL     1     -11.285  13.606  29.981  1.00  0.00     0.163 HD
HETATM   11  O3  UNL     1     -12.153  15.690  27.719  1.00  0.00    -0.271 OA
BRANCH   9  12
HETATM   12  C10 UNL     1     -13.052  13.257  28.815  1.00  0.00     0.118 C 
HETATM   13  C11 UNL     1     -12.641  12.109  27.943  1.00  0.00     0.034 C 
BRANCH  12  14
HETATM   14  C9  UNL     1     -13.778  12.837  30.060  1.00  0.00     0.278 C 
HETATM   15  C8  UNL     1     -14.767  13.827  30.518  1.00  0.00     0.162 C 
HETATM   16  C7  UNL     1     -14.111  14.532  31.681  1.00  0.00     0.123 C 
HETATM   17  O2  UNL     1     -15.885  14.104  30.128  1.00  0.00    -0.296 OA
HETATM   18  C6  UNL     1     -13.357  13.361  32.278  1.00  0.00     0.285 C 
HETATM   19  N5  UNL     1     -12.948  12.540  31.180  1.00  0.00    -0.049 N 
ATOM     20  H52 UNL     1     -11.954  12.636  30.968  1.00  0.00     0.279 HD
ATOM     21  H51 UNL     1     -12.945  11.547  31.413  1.00  0.00     0.279 HD
BRANCH  18  22
HETATM   22  C5  UNL     1     -12.277  13.761  33.188  1.00  0.00     0.249 C 
HETATM   23  N1  UNL     1     -11.099  14.440  32.731  1.00  0.00    -0.355 N 
ATOM     24  H1  UNL     1     -11.015  14.648  31.736  1.00  0.00     0.162 HD
HETATM   25  O1  UNL     1     -12.325  13.525  34.436  1.00  0.00    -0.271 OA
BRANCH  23  26
HETATM   26  C3  UNL     1     -10.038  14.838  33.600  1.00  0.00     0.080 C 
HETATM   27  C4  UNL     1      -8.649  14.591  33.025  1.00  0.00     0.032 C 
BRANCH  26  28
HETATM   28  C2  UNL     1     -10.151  16.230  34.139  1.00  0.00     0.020 C 
HETATM   29  C1  UNL     1      -8.882  16.981  33.812  1.00  0.00     0.007 C 
ENDBRANCH  26  28
ENDBRANCH  23  26
ENDBRANCH  18  22
ENDBRANCH  12  14
ENDBRANCH   9  12
ENDBRANCH   1   8
BRANCH   6  30
HETATM   30  C18 UNL     1      -8.112  16.990  26.613  1.00  0.00     0.179 C 
BRANCH  30  31
HETATM   31  C19 UNL     1      -6.688  17.207  27.034  1.00  0.00     0.039 C 
BRANCH  31  32
HETATM   32  C20 UNL     1      -5.725  17.661  26.018  1.00  0.00    -0.012 C 
HETATM   33  C21 UNL     1      -4.373  17.046  26.003  1.00  0.00     0.005 C 
HETATM   34  C22 UNL     1      -3.304  18.073  25.576  1.00  0.00     0.000 C 
HETATM   35  C23 UNL     1      -3.835  18.958  24.483  1.00  0.00     0.000 C 
HETATM   36  C24 UNL     1      -5.012  19.742  24.957  1.00  0.00     0.000 C 
HETATM   37  C25 UNL     1      -5.503  19.165  26.262  1.00  0.00     0.005 C 
ENDBRANCH  31  32
ENDBRANCH  30  31
BRANCH  30  38
HETATM   38  N4  UNL     1      -8.245  17.324  25.229  1.00  0.00    -0.324 N 
HETATM   39  C26 UNL     1      -9.127  16.593  24.355  1.00  0.00     0.362 C 
HETATM   40  O5  UNL     1      -9.772  15.647  24.874  1.00  0.00    -0.238 OA
ATOM     41  H4  UNL     1      -7.701  18.100  24.850  1.00  0.00     0.165 HD
BRANCH  39  42
HETATM   42  O6  UNL     1      -9.292  16.869  23.027  1.00  0.00    -0.294 OA
BRANCH  42  43
HETATM   43  C27 UNL     1      -8.191  17.024  22.168  1.00  0.00     0.061 C 
HETATM   44  C28 UNL     1      -8.664  17.081  20.733  1.00  0.00     0.046 C 
HETATM   45  C29 UNL     1      -7.271  15.820  22.280  1.00  0.00     0.046 C 
HETATM   46  C30 UNL     1      -7.353  18.245  22.495  1.00  0.00     0.046 C 
ENDBRANCH  42  43
ENDBRANCH  39  42
ENDBRANCH  30  38
ENDBRANCH   6  30
TORSDOF 12
ENDMDL
MODEL 5
REMARK VINA RESULT: -9.175174536      1.316      3.824
REMARK  12 active torsions:
REMARK  status: ('A' for Active; 'I' for Inactive)
REMARK    1  A    between atoms: C2_2  and  C3_3 
REMARK    2  A    between atoms: C3_3  and  N1_5 
REMARK       I    between atoms: N1_5  and  C5_7 
REMARK    3  A    between atoms: C5_7  and  C6_9 
REMARK    4  A    between atoms: C9_13  and  C10_14 
REMARK    5  A    between atoms: C10_14  and  N2_16 
REMARK       I    between atoms: N2_16  and  C12_18 
REMARK    6  A    between atoms: C12_18  and  C13_20 
REMARK       I    between atoms: N3_24  and  C17_25 
REMARK    7  A    between atoms: C17_25  and  C18_27 
REMARK    8  A    between atoms: C18_27  and  C19_28 
REMARK    9  A    between atoms: C18_27  and  N4_35 
REMARK   10  A    between atoms: C19_28  and  C20_29 
REMARK       I    between atoms: N4_35  and  C26_37 
REMARK   11  A    between atoms: C26_37  and  O6_39 
REMARK   12  A    between atoms: O6_39  and  C27_40 
ROOT
HETATM    1  C13 UNL     1      -8.689  16.851  26.816  1.00  0.00     0.114 C 
HETATM    2  C14 UNL     1      -8.583  15.370  26.511  1.00  0.00     0.049 C 
HETATM    3  C15 UNL     1      -9.234  17.650  25.643  1.00  0.00     0.061 C 
HETATM    4  C16 UNL     1      -9.863  18.476  26.731  1.00  0.00     0.130 C 
HETATM    5  N3  UNL     1      -9.852  17.263  27.575  1.00  0.00    -0.332 N 
HETATM    6  C17 UNL     1     -10.714  16.879  28.616  1.00  0.00     0.243 C 
HETATM    7  O4  UNL     1     -11.652  17.703  28.932  1.00  0.00    -0.271 OA
ENDROOT
BRANCH   1   8
HETATM    8  C12 UNL     1      -7.412  17.455  27.256  1.00  0.00     0.246 C 
HETATM    9  N2  UNL     1      -6.241  17.205  26.504  1.00  0.00    -0.352 N 
ATOM     10  H2  UNL     1      -6.309  16.612  25.677  1.00  0.00     0.163 HD
HETATM   11  O3  UNL     1      -7.347  18.170  28.267  1.00  0.00    -0.271 OA
BRANCH   9  12
HETATM   12  C10 UNL     1      -4.940  17.762  26.864  1.00  0.00     0.118 C 
HETATM   13  C11 UNL     1      -4.167  16.737  27.638  1.00  0.00     0.034 C 
BRANCH  12  14
HETATM   14  C9  UNL     1      -4.267  18.189  25.592  1.00  0.00     0.278 C 
HETATM   15  C8  UNL     1      -4.644  19.546  25.163  1.00  0.00     0.162 C 
HETATM   16  C7  UNL     1      -5.634  19.346  24.040  1.00  0.00     0.123 C 
HETATM   17  O2  UNL     1      -4.302  20.648  25.549  1.00  0.00    -0.296 OA
HETATM   18  C6  UNL     1      -5.030  18.110  23.404  1.00  0.00     0.285 C 
HETATM   19  N5  UNL     1      -4.479  17.333  24.472  1.00  0.00    -0.049 N 
ATOM     20  H52 UNL     1      -5.053  16.521  24.702  1.00  0.00     0.279 HD
ATOM     21  H51 UNL     1      -3.634  16.832  24.196  1.00  0.00     0.279 HD
BRANCH  18  22
HETATM   22  C5  UNL     1      -5.959  17.387  22.528  1.00  0.00     0.249 C 
HETATM   23  N1  UNL     1      -7.311  17.100  22.911  1.00  0.00    -0.355 N 
ATOM     24  H1  UNL     1      -7.631  17.412  23.828  1.00  0.00     0.162 HD
HETATM   25  O1  UNL     1      -5.616  16.972  21.377  1.00  0.00    -0.271 OA
BRANCH  23  26
HETATM   26  C3  UNL     1      -8.230  16.400  22.073  1.00  0.00     0.080 C 
HETATM   27  C4  UNL     1      -9.118  15.414  22.825  1.00  0.00     0.032 C 
BRANCH  26  28
HETATM   28  C2  UNL     1      -9.047  17.267  21.167  1.00  0.00     0.020 C 
HETATM   29  C1  UNL     1     -10.373  16.589  20.913  1.00  0.00     0.007 C 
ENDBRANCH  26  28
ENDBRANCH  23  26
ENDBRANCH  18  22
ENDBRANCH  12  14
ENDBRANCH   9  12
ENDBRANCH   1   8
BRANCH   6  30
HETATM   30  C18 UNL     1     -10.682  15.652  29.397  1.00  0.00     0.179 C 
BRANCH  30  31
HETATM   31  C19 UNL     1     -11.455  14.508  28.811  1.00  0.00     0.039 C 
BRANCH  31  32
HETATM   32  C20 UNL     1     -12.510  13.890  29.630  1.00  0.00    -0.012 C 
HETATM   33  C21 UNL     1     -12.476  12.418  29.832  1.00  0.00     0.005 C 
HETATM   34  C22 UNL     1     -13.904  11.840  29.912  1.00  0.00     0.000 C 
HETATM   35  C23 UNL     1     -14.804  12.771  30.676  1.00  0.00     0.000 C 
HETATM   36  C24 UNL     1     -14.917  14.087  29.986  1.00  0.00     0.000 C 
HETATM   37  C25 UNL     1     -13.847  14.191  28.928  1.00  0.00     0.005 C 
ENDBRANCH  31  32
ENDBRANCH  30  31
BRANCH  30  38
HETATM   38  N4  UNL     1     -11.115  15.867  30.743  1.00  0.00    -0.324 N 
HETATM   39  C26 UNL     1     -10.202  16.296  31.773  1.00  0.00     0.362 C 
HETATM   40  O5  UNL     1      -9.008  16.469  31.425  1.00  0.00    -0.238 OA
ATOM     41  H4  UNL     1     -12.095  15.713  30.980  1.00  0.00     0.165 HD
BRANCH  39  42
HETATM   42  O6  UNL     1     -10.563  16.515  33.072  1.00  0.00    -0.294 OA
BRANCH  42  43
HETATM   43  C27 UNL     1     -10.080  15.706  34.114  1.00  0.00     0.061 C 
HETATM   44  C28 UNL     1     -11.184  15.440  35.112  1.00  0.00     0.046 C 
HETATM   45  C29 UNL     1      -8.974  16.430  34.864  1.00  0.00     0.046 C 
HETATM   46  C30 UNL     1      -9.489  14.399  33.623  1.00  0.00     0.046 C 
ENDBRANCH  42  43
ENDBRANCH  39  42
ENDBRANCH  30  38
ENDBRANCH   6  30
TORSDOF 12
ENDMDL
