MODEL 1
REMARK VINA RESULT: -8.643037900      0.000      0.000
REMARK  13 active torsions:
REMARK  status: ('A' for Active; 'I' for Inactive)
REMARK    1  A    between atoms: C2_2  and  C3_3 
REMARK    2  A    between atoms: C3_3  and  N1_4 
REMARK    3  A    between atoms: N1_4  and  C4_6 
REMARK    4  A    between atoms: C4_6  and  N2_8 
REMARK    5  A    between atoms: N2_8  and  C5_10 
REMARK    6  A    between atoms: C5_10  and  C6_11 
REMARK    7  A    between atoms: C5_10  and  C10_15 
REMARK    8  A    between atoms: C6_11  and  C7_12 
REMARK    9  A    between atoms: C10_15  and  C11_17 
REMARK   10  A    between atoms: C11_17  and  C12_18 
REMARK   11  A    between atoms: C13_19  and  O2_20 
REMARK   12  A    between atoms: C15_23  and  C16_24 
REMARK       I    between atoms: C16_24  and  N3_26 
REMARK   13  A    between atoms: N3_26  and  C17_28 
ROOT
HETATM    1  C12 UNL     1      -8.919  16.523  25.825  1.00  0.00     0.029 C 
HETATM    2  C13 UNL     1      -9.429  16.916  24.470  1.00  0.00     0.126 C 
HETATM    3  C14 UNL     1      -8.473  16.707  23.348  1.00  0.00     0.073 C 
HETATM    4  C15 UNL     1      -7.609  17.911  23.158  1.00  0.00     0.216 C 
HETATM    5  O4  UNL     1      -6.829  18.253  24.228  1.00  0.00    -0.370 OA
HETATM    6  C27 UNL     1      -6.608  17.232  25.132  1.00  0.00     0.137 C 
HETATM    7  C28 UNL     1      -5.347  17.596  25.893  1.00  0.00     0.106 C 
HETATM    8  S2  UNL     1      -6.001  18.939  26.961  1.00  0.00    -0.166 SA
HETATM    9  C29 UNL     1      -7.787  18.547  26.772  1.00  0.00     0.081 C 
HETATM   10  C30 UNL     1      -7.632  17.121  26.210  1.00  0.00     0.032 C 
ENDROOT
BRANCH   1  11
HETATM   11  C11 UNL     1      -8.888  15.027  26.012  1.00  0.00     0.088 C 
BRANCH  11  12
HETATM   12  C10 UNL     1      -9.056  14.617  27.422  1.00  0.00     0.149 C 
HETATM   13  O1  UNL     1      -8.212  13.961  28.015  1.00  0.00    -0.296 OA
BRANCH  12  14
HETATM   14  C5  UNL     1     -10.294  15.006  28.173  1.00  0.00     0.154 C 
BRANCH  14  15
HETATM   15  N2  UNL     1     -10.331  14.390  29.463  1.00  0.00    -0.356 N 
ATOM     16  H2  UNL     1     -10.374  13.371  29.470  1.00  0.00     0.162 HD
BRANCH  15  17
HETATM   17  C4  UNL     1     -10.316  15.014  30.719  1.00  0.00     0.168 C 
HETATM   18  S1  UNL     1     -11.611  15.120  31.718  1.00  0.00    -0.041 SA
BRANCH  17  19
HETATM   19  N1  UNL     1      -9.103  15.583  31.213  1.00  0.00    -0.364 N 
ATOM     20  H1  UNL     1      -8.258  15.017  31.147  1.00  0.00     0.162 HD
BRANCH  19  21
HETATM   21  C3  UNL     1      -8.981  16.885  31.795  1.00  0.00     0.148 C 
BRANCH  21  22
HETATM   22  C2  UNL     1      -8.442  16.711  33.172  1.00  0.00    -0.018 C 
HETATM   23  C1  UNL     1      -9.222  16.975  34.197  1.00  0.00     0.008 C 
ENDBRANCH  21  22
ENDBRANCH  19  21
ENDBRANCH  17  19
ENDBRANCH  15  17
ENDBRANCH  14  15
BRANCH  14  24
HETATM   24  C6  UNL     1     -11.558  14.739  27.424  1.00  0.00     0.037 C 
BRANCH  24  25
HETATM   25  C7  UNL     1     -12.298  13.613  28.121  1.00  0.00    -0.020 C 
HETATM   26  C8  UNL     1     -12.310  12.368  27.222  1.00  0.00     0.009 C 
HETATM   27  C9  UNL     1     -13.742  13.946  28.385  1.00  0.00     0.009 C 
ENDBRANCH  24  25
ENDBRANCH  14  24
ENDBRANCH  12  14
ENDBRANCH  11  12
ENDBRANCH   1  11
BRANCH   2  28
HETATM   28  O2  UNL     1     -10.577  16.159  24.213  1.00  0.00    -0.395 OA
ATOM     29  H2  UNL     1     -11.330  16.714  24.380  1.00  0.00     0.210 HD
ENDBRANCH   2  28
BRANCH   4  30
HETATM   30  C16 UNL     1      -6.790  17.851  21.926  1.00  0.00     0.247 C 
HETATM   31  O3  UNL     1      -7.253  18.370  20.889  1.00  0.00    -0.271 OA
HETATM   32  N3  UNL     1      -5.518  17.236  21.869  1.00  0.00    -0.350 N 
ATOM     33  H3  UNL     1      -5.175  16.823  22.736  1.00  0.00     0.163 HD
BRANCH  32  34
HETATM   34  C17 UNL     1      -4.661  17.129  20.737  1.00  0.00     0.034 C 
HETATM   35  C18 UNL     1      -4.409  18.476  20.145  1.00  0.00     0.035 C 
HETATM   36  C19 UNL     1      -3.491  18.367  18.941  1.00  0.00    -0.012 C 
HETATM   37  C20 UNL     1      -4.159  17.462  17.946  1.00  0.00     0.009 C 
HETATM   38  C24 UNL     1      -2.166  17.847  19.395  1.00  0.00     0.009 C 
HETATM   39  C21 UNL     1      -4.338  16.079  18.557  1.00  0.00    -0.012 C 
HETATM   40  C22 UNL     1      -2.970  15.583  18.947  1.00  0.00     0.009 C 
HETATM   41  C26 UNL     1      -5.232  16.132  19.757  1.00  0.00     0.035 C 
HETATM   42  C23 UNL     1      -2.381  16.473  20.022  1.00  0.00    -0.012 C 
HETATM   43  C25 UNL     1      -3.307  16.591  21.194  1.00  0.00     0.035 C 
ENDBRANCH  32  34
ENDBRANCH   4  30
TORSDOF 13
ENDMDL
MODEL 2
REMARK VINA RESULT: -8.575154561      0.070      1.205
REMARK  13 active torsions:
REMARK  status: ('A' for Active; 'I' for Inactive)
REMARK    1  A    between atoms: C2_2  and  C3_3 
REMARK    2  A    between atoms: C3_3  and  N1_4 
REMARK    3  A    between atoms: N1_4  and  C4_6 
REMARK    4  A    between atoms: C4_6  and  N2_8 
REMARK    5  A    between atoms: N2_8  and  C5_10 
REMARK    6  A    between atoms: C5_10  and  C6_11 
REMARK    7  A    between atoms: C5_10  and  C10_15 
REMARK    8  A    between atoms: C6_11  and  C7_12 
REMARK    9  A    between atoms: C10_15  and  C11_17 
REMARK   10  A    between atoms: C11_17  and  C12_18 
REMARK   11  A    between atoms: C13_19  and  O2_20 
REMARK   12  A    between atoms: C15_23  and  C16_24 
REMARK       I    between atoms: C16_24  and  N3_26 
REMARK   13  A    between atoms: N3_26  and  C17_28 
ROOT
HETATM    1  C12 UNL     1      -8.942  16.516  25.823  1.00  0.00     0.029 C 
HETATM    2  C13 UNL     1      -9.438  16.903  24.462  1.00  0.00     0.126 C 
HETATM    3  C14 UNL     1      -8.471  16.692  23.351  1.00  0.00     0.073 C 
HETATM    4  C15 UNL     1      -7.607  17.897  23.165  1.00  0.00     0.216 C 
HETATM    5  O4  UNL     1      -6.839  18.245  24.242  1.00  0.00    -0.370 OA
HETATM    6  C27 UNL     1      -6.625  17.227  25.151  1.00  0.00     0.137 C 
HETATM    7  C28 UNL     1      -5.372  17.596  25.924  1.00  0.00     0.106 C 
HETATM    8  S2  UNL     1      -6.039  18.941  26.981  1.00  0.00    -0.166 SA
HETATM    9  C29 UNL     1      -7.823  18.546  26.775  1.00  0.00     0.081 C 
HETATM   10  C30 UNL     1      -7.660  17.118  26.220  1.00  0.00     0.032 C 
ENDROOT
BRANCH   1  11
HETATM   11  C11 UNL     1      -8.910  15.021  26.017  1.00  0.00     0.088 C 
BRANCH  11  12
HETATM   12  C10 UNL     1      -9.072  14.616  27.428  1.00  0.00     0.149 C 
HETATM   13  O1  UNL     1      -8.220  13.972  28.024  1.00  0.00    -0.296 OA
BRANCH  12  14
HETATM   14  C5  UNL     1     -10.313  14.996  28.179  1.00  0.00     0.154 C 
BRANCH  14  15
HETATM   15  N2  UNL     1     -10.348  14.376  29.467  1.00  0.00    -0.356 N 
ATOM     16  H2  UNL     1     -10.370  13.356  29.472  1.00  0.00     0.162 HD
BRANCH  15  17
HETATM   17  C4  UNL     1     -10.357  14.997  30.724  1.00  0.00     0.168 C 
HETATM   18  S1  UNL     1     -11.678  15.129  31.685  1.00  0.00    -0.041 SA
BRANCH  17  19
HETATM   19  N1  UNL     1      -9.147  15.539  31.255  1.00  0.00    -0.364 N 
ATOM     20  H1  UNL     1      -8.334  14.925  31.293  1.00  0.00     0.162 HD
BRANCH  19  21
HETATM   21  C3  UNL     1      -8.986  16.877  31.739  1.00  0.00     0.148 C 
BRANCH  21  22
HETATM   22  C2  UNL     1      -8.461  16.789  33.130  1.00  0.00    -0.018 C 
HETATM   23  C1  UNL     1      -9.304  16.886  34.134  1.00  0.00     0.008 C 
ENDBRANCH  21  22
ENDBRANCH  19  21
ENDBRANCH  17  19
ENDBRANCH  15  17
ENDBRANCH  14  15
BRANCH  14  24
HETATM   24  C6  UNL     1     -11.575  14.723  27.427  1.00  0.00     0.037 C 
BRANCH  24  25
HETATM   25  C7  UNL     1     -12.316  13.601  28.128  1.00  0.00    -0.020 C 
HETATM   26  C8  UNL     1     -12.334  12.354  27.232  1.00  0.00     0.009 C 
HETATM   27  C9  UNL     1     -13.758  13.939  28.395  1.00  0.00     0.009 C 
ENDBRANCH  24  25
ENDBRANCH  14  24
ENDBRANCH  12  14
ENDBRANCH  11  12
ENDBRANCH   1  11
BRANCH   2  28
HETATM   28  O2  UNL     1     -10.582  16.143  24.197  1.00  0.00    -0.395 OA
ATOM     29  H2  UNL     1     -10.306  15.244  24.067  1.00  0.00     0.210 HD
ENDBRANCH   2  28
BRANCH   4  30
HETATM   30  C16 UNL     1      -6.776  17.834  21.942  1.00  0.00     0.247 C 
HETATM   31  O3  UNL     1      -7.233  18.343  20.896  1.00  0.00    -0.271 OA
HETATM   32  N3  UNL     1      -5.498  17.229  21.902  1.00  0.00    -0.350 N 
ATOM     33  H3  UNL     1      -5.161  16.824  22.775  1.00  0.00     0.163 HD
BRANCH  32  34
HETATM   34  C17 UNL     1      -4.630  17.120  20.778  1.00  0.00     0.034 C 
HETATM   35  C18 UNL     1      -5.200  16.182  19.768  1.00  0.00     0.035 C 
HETATM   36  C19 UNL     1      -4.280  16.068  18.565  1.00  0.00    -0.012 C 
HETATM   37  C20 UNL     1      -2.950  15.577  19.061  1.00  0.00     0.009 C 
HETATM   38  C24 UNL     1      -4.191  17.404  17.903  1.00  0.00     0.009 C 
HETATM   39  C21 UNL     1      -2.365  16.590  20.036  1.00  0.00    -0.012 C 
HETATM   40  C22 UNL     1      -2.250  17.901  19.303  1.00  0.00     0.009 C 
HETATM   41  C26 UNL     1      -3.242  16.746  21.240  1.00  0.00     0.035 C 
HETATM   42  C23 UNL     1      -3.624  18.401  18.910  1.00  0.00    -0.012 C 
HETATM   43  C25 UNL     1      -4.529  18.485  20.101  1.00  0.00     0.035 C 
ENDBRANCH  32  34
ENDBRANCH   4  30
TORSDOF 13
ENDMDL
MODEL 3
REMARK VINA RESULT: -8.479204734      4.478     12.612
REMARK  13 active torsions:
REMARK  status: ('A' for Active; 'I' for Inactive)
REMARK    1  A    between atoms: C2_2  and  C3_3 
REMARK    2  A    between atoms: C3_3  and  N1_4 
REMARK    3  A    between atoms: N1_4  and  C4_6 
REMARK    4  A    between atoms: C4_6  and  N2_8 
REMARK    5  A    between atoms: N2_8  and  C5_10 
REMARK    6  A    between atoms: C5_10  and  C6_11 
REMARK    7  A    between atoms: C5_10  and  C10_15 
REMARK    8  A    between atoms: C6_11  and  C7_12 
REMARK    9  A    between atoms: C10_15  and  C11_17 
REMARK   10  A    between atoms: C11_17  and  C12_18 
REMARK   11  A    between atoms: C13_19  and  O2_20 
REMARK   12  A    between atoms: C15_23  and  C16_24 
REMARK       I    between atoms: C16_24  and  N3_26 
REMARK   13  A    between atoms: N3_26  and  C17_28 
ROOT
HETATM    1  C12 UNL     1     -10.356  15.504  29.646  1.00  0.00     0.029 C 
HETATM    2  C13 UNL     1     -10.518  16.238  30.944  1.00  0.00     0.126 C 
HETATM    3  C14 UNL     1     -10.708  15.375  32.142  1.00  0.00     0.073 C 
HETATM    4  C15 UNL     1     -12.157  15.076  32.353  1.00  0.00     0.216 C 
HETATM    5  O4  UNL     1     -12.778  14.409  31.334  1.00  0.00    -0.370 OA
HETATM    6  C27 UNL     1     -11.925  13.728  30.486  1.00  0.00     0.137 C 
HETATM    7  C28 UNL     1     -12.758  12.655  29.810  1.00  0.00     0.106 C 
HETATM    8  S2  UNL     1     -13.729  13.695  28.648  1.00  0.00    -0.166 SA
HETATM    9  C29 UNL     1     -12.661  15.190  28.717  1.00  0.00     0.081 C 
HETATM   10  C30 UNL     1     -11.415  14.531  29.338  1.00  0.00     0.032 C 
ENDROOT
BRANCH   1  11
HETATM   11  C11 UNL     1      -8.995  14.869  29.515  1.00  0.00     0.088 C 
BRANCH  11  12
HETATM   12  C10 UNL     1      -8.439  14.968  28.149  1.00  0.00     0.149 C 
HETATM   13  O1  UNL     1      -8.095  13.983  27.512  1.00  0.00    -0.296 OA
BRANCH  12  14
HETATM   14  C5  UNL     1      -8.283  16.310  27.499  1.00  0.00     0.154 C 
BRANCH  14  15
HETATM   15  N2  UNL     1      -7.939  16.179  26.118  1.00  0.00    -0.356 N 
ATOM     16  H2  UNL     1      -7.018  15.784  25.923  1.00  0.00     0.162 HD
BRANCH  15  17
HETATM   17  C4  UNL     1      -8.709  16.526  24.999  1.00  0.00     0.168 C 
HETATM   18  S1  UNL     1     -10.341  16.393  24.918  1.00  0.00    -0.041 SA
BRANCH  17  19
HETATM   19  N1  UNL     1      -8.072  17.063  23.839  1.00  0.00    -0.364 N 
ATOM     20  H1  UNL     1      -7.743  18.027  23.888  1.00  0.00     0.162 HD
BRANCH  19  21
HETATM   21  C3  UNL     1      -7.860  16.355  22.613  1.00  0.00     0.148 C 
BRANCH  21  22
HETATM   22  C2  UNL     1      -8.407  17.196  21.512  1.00  0.00    -0.018 C 
HETATM   23  C1  UNL     1      -9.615  16.942  21.060  1.00  0.00     0.008 C 
ENDBRANCH  21  22
ENDBRANCH  19  21
ENDBRANCH  17  19
ENDBRANCH  15  17
ENDBRANCH  14  15
BRANCH  14  24
HETATM   24  C6  UNL     1      -7.317  17.207  28.202  1.00  0.00     0.037 C 
BRANCH  24  25
HETATM   25  C7  UNL     1      -6.155  17.482  27.267  1.00  0.00    -0.020 C 
HETATM   26  C8  UNL     1      -4.844  17.023  27.922  1.00  0.00     0.009 C 
HETATM   27  C9  UNL     1      -5.980  18.949  26.978  1.00  0.00     0.009 C 
ENDBRANCH  24  25
ENDBRANCH  14  24
ENDBRANCH  12  14
ENDBRANCH  11  12
ENDBRANCH   1  11
BRANCH   2  28
HETATM   28  O2  UNL     1      -9.368  17.010  31.140  1.00  0.00    -0.395 OA
ATOM     29  H2  UNL     1      -9.389  17.335  32.033  1.00  0.00     0.210 HD
ENDBRANCH   2  28
BRANCH   4  30
HETATM   30  C16 UNL     1     -12.430  14.406  33.645  1.00  0.00     0.247 C 
HETATM   31  O3  UNL     1     -12.608  15.124  34.652  1.00  0.00    -0.271 OA
HETATM   32  N3  UNL     1     -12.496  13.001  33.792  1.00  0.00    -0.350 N 
ATOM     33  H3  UNL     1     -12.344  12.449  32.947  1.00  0.00     0.163 HD
BRANCH  32  34
HETATM   34  C17 UNL     1     -12.751  12.269  34.986  1.00  0.00     0.034 C 
HETATM   35  C18 UNL     1     -14.068  12.662  35.567  1.00  0.00     0.035 C 
HETATM   36  C19 UNL     1     -14.348  11.880  36.838  1.00  0.00    -0.012 C 
HETATM   37  C20 UNL     1     -13.231  12.170  37.799  1.00  0.00     0.009 C 
HETATM   38  C24 UNL     1     -14.451  10.431  36.494  1.00  0.00     0.009 C 
HETATM   39  C21 UNL     1     -11.912  11.693  37.205  1.00  0.00    -0.012 C 
HETATM   40  C22 UNL     1     -12.055  10.219  36.927  1.00  0.00     0.009 C 
HETATM   41  C26 UNL     1     -11.593  12.430  35.941  1.00  0.00     0.035 C 
HETATM   42  C23 UNL     1     -13.125   9.988  35.880  1.00  0.00    -0.012 C 
HETATM   43  C25 UNL     1     -12.851  10.784  34.642  1.00  0.00     0.035 C 
ENDBRANCH  32  34
ENDBRANCH   4  30
TORSDOF 13
ENDMDL
MODEL 4
REMARK VINA RESULT: -8.431729562      4.255     12.283
REMARK  13 active torsions:
REMARK  status: ('A' for Active; 'I' for Inactive)
REMARK    1  A    between atoms: C2_2  and  C3_3 
REMARK    2  A    between atoms: C3_3  and  N1_4 
REMARK    3  A    between atoms: N1_4  and  C4_6 
REMARK    4  A    between atoms: C4_6  and  N2_8 
REMARK    5  A    between atoms: N2_8  and  C5_10 
REMARK    6  A    between atoms: C5_10  and  C6_11 
REMARK    7  A    between atoms: C5_10  and  C10_15 
REMARK    8  A    between atoms: C6_11  and  C7_12 
REMARK    9  A    between atoms: C10_15  and  C11_17 
REMARK   10  A    between atoms: C11_17  and  C12_18 
REMARK   11  A    between atoms: C13_19  and  O2_20 
REMARK   12  A    between atoms: C15_23  and  C16_24 
REMARK       I    between atoms: C16_24  and  N3_26 
REMARK   13  A    between atoms: N3_26  and  C17_28 
ROOT
HETATM    1  C12 UNL     1     -10.159  15.750  29.424  1.00  0.00     0.029 C 
HETATM    2  C13 UNL     1     -10.477  16.527  30.667  1.00  0.00     0.126 C 
HETATM    3  C14 UNL     1     -10.642  15.712  31.901  1.00  0.00     0.073 C 
HETATM    4  C15 UNL     1     -12.058  15.262  32.052  1.00  0.00     0.216 C 
HETATM    5  O4  UNL     1     -12.540  14.476  31.042  1.00  0.00    -0.370 OA
HETATM    6  C27 UNL     1     -11.569  13.853  30.282  1.00  0.00     0.137 C 
HETATM    7  C28 UNL     1     -12.237  12.659  29.626  1.00  0.00     0.106 C 
HETATM    8  S2  UNL     1     -13.246  13.521  28.356  1.00  0.00    -0.166 SA
HETATM    9  C29 UNL     1     -12.356  15.128  28.394  1.00  0.00     0.081 C 
HETATM   10  C30 UNL     1     -11.084  14.648  29.118  1.00  0.00     0.032 C 
ENDROOT
BRANCH   1  11
HETATM   11  C11 UNL     1      -8.730  15.267  29.402  1.00  0.00     0.088 C 
BRANCH  11  12
HETATM   12  C10 UNL     1      -8.256  14.924  28.046  1.00  0.00     0.149 C 
HETATM   13  O1  UNL     1      -8.081  13.767  27.690  1.00  0.00    -0.296 OA
BRANCH  12  14
HETATM   14  C5  UNL     1      -7.974  16.010  27.053  1.00  0.00     0.154 C 
BRANCH  14  15
HETATM   15  N2  UNL     1      -7.719  15.471  25.753  1.00  0.00    -0.356 N 
ATOM     16  H2  UNL     1      -7.454  14.486  25.723  1.00  0.00     0.162 HD
BRANCH  15  17
HETATM   17  C4  UNL     1      -7.788  16.127  24.517  1.00  0.00     0.168 C 
HETATM   18  S1  UNL     1      -9.174  16.392  23.682  1.00  0.00    -0.041 SA
BRANCH  17  19
HETATM   19  N1  UNL     1      -6.598  16.643  23.920  1.00  0.00    -0.364 N 
ATOM     20  H1  UNL     1      -6.006  15.987  23.411  1.00  0.00     0.162 HD
BRANCH  19  21
HETATM   21  C3  UNL     1      -6.169  18.007  23.980  1.00  0.00     0.148 C 
BRANCH  21  22
HETATM   22  C2  UNL     1      -4.682  18.005  24.068  1.00  0.00    -0.018 C 
HETATM   23  C1  UNL     1      -4.113  17.618  25.189  1.00  0.00     0.008 C 
ENDBRANCH  21  22
ENDBRANCH  19  21
ENDBRANCH  17  19
ENDBRANCH  15  17
ENDBRANCH  14  15
BRANCH  14  24
HETATM   24  C6  UNL     1      -6.873  16.930  27.468  1.00  0.00     0.037 C 
BRANCH  24  25
HETATM   25  C7  UNL     1      -7.476  18.284  27.790  1.00  0.00    -0.020 C 
HETATM   26  C8  UNL     1      -8.780  18.470  27.001  1.00  0.00     0.009 C 
HETATM   27  C9  UNL     1      -6.583  19.426  27.386  1.00  0.00     0.009 C 
ENDBRANCH  24  25
ENDBRANCH  14  24
ENDBRANCH  12  14
ENDBRANCH  11  12
ENDBRANCH   1  11
BRANCH   2  28
HETATM   28  O2  UNL     1      -9.434  17.435  30.878  1.00  0.00    -0.395 OA
ATOM     29  H2  UNL     1      -9.821  18.263  31.138  1.00  0.00     0.210 HD
ENDBRANCH   2  28
BRANCH   4  30
HETATM   30  C16 UNL     1     -12.332  14.633  33.365  1.00  0.00     0.247 C 
HETATM   31  O3  UNL     1     -12.494  15.382  34.351  1.00  0.00    -0.271 OA
HETATM   32  N3  UNL     1     -12.416  13.234  33.552  1.00  0.00    -0.350 N 
ATOM     33  H3  UNL     1     -12.277  12.656  32.724  1.00  0.00     0.163 HD
BRANCH  32  34
HETATM   34  C17 UNL     1     -12.673  12.541  34.769  1.00  0.00     0.034 C 
HETATM   35  C18 UNL     1     -13.965  12.992  35.363  1.00  0.00     0.035 C 
HETATM   36  C19 UNL     1     -14.247  12.251  36.658  1.00  0.00    -0.012 C 
HETATM   37  C20 UNL     1     -13.103  12.526  37.591  1.00  0.00     0.009 C 
HETATM   38  C24 UNL     1     -14.404  10.798  36.352  1.00  0.00     0.009 C 
HETATM   39  C21 UNL     1     -11.812  11.991  36.986  1.00  0.00    -0.012 C 
HETATM   40  C22 UNL     1     -12.009  10.517  36.748  1.00  0.00     0.009 C 
HETATM   41  C26 UNL     1     -11.493  12.686  35.699  1.00  0.00     0.035 C 
HETATM   42  C23 UNL     1     -13.105  10.296  35.727  1.00  0.00    -0.012 C 
HETATM   43  C25 UNL     1     -12.829  11.052  34.464  1.00  0.00     0.035 C 
ENDBRANCH  32  34
ENDBRANCH   4  30
TORSDOF 13
ENDMDL
MODEL 5
REMARK VINA RESULT: -8.425959616      4.225     12.085
REMARK  13 active torsions:
REMARK  status: ('A' for Active; 'I' for Inactive)
REMARK    1  A    between atoms: C2_2  and  C3_3 
REMARK    2  A    between atoms: C3_3  and  N1_4 
REMARK    3  A    between atoms: N1_4  and  C4_6 
REMARK    4  A    between atoms: C4_6  and  N2_8 
REMARK    5  A    between atoms: N2_8  and  C5_10 
REMARK    6  A    between atoms: C5_10  and  C6_11 
REMARK    7  A    between atoms: C5_10  and  C10_15 
REMARK    8  A    between atoms: C6_11  and  C7_12 
REMARK    9  A    between atoms: C10_15  and  C11_17 
REMARK   10  A    between atoms: C11_17  and  C12_18 
REMARK   11  A    between atoms: C13_19  and  O2_20 
REMARK   12  A    between atoms: C15_23  and  C16_24 
REMARK       I    between atoms: C16_24  and  N3_26 
REMARK   13  A    between atoms: N3_26  and  C17_28 
ROOT
HETATM    1  C12 UNL     1     -10.207  15.875  29.346  1.00  0.00     0.029 C 
HETATM    2  C13 UNL     1     -10.525  16.642  30.595  1.00  0.00     0.126 C 
HETATM    3  C14 UNL     1     -10.640  15.821  31.831  1.00  0.00     0.073 C 
HETATM    4  C15 UNL     1     -12.039  15.328  32.011  1.00  0.00     0.216 C 
HETATM    5  O4  UNL     1     -12.516  14.528  31.009  1.00  0.00    -0.370 OA
HETATM    6  C27 UNL     1     -11.541  13.935  30.230  1.00  0.00     0.137 C 
HETATM    7  C28 UNL     1     -12.185  12.721  29.586  1.00  0.00     0.106 C 
HETATM    8  S2  UNL     1     -13.245  13.551  28.337  1.00  0.00    -0.166 SA
HETATM    9  C29 UNL     1     -12.404  15.186  28.358  1.00  0.00     0.081 C 
HETATM   10  C30 UNL     1     -11.104  14.746  29.057  1.00  0.00     0.032 C 
ENDROOT
BRANCH   1  11
HETATM   11  C11 UNL     1      -8.765  15.437  29.295  1.00  0.00     0.088 C 
BRANCH  11  12
HETATM   12  C10 UNL     1      -8.337  15.011  27.947  1.00  0.00     0.149 C 
HETATM   13  O1  UNL     1      -8.090  13.844  27.680  1.00  0.00    -0.296 OA
BRANCH  12  14
HETATM   14  C5  UNL     1      -8.193  16.024  26.851  1.00  0.00     0.154 C 
BRANCH  14  15
HETATM   15  N2  UNL     1      -7.659  17.253  27.349  1.00  0.00    -0.356 N 
ATOM     16  H2  UNL     1      -8.326  17.880  27.799  1.00  0.00     0.162 HD
BRANCH  15  17
HETATM   17  C4  UNL     1      -6.332  17.703  27.296  1.00  0.00     0.168 C 
HETATM   18  S1  UNL     1      -5.068  16.955  28.025  1.00  0.00    -0.041 SA
BRANCH  17  19
HETATM   19  N1  UNL     1      -6.010  18.872  26.542  1.00  0.00    -0.364 N 
ATOM     20  H1  UNL     1      -6.080  19.772  27.018  1.00  0.00     0.162 HD
BRANCH  19  21
HETATM   21  C3  UNL     1      -5.596  18.882  25.172  1.00  0.00     0.148 C 
BRANCH  21  22
HETATM   22  C2  UNL     1      -4.221  19.452  25.124  1.00  0.00    -0.018 C 
HETATM   23  C1  UNL     1      -3.198  18.633  25.016  1.00  0.00     0.008 C 
ENDBRANCH  21  22
ENDBRANCH  19  21
ENDBRANCH  17  19
ENDBRANCH  15  17
ENDBRANCH  14  15
BRANCH  14  24
HETATM   24  C6  UNL     1      -9.456  16.267  26.091  1.00  0.00     0.037 C 
BRANCH  24  25
HETATM   25  C7  UNL     1      -9.390  15.484  24.794  1.00  0.00    -0.020 C 
HETATM   26  C8  UNL     1      -7.961  15.528  24.234  1.00  0.00     0.009 C 
HETATM   27  C9  UNL     1     -10.271  16.067  23.721  1.00  0.00     0.009 C 
ENDBRANCH  24  25
ENDBRANCH  14  24
ENDBRANCH  12  14
ENDBRANCH  11  12
ENDBRANCH   1  11
BRANCH   2  28
HETATM   28  O2  UNL     1      -9.506  17.581  30.787  1.00  0.00    -0.395 OA
ATOM     29  H2  UNL     1      -9.075  17.711  29.950  1.00  0.00     0.210 HD
ENDBRANCH   2  28
BRANCH   4  30
HETATM   30  C16 UNL     1     -12.267  14.690  33.327  1.00  0.00     0.247 C 
HETATM   31  O3  UNL     1     -12.280  15.423  34.339  1.00  0.00    -0.271 OA
HETATM   32  N3  UNL     1     -12.467  13.300  33.493  1.00  0.00    -0.350 N 
ATOM     33  H3  UNL     1     -12.448  12.735  32.643  1.00  0.00     0.163 HD
BRANCH  32  34
HETATM   34  C17 UNL     1     -12.693  12.600  34.712  1.00  0.00     0.034 C 
HETATM   35  C18 UNL     1     -13.971  13.044  35.340  1.00  0.00     0.035 C 
HETATM   36  C19 UNL     1     -14.218  12.296  36.637  1.00  0.00    -0.012 C 
HETATM   37  C20 UNL     1     -13.053  12.569  37.543  1.00  0.00     0.009 C 
HETATM   38  C24 UNL     1     -14.379  10.843  36.328  1.00  0.00     0.009 C 
HETATM   39  C21 UNL     1     -11.776  12.041  36.904  1.00  0.00    -0.012 C 
HETATM   40  C22 UNL     1     -11.974  10.567  36.663  1.00  0.00     0.009 C 
HETATM   41  C26 UNL     1     -11.490  12.743  35.613  1.00  0.00     0.035 C 
HETATM   42  C23 UNL     1     -13.095  10.349  35.668  1.00  0.00    -0.012 C 
HETATM   43  C25 UNL     1     -12.851  11.112  34.402  1.00  0.00     0.035 C 
ENDBRANCH  32  34
ENDBRANCH   4  30
TORSDOF 13
ENDMDL
