MODEL 1
REMARK VINA RESULT: -5.286200851      0.000      0.000
REMARK  0 active torsions:
REMARK  status: ('A' for Active; 'I' for Inactive)
ROOT
HETATM    1  C1  UNL     1     116.072   9.531  46.694  1.00  0.00     0.053 C 
HETATM    2  C2  UNL     1     116.313   8.799  47.993  1.00  0.00     0.173 C 
HETATM    3  O1  UNL     1     115.439   9.184  48.973  1.00  0.00    -0.352 OA
HETATM    4  C3  UNL     1     114.135   9.149  48.543  1.00  0.00     0.210 C 
HETATM    5  C4  UNL     1     113.190   9.524  49.672  1.00  0.00     0.305 C 
HETATM    6  N1  UNL     1     112.328   8.430  50.044  1.00  0.00    -0.049 N 
ATOM      7  H11 UNL     1     111.645   8.735  50.738  1.00  0.00     0.279 HD
ATOM      8  H12 UNL     1     112.842   7.742  50.595  1.00  0.00     0.279 HD
HETATM    9  C5  UNL     1     111.673   7.797  48.946  1.00  0.00     0.399 C 
HETATM   10  O2  UNL     1     112.451   7.737  47.788  1.00  0.00    -0.359 OA
HETATM   11  C6  UNL     1     113.792   7.684  48.235  1.00  0.00     0.240 C 
HETATM   12  O3  UNL     1     113.855   9.974  47.479  1.00  0.00    -0.352 OA
HETATM   13  C7  UNL     1     114.959  10.541  46.886  1.00  0.00     0.173 C 
ENDROOT
TORSDOF 0
ENDMDL
MODEL 2
REMARK VINA RESULT: -5.028442539      1.521      2.530
REMARK  0 active torsions:
REMARK  status: ('A' for Active; 'I' for Inactive)
ROOT
HETATM    1  C1  UNL     1     117.073   9.834  46.448  1.00  0.00     0.053 C 
HETATM    2  C2  UNL     1     115.725  10.059  45.804  1.00  0.00     0.173 C 
HETATM    3  O1  UNL     1     114.752   9.274  46.357  1.00  0.00    -0.352 OA
HETATM    4  C3  UNL     1     114.739   9.359  47.728  1.00  0.00     0.210 C 
HETATM    5  C4  UNL     1     113.608   8.523  48.305  1.00  0.00     0.305 C 
HETATM    6  N1  UNL     1     112.623   9.333  48.978  1.00  0.00    -0.049 N 
ATOM      7  H11 UNL     1     111.926   8.742  49.431  1.00  0.00     0.279 HD
ATOM      8  H12 UNL     1     112.031   9.811  48.298  1.00  0.00     0.279 HD
HETATM    9  C5  UNL     1     113.166  10.268  49.909  1.00  0.00     0.399 C 
HETATM   10  O2  UNL     1     114.391  10.808  49.511  1.00  0.00    -0.359 OA
HETATM   11  C6  UNL     1     114.366  10.802  48.097  1.00  0.00     0.240 C 
HETATM   12  O3  UNL     1     115.902   8.959  48.343  1.00  0.00    -0.352 OA
HETATM   13  C7  UNL     1     116.956   8.738  47.487  1.00  0.00     0.173 C 
ENDROOT
TORSDOF 0
ENDMDL
MODEL 3
REMARK VINA RESULT: -4.992972239      1.338      2.327
REMARK  0 active torsions:
REMARK  status: ('A' for Active; 'I' for Inactive)
ROOT
HETATM    1  C1  UNL     1     117.027   8.824  47.595  1.00  0.00     0.053 C 
HETATM    2  C2  UNL     1     115.906   9.358  46.735  1.00  0.00     0.173 C 
HETATM    3  O1  UNL     1     114.739   8.670  46.922  1.00  0.00    -0.352 OA
HETATM    4  C3  UNL     1     114.418   8.553  48.252  1.00  0.00     0.210 C 
HETATM    5  C4  UNL     1     113.087   7.838  48.420  1.00  0.00     0.305 C 
HETATM    6  N1  UNL     1     112.083   8.690  49.007  1.00  0.00    -0.049 N 
ATOM      7  H11 UNL     1     111.231   8.161  49.191  1.00  0.00     0.279 HD
ATOM      8  H12 UNL     1     111.731   9.353  48.316  1.00  0.00     0.279 HD
HETATM    9  C5  UNL     1     112.507   9.376  50.183  1.00  0.00     0.399 C 
HETATM   10  O2  UNL     1     113.849   9.762  50.154  1.00  0.00    -0.359 OA
HETATM   11  C6  UNL     1     114.154   9.968  48.788  1.00  0.00     0.240 C 
HETATM   12  O3  UNL     1     115.345   7.882  49.014  1.00  0.00    -0.352 OA
HETATM   13  C7  UNL     1     116.533   7.620  48.372  1.00  0.00     0.173 C 
ENDROOT
TORSDOF 0
ENDMDL
MODEL 4
REMARK VINA RESULT: -4.887895626      1.887      3.726
REMARK  0 active torsions:
REMARK  status: ('A' for Active; 'I' for Inactive)
ROOT
HETATM    1  C1  UNL     1     112.195   8.597  49.312  1.00  0.00     0.053 C 
HETATM    2  C2  UNL     1     113.269   9.462  49.929  1.00  0.00     0.173 C 
HETATM    3  O1  UNL     1     114.525   9.068  49.559  1.00  0.00    -0.352 OA
HETATM    4  C3  UNL     1     114.638   8.920  48.199  1.00  0.00     0.210 C 
HETATM    5  C4  UNL     1     116.060   8.542  47.818  1.00  0.00     0.305 C 
HETATM    6  N1  UNL     1     116.699   9.561  47.023  1.00  0.00    -0.049 N 
ATOM      7  H11 UNL     1     117.615   9.243  46.707  1.00  0.00     0.279 HD
ATOM      8  H12 UNL     1     116.979  10.347  47.610  1.00  0.00     0.279 HD
HETATM    9  C5  UNL     1     115.922  10.018  45.918  1.00  0.00     0.399 C 
HETATM   10  O2  UNL     1     114.550  10.063  46.178  1.00  0.00    -0.359 OA
HETATM   11  C6  UNL     1     114.436  10.304  47.566  1.00  0.00     0.240 C 
HETATM   12  O3  UNL     1     113.800   7.979  47.648  1.00  0.00    -0.352 OA
HETATM   13  C7  UNL     1     112.844   7.490  48.507  1.00  0.00     0.173 C 
ENDROOT
TORSDOF 0
ENDMDL
MODEL 5
REMARK VINA RESULT: -4.869583243      1.892      2.869
REMARK  0 active torsions:
REMARK  status: ('A' for Active; 'I' for Inactive)
ROOT
HETATM    1  C1  UNL     1     114.936  10.986  47.659  1.00  0.00     0.053 C 
HETATM    2  C2  UNL     1     114.175  10.447  48.848  1.00  0.00     0.173 C 
HETATM    3  O1  UNL     1     113.676   9.195  48.618  1.00  0.00    -0.352 OA
HETATM    4  C3  UNL     1     114.635   8.340  48.133  1.00  0.00     0.210 C 
HETATM    5  C4  UNL     1     114.062   6.944  47.947  1.00  0.00     0.305 C 
HETATM    6  N1  UNL     1     114.688   5.980  48.816  1.00  0.00    -0.049 N 
ATOM      7  H11 UNL     1     114.350   5.041  48.607  1.00  0.00     0.279 HD
ATOM      8  H12 UNL     1     114.342   6.083  49.770  1.00  0.00     0.279 HD
HETATM    9  C5  UNL     1     116.114   6.012  48.800  1.00  0.00     0.399 C 
HETATM   10  O2  UNL     1     116.645   7.295  48.649  1.00  0.00    -0.359 OA
HETATM   11  C6  UNL     1     115.696   8.168  49.229  1.00  0.00     0.240 C 
HETATM   12  O3  UNL     1     115.194   8.719  46.935  1.00  0.00    -0.352 OA
HETATM   13  C7  UNL     1     114.860   9.987  46.521  1.00  0.00     0.173 C 
ENDROOT
TORSDOF 0
ENDMDL
