MODEL 1
REMARK VINA RESULT: -5.602987718      0.000      0.000
REMARK  1 active torsions:
REMARK  status: ('A' for Active; 'I' for Inactive)
REMARK    1  A    between atoms: O1_1  and  C1_3 
ROOT
HETATM    1  C1  UNL     1     113.760  10.288  49.086  1.00  0.00     0.217 C 
HETATM    2  O2  UNL     1     113.649   9.367  50.104  1.00  0.00    -0.348 OA
HETATM    3  C2  UNL     1     112.465   8.905  49.484  1.00  0.00     0.209 C 
HETATM    4  C3  UNL     1     113.093   9.350  48.156  1.00  0.00     0.210 C 
HETATM    5  O3  UNL     1     113.868   8.430  47.545  1.00  0.00    -0.371 OA
HETATM    6  C4  UNL     1     115.122   8.823  47.165  1.00  0.00     0.148 C 
HETATM    7  C5  UNL     1     115.133  10.152  46.432  1.00  0.00     0.200 C 
HETATM    8  O4  UNL     1     115.083  11.145  47.372  1.00  0.00    -0.378 OA
HETATM    9  C6  UNL     1     115.161  10.603  48.626  1.00  0.00     0.189 C 
HETATM   10  C7  UNL     1     115.863   9.252  48.439  1.00  0.00     0.071 C 
ENDROOT
BRANCH   1  11
HETATM   11  O1  UNL     1     113.076  11.442  49.378  1.00  0.00    -0.361 OA
ATOM     12  H1  UNL     1     112.950  11.975  48.602  1.00  0.00     0.213 HD
ENDBRANCH   1  11
TORSDOF 1
ENDMDL
MODEL 2
REMARK VINA RESULT: -5.530669200      1.142      1.449
REMARK  1 active torsions:
REMARK  status: ('A' for Active; 'I' for Inactive)
REMARK    1  A    between atoms: O1_1  and  C1_3 
ROOT
HETATM    1  C1  UNL     1     113.034   9.204  49.591  1.00  0.00     0.217 C 
HETATM    2  O2  UNL     1     112.978   7.830  49.675  1.00  0.00    -0.348 OA
HETATM    3  C2  UNL     1     111.983   7.865  48.670  1.00  0.00     0.209 C 
HETATM    4  C3  UNL     1     112.669   9.139  48.159  1.00  0.00     0.210 C 
HETATM    5  O3  UNL     1     113.669   8.942  47.275  1.00  0.00    -0.371 OA
HETATM    6  C4  UNL     1     114.864   9.555  47.536  1.00  0.00     0.148 C 
HETATM    7  C5  UNL     1     114.713  11.020  47.908  1.00  0.00     0.200 C 
HETATM    8  O4  UNL     1     114.368  11.080  49.230  1.00  0.00    -0.378 OA
HETATM    9  C6  UNL     1     114.397   9.825  49.775  1.00  0.00     0.189 C 
HETATM   10  C7  UNL     1     115.355   9.021  48.888  1.00  0.00     0.071 C 
ENDROOT
BRANCH   1  11
HETATM   11  O1  UNL     1     112.118   9.795  50.425  1.00  0.00    -0.361 OA
ATOM     12  H1  UNL     1     111.576   9.146  50.859  1.00  0.00     0.213 HD
ENDBRANCH   1  11
TORSDOF 1
ENDMDL
MODEL 3
REMARK VINA RESULT: -5.236955974      1.854      2.603
REMARK  1 active torsions:
REMARK  status: ('A' for Active; 'I' for Inactive)
REMARK    1  A    between atoms: O1_1  and  C1_3 
ROOT
HETATM    1  C1  UNL     1     113.203   7.625  48.429  1.00  0.00     0.217 C 
HETATM    2  O2  UNL     1     113.009   7.199  49.725  1.00  0.00    -0.348 OA
HETATM    3  C2  UNL     1     113.605   5.972  49.354  1.00  0.00     0.209 C 
HETATM    4  C3  UNL     1     114.411   6.777  48.325  1.00  0.00     0.210 C 
HETATM    5  O3  UNL     1     115.572   7.295  48.778  1.00  0.00    -0.371 OA
HETATM    6  C4  UNL     1     115.786   8.629  48.562  1.00  0.00     0.148 C 
HETATM    7  C5  UNL     1     115.489   9.057  47.136  1.00  0.00     0.200 C 
HETATM    8  O4  UNL     1     114.137   9.235  47.028  1.00  0.00    -0.378 OA
HETATM    9  C6  UNL     1     113.549   9.083  48.255  1.00  0.00     0.189 C 
HETATM   10  C7  UNL     1     114.655   9.385  49.273  1.00  0.00     0.071 C 
ENDROOT
BRANCH   1  11
HETATM   11  O1  UNL     1     112.147   7.279  47.625  1.00  0.00    -0.361 OA
ATOM     12  H1  UNL     1     112.381   7.328  46.705  1.00  0.00     0.213 HD
ENDBRANCH   1  11
TORSDOF 1
ENDMDL
MODEL 4
REMARK VINA RESULT: -5.220282545      1.767      3.160
REMARK  1 active torsions:
REMARK  status: ('A' for Active; 'I' for Inactive)
REMARK    1  A    between atoms: O1_1  and  C1_3 
ROOT
HETATM    1  C1  UNL     1     114.451   7.385  48.330  1.00  0.00     0.217 C 
HETATM    2  O2  UNL     1     115.106   6.840  49.413  1.00  0.00    -0.348 OA
HETATM    3  C2  UNL     1     116.285   6.845  48.633  1.00  0.00     0.209 C 
HETATM    4  C3  UNL     1     115.696   8.064  47.911  1.00  0.00     0.210 C 
HETATM    5  O3  UNL     1     115.969   9.259  48.477  1.00  0.00    -0.371 OA
HETATM    6  C4  UNL     1     114.911  10.093  48.715  1.00  0.00     0.148 C 
HETATM    7  C5  UNL     1     113.977  10.227  47.526  1.00  0.00     0.200 C 
HETATM    8  O4  UNL     1     113.147   9.139  47.524  1.00  0.00    -0.378 OA
HETATM    9  C6  UNL     1     113.367   8.385  48.645  1.00  0.00     0.189 C 
HETATM   10  C7  UNL     1     113.965   9.354  49.672  1.00  0.00     0.071 C 
ENDROOT
BRANCH   1  11
HETATM   11  O1  UNL     1     113.978   6.409  47.488  1.00  0.00    -0.361 OA
ATOM     12  H1  UNL     1     113.305   5.886  47.908  1.00  0.00     0.213 HD
ENDBRANCH   1  11
TORSDOF 1
ENDMDL
MODEL 5
REMARK VINA RESULT: -5.181493267      1.366      2.861
REMARK  1 active torsions:
REMARK  status: ('A' for Active; 'I' for Inactive)
REMARK    1  A    between atoms: O1_1  and  C1_3 
ROOT
HETATM    1  C1  UNL     1     114.705   9.898  47.153  1.00  0.00     0.217 C 
HETATM    2  O2  UNL     1     115.055  11.101  47.726  1.00  0.00    -0.348 OA
HETATM    3  C2  UNL     1     113.723  11.527  47.516  1.00  0.00     0.209 C 
HETATM    4  C3  UNL     1     113.324  10.052  47.659  1.00  0.00     0.210 C 
HETATM    5  O3  UNL     1     113.078   9.639  48.920  1.00  0.00    -0.371 OA
HETATM    6  C4  UNL     1     113.724   8.511  49.344  1.00  0.00     0.148 C 
HETATM    7  C5  UNL     1     113.646   7.368  48.347  1.00  0.00     0.200 C 
HETATM    8  O4  UNL     1     114.603   7.584  47.393  1.00  0.00    -0.378 OA
HETATM    9  C6  UNL     1     115.362   8.671  47.733  1.00  0.00     0.189 C 
HETATM   10  C7  UNL     1     115.229   8.795  49.256  1.00  0.00     0.071 C 
ENDROOT
BRANCH   1  11
HETATM   11  O1  UNL     1     114.859   9.929  45.789  1.00  0.00    -0.361 OA
ATOM     12  H1  UNL     1     115.777   9.961  45.545  1.00  0.00     0.213 HD
ENDBRANCH   1  11
TORSDOF 1
ENDMDL
