MODEL 1
REMARK VINA RESULT: -8.777442382      0.000      0.000
REMARK  11 active torsions:
REMARK  status: ('A' for Active; 'I' for Inactive)
REMARK    1  A    between atoms: C2_5  and  N2_6 
REMARK    2  A    between atoms: N2_6  and  C3_8 
REMARK    3  A    between atoms: C5_10  and  N3_11 
REMARK    4  A    between atoms: N3_11  and  O2_13 
REMARK    5  A    between atoms: N7_24  and  C8_25 
REMARK    6  A    between atoms: C8_25  and  C9_26 
REMARK    7  A    between atoms: C9_26  and  O4_27 
REMARK    8  A    between atoms: C9_26  and  C10_29 
REMARK    9  A    between atoms: C10_29  and  O5_30 
REMARK   10  A    between atoms: C10_29  and  C11_32 
REMARK   11  A    between atoms: C11_32  and  O6_33 
ROOT
HETATM    1  O1  UNL     1     -27.727  37.820  45.969  1.00  0.00    -0.244 OA
HETATM    2  C1  UNL     1     -26.700  37.222  46.437  1.00  0.00     0.349 A 
HETATM    3  N1  UNL     1     -26.013  37.557  47.542  1.00  0.00    -0.271 N 
ATOM      4  H1  UNL     1     -26.218  38.340  48.163  1.00  0.00     0.174 HD
HETATM    5  C2  UNL     1     -25.012  36.680  47.682  1.00  0.00     0.253 A 
HETATM    6  O3  UNL     1     -25.088  35.841  46.697  1.00  0.00    -0.194 OA
HETATM    7  N7  UNL     1     -26.091  36.137  45.929  1.00  0.00    -0.196 N 
ENDROOT
BRANCH   5   8
HETATM    8  N2  UNL     1     -24.139  36.668  48.616  1.00  0.00    -0.305 N 
ATOM      9  H2  UNL     1     -24.254  37.279  49.425  1.00  0.00     0.171 HD
BRANCH   8  10
HETATM   10  C3  UNL     1     -22.995  35.801  48.534  1.00  0.00     0.128 A 
HETATM   11  C4  UNL     1     -21.853  35.592  49.170  1.00  0.00     0.098 A 
HETATM   12  C5  UNL     1     -20.973  35.911  50.183  1.00  0.00     0.143 A 
HETATM   13  C7  UNL     1     -21.480  34.564  48.331  1.00  0.00     0.125 A 
HETATM   14  N4  UNL     1     -19.792  35.245  50.348  1.00  0.00    -0.336 N 
HETATM   15  C6  UNL     1     -19.456  34.250  49.519  1.00  0.00     0.183 A 
ATOM     16  H4  UNL     1     -19.164  35.506  51.107  1.00  0.00     0.168 HD
HETATM   17  N5  UNL     1     -20.295  33.919  48.524  1.00  0.00    -0.338 N 
ATOM     18  H5  UNL     1     -20.036  33.160  47.894  1.00  0.00     0.168 HD
HETATM   19  N6  UNL     1     -22.582  34.737  47.686  1.00  0.00    -0.327 N 
ATOM     20  H6  UNL     1     -22.999  34.282  46.875  1.00  0.00     0.169 HD
BRANCH  12  21
HETATM   21  N3  UNL     1     -21.291  36.866  50.984  1.00  0.00    -0.252 N 
ATOM     22  H3  UNL     1     -22.202  36.835  51.441  1.00  0.00     0.196 HD
BRANCH  21  23
HETATM   23  O2  UNL     1     -20.469  37.917  51.251  1.00  0.00    -0.288 OA
ATOM     24  H2  UNL     1     -19.664  37.833  51.749  1.00  0.00     0.244 HD
ENDBRANCH  21  23
ENDBRANCH  12  21
ENDBRANCH   8  10
ENDBRANCH   5   8
BRANCH   7  25
HETATM   25  C8  UNL     1     -26.503  35.426  44.719  1.00  0.00     0.196 C 
BRANCH  25  26
HETATM   26  C9  UNL     1     -25.660  35.963  43.592  1.00  0.00     0.169 C 
BRANCH  26  27
HETATM   27  O4  UNL     1     -25.308  37.261  43.890  1.00  0.00    -0.391 OA
ATOM     28  H4  UNL     1     -24.919  37.653  43.117  1.00  0.00     0.210 HD
ENDBRANCH  26  27
BRANCH  26  29
HETATM   29  C10 UNL     1     -26.407  35.854  42.266  1.00  0.00     0.172 C 
BRANCH  29  30
HETATM   30  O5  UNL     1     -26.204  37.074  41.611  1.00  0.00    -0.391 OA
ATOM     31  H5  UNL     1     -26.458  37.746  42.233  1.00  0.00     0.210 HD
ENDBRANCH  29  30
BRANCH  29  32
HETATM   32  C11 UNL     1     -25.882  34.697  41.438  1.00  0.00     0.198 C 
BRANCH  32  33
HETATM   33  O6  UNL     1     -27.013  33.961  41.043  1.00  0.00    -0.398 OA
ATOM     34  H6  UNL     1     -27.478  34.510  40.423  1.00  0.00     0.209 HD
ENDBRANCH  32  33
ENDBRANCH  29  32
ENDBRANCH  26  29
ENDBRANCH  25  26
ENDBRANCH   7  25
TORSDOF 11
ENDMDL
MODEL 2
REMARK VINA RESULT: -8.726317573      2.414      2.852
REMARK  11 active torsions:
REMARK  status: ('A' for Active; 'I' for Inactive)
REMARK    1  A    between atoms: C2_5  and  N2_6 
REMARK    2  A    between atoms: N2_6  and  C3_8 
REMARK    3  A    between atoms: C5_10  and  N3_11 
REMARK    4  A    between atoms: N3_11  and  O2_13 
REMARK    5  A    between atoms: N7_24  and  C8_25 
REMARK    6  A    between atoms: C8_25  and  C9_26 
REMARK    7  A    between atoms: C9_26  and  O4_27 
REMARK    8  A    between atoms: C9_26  and  C10_29 
REMARK    9  A    between atoms: C10_29  and  O5_30 
REMARK   10  A    between atoms: C10_29  and  C11_32 
REMARK   11  A    between atoms: C11_32  and  O6_33 
ROOT
HETATM    1  O1  UNL     1     -27.581  38.148  46.213  1.00  0.00    -0.244 OA
HETATM    2  C1  UNL     1     -26.440  37.795  46.663  1.00  0.00     0.349 A 
HETATM    3  N1  UNL     1     -26.186  37.244  47.862  1.00  0.00    -0.271 N 
ATOM      4  H1  UNL     1     -26.875  37.030  48.582  1.00  0.00     0.174 HD
HETATM    5  C2  UNL     1     -24.868  37.024  47.940  1.00  0.00     0.253 A 
HETATM    6  O3  UNL     1     -24.339  37.429  46.829  1.00  0.00    -0.194 OA
HETATM    7  N7  UNL     1     -25.254  37.897  46.037  1.00  0.00    -0.196 N 
ENDROOT
BRANCH   5   8
HETATM    8  N2  UNL     1     -24.243  36.511  48.930  1.00  0.00    -0.305 N 
ATOM      9  H2  UNL     1     -24.594  36.648  49.877  1.00  0.00     0.171 HD
BRANCH   8  10
HETATM   10  C3  UNL     1     -23.047  35.740  48.716  1.00  0.00     0.128 A 
HETATM   11  C4  UNL     1     -21.847  35.591  49.254  1.00  0.00     0.098 A 
HETATM   12  C5  UNL     1     -20.918  35.927  50.216  1.00  0.00     0.143 A 
HETATM   13  C7  UNL     1     -21.465  34.637  48.334  1.00  0.00     0.125 A 
HETATM   14  N4  UNL     1     -19.681  35.347  50.256  1.00  0.00    -0.336 N 
HETATM   15  C6  UNL     1     -19.337  34.425  49.351  1.00  0.00     0.183 A 
ATOM     16  H4  UNL     1     -19.018  35.620  50.980  1.00  0.00     0.168 HD
HETATM   17  N5  UNL     1     -20.223  34.078  48.404  1.00  0.00    -0.338 N 
ATOM     18  H5  UNL     1     -19.959  33.374  47.715  1.00  0.00     0.168 HD
HETATM   19  N6  UNL     1     -22.623  34.755  47.783  1.00  0.00    -0.327 N 
ATOM     20  H6  UNL     1     -23.067  34.310  46.980  1.00  0.00     0.169 HD
BRANCH  12  21
HETATM   21  N3  UNL     1     -21.242  36.813  51.090  1.00  0.00    -0.252 N 
ATOM     22  H3  UNL     1     -22.105  36.682  51.618  1.00  0.00     0.196 HD
BRANCH  21  23
HETATM   23  O2  UNL     1     -20.491  37.918  51.342  1.00  0.00    -0.288 OA
ATOM     24  H2  UNL     1     -20.697  38.540  52.031  1.00  0.00     0.244 HD
ENDBRANCH  21  23
ENDBRANCH  12  21
ENDBRANCH   8  10
ENDBRANCH   5   8
BRANCH   7  25
HETATM   25  C8  UNL     1     -25.051  38.445  44.696  1.00  0.00     0.196 C 
BRANCH  25  26
HETATM   26  C9  UNL     1     -24.696  39.898  44.870  1.00  0.00     0.169 C 
BRANCH  26  27
HETATM   27  O4  UNL     1     -25.855  40.607  45.100  1.00  0.00    -0.391 OA
ATOM     28  H4  UNL     1     -25.709  41.194  45.832  1.00  0.00     0.210 HD
ENDBRANCH  26  27
BRANCH  26  29
HETATM   29  C10 UNL     1     -23.933  40.412  43.652  1.00  0.00     0.172 C 
BRANCH  29  30
HETATM   30  O5  UNL     1     -22.798  39.600  43.542  1.00  0.00    -0.391 OA
ATOM     31  H5  UNL     1     -23.063  38.856  43.013  1.00  0.00     0.210 HD
ENDBRANCH  29  30
BRANCH  29  32
HETATM   32  C11 UNL     1     -24.785  40.330  42.401  1.00  0.00     0.198 C 
BRANCH  32  33
HETATM   33  O6  UNL     1     -25.613  41.467  42.423  1.00  0.00    -0.398 OA
ATOM     34  H6  UNL     1     -25.990  41.532  41.554  1.00  0.00     0.209 HD
ENDBRANCH  32  33
ENDBRANCH  29  32
ENDBRANCH  26  29
ENDBRANCH  25  26
ENDBRANCH   7  25
TORSDOF 11
ENDMDL
MODEL 3
REMARK VINA RESULT: -8.668825470      2.354      7.794
REMARK  11 active torsions:
REMARK  status: ('A' for Active; 'I' for Inactive)
REMARK    1  A    between atoms: C2_5  and  N2_6 
REMARK    2  A    between atoms: N2_6  and  C3_8 
REMARK    3  A    between atoms: C5_10  and  N3_11 
REMARK    4  A    between atoms: N3_11  and  O2_13 
REMARK    5  A    between atoms: N7_24  and  C8_25 
REMARK    6  A    between atoms: C8_25  and  C9_26 
REMARK    7  A    between atoms: C9_26  and  O4_27 
REMARK    8  A    between atoms: C9_26  and  C10_29 
REMARK    9  A    between atoms: C10_29  and  O5_30 
REMARK   10  A    between atoms: C10_29  and  C11_32 
REMARK   11  A    between atoms: C11_32  and  O6_33 
ROOT
HETATM    1  O1  UNL     1     -22.533  33.521  46.331  1.00  0.00    -0.244 OA
HETATM    2  C1  UNL     1     -22.876  34.609  46.904  1.00  0.00     0.349 A 
HETATM    3  N1  UNL     1     -23.759  35.512  46.447  1.00  0.00    -0.271 N 
ATOM      4  H1  UNL     1     -24.281  35.453  45.572  1.00  0.00     0.174 HD
HETATM    5  C2  UNL     1     -23.832  36.503  47.343  1.00  0.00     0.253 A 
HETATM    6  O3  UNL     1     -23.022  36.213  48.312  1.00  0.00    -0.194 OA
HETATM    7  N7  UNL     1     -22.430  35.081  48.081  1.00  0.00    -0.196 N 
ENDROOT
BRANCH   5   8
HETATM    8  N2  UNL     1     -24.566  37.546  47.262  1.00  0.00    -0.305 N 
ATOM      9  H2  UNL     1     -24.133  38.465  47.166  1.00  0.00     0.171 HD
BRANCH   8  10
HETATM   10  C3  UNL     1     -25.999  37.435  47.306  1.00  0.00     0.128 A 
HETATM   11  C4  UNL     1     -26.986  36.952  46.567  1.00  0.00     0.098 A 
HETATM   12  C5  UNL     1     -27.422  36.310  45.427  1.00  0.00     0.143 A 
HETATM   13  C7  UNL     1     -27.957  37.335  47.468  1.00  0.00     0.125 A 
HETATM   14  N4  UNL     1     -28.747  36.066  45.200  1.00  0.00    -0.336 N 
HETATM   15  C6  UNL     1     -29.667  36.449  46.091  1.00  0.00     0.183 A 
ATOM     16  H4  UNL     1     -29.035  35.589  44.346  1.00  0.00     0.168 HD
HETATM   17  N5  UNL     1     -29.270  37.076  47.210  1.00  0.00    -0.338 N 
ATOM     18  H5  UNL     1     -29.973  37.366  47.889  1.00  0.00     0.168 HD
HETATM   19  N6  UNL     1     -27.024  37.817  48.214  1.00  0.00    -0.327 N 
ATOM     20  H6  UNL     1     -27.022  38.293  49.116  1.00  0.00     0.169 HD
BRANCH  12  21
HETATM   21  N3  UNL     1     -26.542  35.939  44.565  1.00  0.00    -0.252 N 
ATOM     22  H3  UNL     1     -26.602  34.993  44.186  1.00  0.00     0.196 HD
BRANCH  21  23
HETATM   23  O2  UNL     1     -25.535  36.745  44.136  1.00  0.00    -0.288 OA
ATOM     24  H2  UNL     1     -25.312  36.854  43.219  1.00  0.00     0.244 HD
ENDBRANCH  21  23
ENDBRANCH  12  21
ENDBRANCH   8  10
ENDBRANCH   5   8
BRANCH   7  25
HETATM   25  C8  UNL     1     -21.448  34.419  48.940  1.00  0.00     0.196 C 
BRANCH  25  26
HETATM   26  C9  UNL     1     -20.329  35.403  49.159  1.00  0.00     0.169 C 
BRANCH  26  27
HETATM   27  O4  UNL     1     -19.169  34.867  48.642  1.00  0.00    -0.391 OA
ATOM     28  H4  UNL     1     -18.429  35.311  49.039  1.00  0.00     0.210 HD
ENDBRANCH  26  27
BRANCH  26  29
HETATM   29  C10 UNL     1     -20.201  35.747  50.640  1.00  0.00     0.172 C 
BRANCH  29  30
HETATM   30  O5  UNL     1     -21.094  36.799  50.866  1.00  0.00    -0.391 OA
ATOM     31  H5  UNL     1     -20.814  37.504  50.294  1.00  0.00     0.210 HD
ENDBRANCH  29  30
BRANCH  29  32
HETATM   32  C11 UNL     1     -20.537  34.550  51.508  1.00  0.00     0.198 C 
BRANCH  32  33
HETATM   33  O6  UNL     1     -19.367  33.770  51.559  1.00  0.00    -0.398 OA
ATOM     34  H6  UNL     1     -19.544  33.075  52.181  1.00  0.00     0.209 HD
ENDBRANCH  32  33
ENDBRANCH  29  32
ENDBRANCH  26  29
ENDBRANCH  25  26
ENDBRANCH   7  25
TORSDOF 11
ENDMDL
MODEL 4
REMARK VINA RESULT: -8.661102716      2.703      7.947
REMARK  11 active torsions:
REMARK  status: ('A' for Active; 'I' for Inactive)
REMARK    1  A    between atoms: C2_5  and  N2_6 
REMARK    2  A    between atoms: N2_6  and  C3_8 
REMARK    3  A    between atoms: C5_10  and  N3_11 
REMARK    4  A    between atoms: N3_11  and  O2_13 
REMARK    5  A    between atoms: N7_24  and  C8_25 
REMARK    6  A    between atoms: C8_25  and  C9_26 
REMARK    7  A    between atoms: C9_26  and  O4_27 
REMARK    8  A    between atoms: C9_26  and  C10_29 
REMARK    9  A    between atoms: C10_29  and  O5_30 
REMARK   10  A    between atoms: C10_29  and  C11_32 
REMARK   11  A    between atoms: C11_32  and  O6_33 
ROOT
HETATM    1  O1  UNL     1     -24.734  36.834  49.799  1.00  0.00    -0.244 OA
HETATM    2  C1  UNL     1     -24.384  36.397  48.651  1.00  0.00     0.349 A 
HETATM    3  N1  UNL     1     -25.160  36.302  47.559  1.00  0.00    -0.271 N 
ATOM      4  H1  UNL     1     -26.143  36.567  47.496  1.00  0.00     0.174 HD
HETATM    5  C2  UNL     1     -24.414  35.798  46.570  1.00  0.00     0.253 A 
HETATM    6  O3  UNL     1     -23.225  35.593  47.043  1.00  0.00    -0.194 OA
HETATM    7  N7  UNL     1     -23.171  35.942  48.292  1.00  0.00    -0.196 N 
ENDROOT
BRANCH   5   8
HETATM    8  N2  UNL     1     -24.799  35.560  45.374  1.00  0.00    -0.305 N 
ATOM      9  H2  UNL     1     -25.155  34.635  45.131  1.00  0.00     0.171 HD
BRANCH   8  10
HETATM   10  C3  UNL     1     -24.736  36.587  44.370  1.00  0.00     0.128 A 
HETATM   11  C4  UNL     1     -25.198  36.821  43.152  1.00  0.00     0.098 A 
HETATM   12  C5  UNL     1     -25.938  36.426  42.057  1.00  0.00     0.143 A 
HETATM   13  C7  UNL     1     -24.582  38.052  43.067  1.00  0.00     0.125 A 
HETATM   14  N4  UNL     1     -26.055  37.211  40.945  1.00  0.00    -0.336 N 
HETATM   15  C6  UNL     1     -25.446  38.401  40.891  1.00  0.00     0.183 A 
ATOM     16  H4  UNL     1     -26.610  36.888  40.153  1.00  0.00     0.168 HD
HETATM   17  N5  UNL     1     -24.720  38.810  41.943  1.00  0.00    -0.338 N 
ATOM     18  H5  UNL     1     -24.257  39.718  41.899  1.00  0.00     0.168 HD
HETATM   19  N6  UNL     1     -24.113  37.859  44.251  1.00  0.00    -0.327 N 
ATOM     20  H6  UNL     1     -23.519  38.411  44.870  1.00  0.00     0.169 HD
BRANCH  12  21
HETATM   21  N3  UNL     1     -26.527  35.283  42.103  1.00  0.00    -0.252 N 
ATOM     22  H3  UNL     1     -26.035  34.468  41.735  1.00  0.00     0.196 HD
BRANCH  21  23
HETATM   23  O2  UNL     1     -27.773  35.108  42.617  1.00  0.00    -0.288 OA
ATOM     24  H2  UNL     1     -27.964  35.165  43.547  1.00  0.00     0.244 HD
ENDBRANCH  21  23
ENDBRANCH  12  21
ENDBRANCH   8  10
ENDBRANCH   5   8
BRANCH   7  25
HETATM   25  C8  UNL     1     -22.004  35.863  49.170  1.00  0.00     0.196 C 
BRANCH  25  26
HETATM   26  C9  UNL     1     -21.110  34.788  48.610  1.00  0.00     0.169 C 
BRANCH  26  27
HETATM   27  O4  UNL     1     -21.881  33.678  48.339  1.00  0.00    -0.391 OA
ATOM     28  H4  UNL     1     -21.305  32.929  48.236  1.00  0.00     0.210 HD
ENDBRANCH  26  27
BRANCH  26  29
HETATM   29  C10 UNL     1     -19.970  34.482  49.578  1.00  0.00     0.172 C 
BRANCH  29  30
HETATM   30  O5  UNL     1     -18.820  35.028  48.997  1.00  0.00    -0.391 OA
ATOM     31  H5  UNL     1     -19.102  35.411  48.174  1.00  0.00     0.210 HD
ENDBRANCH  29  30
BRANCH  29  32
HETATM   32  C11 UNL     1     -20.235  35.090  50.941  1.00  0.00     0.198 C 
BRANCH  32  33
HETATM   33  O6  UNL     1     -20.582  34.017  51.781  1.00  0.00    -0.398 OA
ATOM     34  H6  UNL     1     -20.804  34.404  52.619  1.00  0.00     0.209 HD
ENDBRANCH  32  33
ENDBRANCH  29  32
ENDBRANCH  26  29
ENDBRANCH  25  26
ENDBRANCH   7  25
TORSDOF 11
ENDMDL
MODEL 5
REMARK VINA RESULT: -8.640269865      2.947      7.114
REMARK  11 active torsions:
REMARK  status: ('A' for Active; 'I' for Inactive)
REMARK    1  A    between atoms: C2_5  and  N2_6 
REMARK    2  A    between atoms: N2_6  and  C3_8 
REMARK    3  A    between atoms: C5_10  and  N3_11 
REMARK    4  A    between atoms: N3_11  and  O2_13 
REMARK    5  A    between atoms: N7_24  and  C8_25 
REMARK    6  A    between atoms: C8_25  and  C9_26 
REMARK    7  A    between atoms: C9_26  and  O4_27 
REMARK    8  A    between atoms: C9_26  and  C10_29 
REMARK    9  A    between atoms: C10_29  and  O5_30 
REMARK   10  A    between atoms: C10_29  and  C11_32 
REMARK   11  A    between atoms: C11_32  and  O6_33 
ROOT
HETATM    1  O1  UNL     1     -24.593  36.845  49.799  1.00  0.00    -0.244 OA
HETATM    2  C1  UNL     1     -24.348  36.331  48.656  1.00  0.00     0.349 A 
HETATM    3  N1  UNL     1     -25.234  36.109  47.671  1.00  0.00    -0.271 N 
ATOM      4  H1  UNL     1     -26.232  36.322  47.701  1.00  0.00     0.174 HD
HETATM    5  C2  UNL     1     -24.574  35.560  46.645  1.00  0.00     0.253 A 
HETATM    6  O3  UNL     1     -23.331  35.451  46.993  1.00  0.00    -0.194 OA
HETATM    7  N7  UNL     1     -23.159  35.906  48.196  1.00  0.00    -0.196 N 
ENDROOT
BRANCH   5   8
HETATM    8  N2  UNL     1     -25.076  35.205  45.523  1.00  0.00    -0.305 N 
ATOM      9  H2  UNL     1     -25.480  34.274  45.421  1.00  0.00     0.171 HD
BRANCH   8  10
HETATM   10  C3  UNL     1     -25.076  36.110  44.406  1.00  0.00     0.128 A 
HETATM   11  C4  UNL     1     -24.640  37.322  44.103  1.00  0.00     0.098 A 
HETATM   12  C5  UNL     1     -23.985  38.481  44.464  1.00  0.00     0.143 A 
HETATM   13  C7  UNL     1     -25.133  37.268  42.817  1.00  0.00     0.125 A 
HETATM   14  N4  UNL     1     -23.833  39.523  43.593  1.00  0.00    -0.336 N 
HETATM   15  C6  UNL     1     -24.323  39.443  42.351  1.00  0.00     0.183 A 
ATOM     16  H4  UNL     1     -23.344  40.367  43.892  1.00  0.00     0.168 HD
HETATM   17  N5  UNL     1     -24.964  38.325  41.974  1.00  0.00    -0.338 N 
ATOM     18  H5  UNL     1     -25.336  38.266  41.026  1.00  0.00     0.168 HD
HETATM   19  N6  UNL     1     -25.574  36.085  43.074  1.00  0.00    -0.327 N 
ATOM     20  H6  UNL     1     -26.086  35.392  42.528  1.00  0.00     0.169 HD
BRANCH  12  21
HETATM   21  N3  UNL     1     -23.512  38.566  45.657  1.00  0.00    -0.252 N 
ATOM     22  H3  UNL     1     -22.557  38.247  45.825  1.00  0.00     0.196 HD
BRANCH  21  23
HETATM   23  O2  UNL     1     -24.223  39.059  46.706  1.00  0.00    -0.288 OA
ATOM     24  H2  UNL     1     -24.500  39.966  46.765  1.00  0.00     0.244 HD
ENDBRANCH  21  23
ENDBRANCH  12  21
ENDBRANCH   8  10
ENDBRANCH   5   8
BRANCH   7  25
HETATM   25  C8  UNL     1     -21.899  35.955  48.939  1.00  0.00     0.196 C 
BRANCH  25  26
HETATM   26  C9  UNL     1     -21.118  34.727  48.551  1.00  0.00     0.169 C 
BRANCH  26  27
HETATM   27  O4  UNL     1     -21.987  33.660  48.482  1.00  0.00    -0.391 OA
ATOM     28  H4  UNL     1     -21.942  33.181  49.301  1.00  0.00     0.210 HD
ENDBRANCH  26  27
BRANCH  26  29
HETATM   29  C10 UNL     1     -19.978  34.485  49.535  1.00  0.00     0.172 C 
BRANCH  29  30
HETATM   30  O5  UNL     1     -18.838  35.041  48.943  1.00  0.00    -0.391 OA
ATOM     31  H5  UNL     1     -18.512  35.684  49.563  1.00  0.00     0.210 HD
ENDBRANCH  29  30
BRANCH  29  32
HETATM   32  C11 UNL     1     -20.268  35.133  50.875  1.00  0.00     0.198 C 
BRANCH  32  33
HETATM   33  O6  UNL     1     -20.643  34.086  51.736  1.00  0.00    -0.398 OA
ATOM     34  H6  UNL     1     -19.885  33.913  52.281  1.00  0.00     0.209 HD
ENDBRANCH  32  33
ENDBRANCH  29  32
ENDBRANCH  26  29
ENDBRANCH  25  26
ENDBRANCH   7  25
TORSDOF 11
ENDMDL
