MODEL 1
REMARK VINA RESULT: -7.620358396      0.000      0.000
REMARK  5 active torsions:
REMARK  status: ('A' for Active; 'I' for Inactive)
REMARK    1  A    between atoms: N1_1  and  C1_4 
REMARK    2  A    between atoms: N3_9  and  C3_10 
REMARK    3  A    between atoms: C4_12  and  N4_13 
REMARK    4  A    between atoms: N4_13  and  N5_14 
REMARK    5  A    between atoms: N5_14  and  C5_16 
ROOT
HETATM    1  C1  UNL     1      -9.562 -29.371 -26.850  1.00  0.00     0.683 A 
HETATM    2  N2  UNL     1      -9.413 -29.581 -28.170  1.00  0.00    -0.141 N 
ATOM      3  H2  UNL     1      -8.476 -29.736 -28.544  1.00  0.00     0.189 HD
HETATM    4  C2  UNL     1     -10.458 -29.593 -29.010  1.00  0.00     0.350 A 
HETATM    5  O1  UNL     1     -10.283 -29.797 -30.255  1.00  0.00    -0.245 OA
HETATM    6  N3  UNL     1     -11.715 -29.394 -28.565  1.00  0.00    -0.196 N 
HETATM    7  C4  UNL     1     -11.903 -29.178 -27.239  1.00  0.00     0.308 A 
HETATM    8  N6  UNL     1     -10.789 -29.173 -26.397  1.00  0.00    -0.147 N 
ATOM      9  H6  UNL     1     -10.925 -29.010 -25.399  1.00  0.00     0.188 HD
ENDROOT
BRANCH   7  10
HETATM   10  N4  UNL     1     -12.993 -28.974 -26.774  1.00  0.00    -0.286 NA
BRANCH  10  11
HETATM   11  N5  UNL     1     -14.155 -28.742 -26.271  1.00  0.00    -0.233 N 
ATOM     12  H5  UNL     1     -14.804 -29.526 -26.205  1.00  0.00     0.202 HD
BRANCH  11  13
HETATM   13  C5  UNL     1     -14.617 -27.446 -25.786  1.00  0.00     0.060 A 
HETATM   14  C6  UNL     1     -15.926 -27.204 -25.514  1.00  0.00     0.032 A 
HETATM   15  C7  UNL     1     -16.267 -25.924 -25.092  1.00  0.00     0.002 A 
HETATM   16  C8  UNL     1     -15.330 -24.931 -24.949  1.00  0.00     0.000 A 
HETATM   17  C9  UNL     1     -14.011 -25.180 -25.223  1.00  0.00     0.002 A 
HETATM   18  C10 UNL     1     -13.655 -26.452 -25.646  1.00  0.00     0.032 A 
ENDBRANCH  11  13
ENDBRANCH  10  11
ENDBRANCH   7  10
BRANCH   6  19
HETATM   19  C3  UNL     1     -12.798 -29.422 -29.475  1.00  0.00     0.367 C 
HETATM   20  O2  UNL     1     -13.436 -30.396 -29.871  1.00  0.00    -0.283 OA
ENDBRANCH   6  19
BRANCH   1  21
HETATM   21  N1  UNL     1      -8.519 -29.365 -26.078  1.00  0.00    -0.234 N 
ATOM     22  H12 UNL     1      -7.651 -28.891 -26.328  1.00  0.00     0.174 HD
ATOM     23  H11 UNL     1      -8.550 -29.852 -25.183  1.00  0.00     0.174 HD
ENDBRANCH   1  21
TORSDOF 5
ENDMDL
MODEL 2
REMARK VINA RESULT: -7.614761484      1.855      2.286
REMARK  5 active torsions:
REMARK  status: ('A' for Active; 'I' for Inactive)
REMARK    1  A    between atoms: N1_1  and  C1_4 
REMARK    2  A    between atoms: N3_9  and  C3_10 
REMARK    3  A    between atoms: C4_12  and  N4_13 
REMARK    4  A    between atoms: N4_13  and  N5_14 
REMARK    5  A    between atoms: N5_14  and  C5_16 
ROOT
HETATM    1  C1  UNL     1      -9.559 -29.462 -26.775  1.00  0.00     0.683 A 
HETATM    2  N2  UNL     1      -9.398 -29.240 -28.092  1.00  0.00    -0.141 N 
ATOM      3  H2  UNL     1      -8.476 -28.975 -28.440  1.00  0.00     0.189 HD
HETATM    4  C2  UNL     1     -10.412 -29.356 -28.960  1.00  0.00     0.350 A 
HETATM    5  O1  UNL     1     -10.227 -29.141 -30.202  1.00  0.00    -0.245 OA
HETATM    6  N3  UNL     1     -11.648 -29.703 -28.549  1.00  0.00    -0.196 N 
HETATM    7  C4  UNL     1     -11.848 -29.933 -27.227  1.00  0.00     0.308 A 
HETATM    8  N6  UNL     1     -10.765 -29.802 -26.354  1.00  0.00    -0.147 N 
ATOM      9  H6  UNL     1     -10.910 -29.974 -25.359  1.00  0.00     0.188 HD
ENDROOT
BRANCH   7  10
HETATM   10  N4  UNL     1     -12.928 -30.227 -26.786  1.00  0.00    -0.286 NA
BRANCH  10  11
HETATM   11  N5  UNL     1     -14.076 -30.544 -26.300  1.00  0.00    -0.233 N 
ATOM     12  H5  UNL     1     -14.149 -31.435 -25.807  1.00  0.00     0.202 HD
BRANCH  11  13
HETATM   13  C5  UNL     1     -15.284 -29.732 -26.399  1.00  0.00     0.060 A 
HETATM   14  C6  UNL     1     -15.743 -28.994 -25.354  1.00  0.00     0.032 A 
HETATM   15  C7  UNL     1     -16.922 -28.283 -25.540  1.00  0.00     0.002 A 
HETATM   16  C8  UNL     1     -17.609 -28.312 -26.729  1.00  0.00     0.000 A 
HETATM   17  C9  UNL     1     -17.142 -29.056 -27.780  1.00  0.00     0.002 A 
HETATM   18  C10 UNL     1     -15.966 -29.772 -27.609  1.00  0.00     0.032 A 
ENDBRANCH  11  13
ENDBRANCH  10  11
ENDBRANCH   7  10
BRANCH   6  19
HETATM   19  C3  UNL     1     -12.696 -29.826 -29.492  1.00  0.00     0.367 C 
HETATM   20  O2  UNL     1     -13.003 -30.807 -30.168  1.00  0.00    -0.283 OA
ENDBRANCH   6  19
BRANCH   1  21
HETATM   21  N1  UNL     1      -8.547 -29.333 -25.973  1.00  0.00    -0.234 N 
ATOM     22  H12 UNL     1      -8.230 -28.428 -25.626  1.00  0.00     0.174 HD
ATOM     23  H11 UNL     1      -8.033 -30.161 -25.670  1.00  0.00     0.174 HD
ENDBRANCH   1  21
TORSDOF 5
ENDMDL
MODEL 3
REMARK VINA RESULT: -7.581705581      0.110      1.130
REMARK  5 active torsions:
REMARK  status: ('A' for Active; 'I' for Inactive)
REMARK    1  A    between atoms: N1_1  and  C1_4 
REMARK    2  A    between atoms: N3_9  and  C3_10 
REMARK    3  A    between atoms: C4_12  and  N4_13 
REMARK    4  A    between atoms: N4_13  and  N5_14 
REMARK    5  A    between atoms: N5_14  and  C5_16 
ROOT
HETATM    1  C1  UNL     1      -9.545 -29.366 -26.849  1.00  0.00     0.683 A 
HETATM    2  N2  UNL     1      -9.398 -29.589 -28.168  1.00  0.00    -0.141 N 
ATOM      3  H2  UNL     1      -8.464 -29.759 -28.540  1.00  0.00     0.189 HD
HETATM    4  C2  UNL     1     -10.443 -29.593 -29.007  1.00  0.00     0.350 A 
HETATM    5  O1  UNL     1     -10.271 -29.809 -30.251  1.00  0.00    -0.245 OA
HETATM    6  N3  UNL     1     -11.697 -29.373 -28.565  1.00  0.00    -0.196 N 
HETATM    7  C4  UNL     1     -11.884 -29.145 -27.241  1.00  0.00     0.308 A 
HETATM    8  N6  UNL     1     -10.769 -29.148 -26.398  1.00  0.00    -0.147 N 
ATOM      9  H6  UNL     1     -10.903 -28.976 -25.401  1.00  0.00     0.188 HD
ENDROOT
BRANCH   7  10
HETATM   10  N4  UNL     1     -12.971 -28.922 -26.777  1.00  0.00    -0.286 NA
BRANCH  10  11
HETATM   11  N5  UNL     1     -14.129 -28.670 -26.277  1.00  0.00    -0.233 N 
ATOM     12  H5  UNL     1     -14.788 -29.446 -26.202  1.00  0.00     0.202 HD
BRANCH  11  13
HETATM   13  C5  UNL     1     -14.576 -27.363 -25.807  1.00  0.00     0.060 A 
HETATM   14  C6  UNL     1     -13.712 -26.333 -25.614  1.00  0.00     0.032 A 
HETATM   15  C7  UNL     1     -14.234 -25.140 -25.130  1.00  0.00     0.002 A 
HETATM   16  C8  UNL     1     -15.570 -24.990 -24.853  1.00  0.00     0.000 A 
HETATM   17  C9  UNL     1     -16.438 -26.031 -25.051  1.00  0.00     0.002 A 
HETATM   18  C10 UNL     1     -15.933 -27.229 -25.533  1.00  0.00     0.032 A 
ENDBRANCH  11  13
ENDBRANCH  10  11
ENDBRANCH   7  10
BRANCH   6  19
HETATM   19  C3  UNL     1     -12.780 -29.394 -29.475  1.00  0.00     0.367 C 
HETATM   20  O2  UNL     1     -13.444 -30.359 -29.849  1.00  0.00    -0.283 OA
ENDBRANCH   6  19
BRANCH   1  21
HETATM   21  N1  UNL     1      -8.503 -29.368 -26.077  1.00  0.00    -0.234 N 
ATOM     22  H12 UNL     1      -7.549 -29.364 -26.438  1.00  0.00     0.174 HD
ATOM     23  H11 UNL     1      -8.624 -29.379 -25.064  1.00  0.00     0.174 HD
ENDBRANCH   1  21
TORSDOF 5
ENDMDL
MODEL 4
REMARK VINA RESULT: -7.521620663      2.541      3.447
REMARK  5 active torsions:
REMARK  status: ('A' for Active; 'I' for Inactive)
REMARK    1  A    between atoms: N1_1  and  C1_4 
REMARK    2  A    between atoms: N3_9  and  C3_10 
REMARK    3  A    between atoms: C4_12  and  N4_13 
REMARK    4  A    between atoms: N4_13  and  N5_14 
REMARK    5  A    between atoms: N5_14  and  C5_16 
ROOT
HETATM    1  C1  UNL     1     -10.164 -28.900 -26.904  1.00  0.00     0.683 A 
HETATM    2  N2  UNL     1      -9.717 -29.280 -28.115  1.00  0.00    -0.141 N 
ATOM      3  H2  UNL     1      -8.713 -29.387 -28.260  1.00  0.00     0.189 HD
HETATM    4  C2  UNL     1     -10.552 -29.523 -29.135  1.00  0.00     0.350 A 
HETATM    5  O1  UNL     1     -10.097 -29.884 -30.269  1.00  0.00    -0.245 OA
HETATM    6  N3  UNL     1     -11.886 -29.396 -28.993  1.00  0.00    -0.196 N 
HETATM    7  C4  UNL     1     -12.373 -29.013 -27.786  1.00  0.00     0.308 A 
HETATM    8  N6  UNL     1     -11.471 -28.770 -26.747  1.00  0.00    -0.147 N 
ATOM      9  H6  UNL     1     -11.832 -28.481 -25.838  1.00  0.00     0.188 HD
ENDROOT
BRANCH   7  10
HETATM   10  N4  UNL     1     -13.550 -28.861 -27.591  1.00  0.00    -0.286 NA
BRANCH  10  11
HETATM   11  N5  UNL     1     -14.808 -28.683 -27.385  1.00  0.00    -0.233 N 
ATOM     12  H5  UNL     1     -15.087 -27.836 -26.887  1.00  0.00     0.202 HD
BRANCH  11  13
HETATM   13  C5  UNL     1     -15.866 -29.595 -27.805  1.00  0.00     0.060 A 
HETATM   14  C6  UNL     1     -16.194 -29.763 -29.112  1.00  0.00     0.032 A 
HETATM   15  C7  UNL     1     -17.241 -30.629 -29.404  1.00  0.00     0.002 A 
HETATM   16  C8  UNL     1     -17.928 -31.298 -28.420  1.00  0.00     0.000 A 
HETATM   17  C9  UNL     1     -17.592 -31.126 -27.103  1.00  0.00     0.002 A 
HETATM   18  C10 UNL     1     -16.550 -30.265 -26.796  1.00  0.00     0.032 A 
ENDBRANCH  11  13
ENDBRANCH  10  11
ENDBRANCH   7  10
BRANCH   6  19
HETATM   19  C3  UNL     1     -12.741 -29.669 -30.087  1.00  0.00     0.367 C 
HETATM   20  O2  UNL     1     -13.194 -30.753 -30.449  1.00  0.00    -0.283 OA
ENDBRANCH   6  19
BRANCH   1  21
HETATM   21  N1  UNL     1      -9.317 -28.673 -25.948  1.00  0.00    -0.234 N 
ATOM     22  H12 UNL     1      -9.309 -27.804 -25.414  1.00  0.00     0.174 HD
ATOM     23  H11 UNL     1      -8.621 -29.379 -25.711  1.00  0.00     0.174 HD
ENDBRANCH   1  21
TORSDOF 5
ENDMDL
MODEL 5
REMARK VINA RESULT: -7.490406507      1.051      1.440
REMARK  5 active torsions:
REMARK  status: ('A' for Active; 'I' for Inactive)
REMARK    1  A    between atoms: N1_1  and  C1_4 
REMARK    2  A    between atoms: N3_9  and  C3_10 
REMARK    3  A    between atoms: C4_12  and  N4_13 
REMARK    4  A    between atoms: N4_13  and  N5_14 
REMARK    5  A    between atoms: N5_14  and  C5_16 
ROOT
HETATM    1  C1  UNL     1      -9.861 -29.288 -26.774  1.00  0.00     0.683 A 
HETATM    2  N2  UNL     1      -9.588 -29.250 -28.091  1.00  0.00    -0.141 N 
ATOM      3  H2  UNL     1      -8.631 -29.070 -28.393  1.00  0.00     0.189 HD
HETATM    4  C2  UNL     1     -10.537 -29.443 -29.018  1.00  0.00     0.350 A 
HETATM    5  O1  UNL     1     -10.246 -29.403 -30.257  1.00  0.00    -0.245 OA
HETATM    6  N3  UNL     1     -11.817 -29.685 -28.669  1.00  0.00    -0.196 N 
HETATM    7  C4  UNL     1     -12.129 -29.728 -27.349  1.00  0.00     0.308 A 
HETATM    8  N6  UNL     1     -11.111 -29.523 -26.414  1.00  0.00    -0.147 N 
ATOM      9  H6  UNL     1     -11.341 -29.554 -25.421  1.00  0.00     0.188 HD
ENDROOT
BRANCH   7  10
HETATM   10  N4  UNL     1     -13.252 -29.920 -26.964  1.00  0.00    -0.286 NA
BRANCH  10  11
HETATM   11  N5  UNL     1     -14.453 -30.112 -26.544  1.00  0.00    -0.233 N 
ATOM     12  H5  UNL     1     -14.866 -31.031 -26.705  1.00  0.00     0.202 HD
BRANCH  11  13
HETATM   13  C5  UNL     1     -15.271 -29.120 -25.855  1.00  0.00     0.060 A 
HETATM   14  C6  UNL     1     -16.320 -29.473 -25.067  1.00  0.00     0.032 A 
HETATM   15  C7  UNL     1     -17.058 -28.450 -24.485  1.00  0.00     0.002 A 
HETATM   16  C8  UNL     1     -16.751 -27.127 -24.686  1.00  0.00     0.000 A 
HETATM   17  C9  UNL     1     -15.692 -26.775 -25.481  1.00  0.00     0.002 A 
HETATM   18  C10 UNL     1     -14.946 -27.785 -26.069  1.00  0.00     0.032 A 
ENDBRANCH  11  13
ENDBRANCH  10  11
ENDBRANCH   7  10
BRANCH   6  19
HETATM   19  C3  UNL     1     -12.794 -29.893 -29.671  1.00  0.00     0.367 C 
HETATM   20  O2  UNL     1     -13.069 -30.936 -30.262  1.00  0.00    -0.283 OA
ENDBRANCH   6  19
BRANCH   1  21
HETATM   21  N1  UNL     1      -8.909 -29.091 -25.914  1.00  0.00    -0.234 N 
ATOM     22  H12 UNL     1      -8.080 -29.684 -25.865  1.00  0.00     0.174 HD
ATOM     23  H11 UNL     1      -8.978 -28.319 -25.251  1.00  0.00     0.174 HD
ENDBRANCH   1  21
TORSDOF 5
ENDMDL
