MODEL 1
REMARK VINA RESULT: -8.866844202      0.000      0.000
REMARK  7 active torsions:
REMARK  status: ('A' for Active; 'I' for Inactive)
REMARK    1  A    between atoms: O1_2  and  C2_3 
REMARK    2  A    between atoms: C2_3  and  C3_4 
REMARK    3  A    between atoms: C2_3  and  C10_11 
REMARK    4  A    between atoms: C3_4  and  C4_5 
REMARK    5  A    between atoms: C12_13  and  O2_14 
REMARK    6  A    between atoms: C13_16  and  N1_17 
REMARK       I    between atoms: N2_19  and  C14_21 
REMARK       I    between atoms: C14_21  and  N3_23 
REMARK    7  A    between atoms: N3_23  and  O4_25 
ROOT
HETATM    1  C10 UNL     1      -0.333   8.287  24.269  1.00  0.00     0.016 A 
HETATM    2  C11 UNL     1      -0.823   9.545  24.095  1.00  0.00     0.056 A 
HETATM    3  C12 UNL     1      -1.738   9.723  23.125  1.00  0.00     0.101 A 
HETATM    4  C13 UNL     1      -2.094   8.620  22.396  1.00  0.00     0.122 A 
HETATM    5  S1  UNL     1      -1.150   7.377  23.082  1.00  0.00    -0.070 SA
ENDROOT
BRANCH   1   6
HETATM    6  C2  UNL     1       0.695   7.798  25.274  1.00  0.00     0.161 C 
BRANCH   6   7
HETATM    7  O1  UNL     1       1.306   8.906  25.779  1.00  0.00    -0.386 OA
HETATM    8  C1  UNL     1       2.707   8.789  25.769  1.00  0.00     0.202 C 
ENDBRANCH   6   7
BRANCH   6   9
HETATM    9  C3  UNL     1      -0.055   7.012  26.280  1.00  0.00     0.042 C 
BRANCH   9  10
HETATM   10  C4  UNL     1       0.462   5.681  26.662  1.00  0.00    -0.012 C 
HETATM   11  C5  UNL     1       1.267   5.667  27.942  1.00  0.00     0.005 C 
HETATM   12  C6  UNL     1       2.056   4.350  27.909  1.00  0.00     0.000 C 
HETATM   13  C7  UNL     1       1.020   3.256  28.032  1.00  0.00     0.000 C 
HETATM   14  C8  UNL     1       0.034   3.225  26.927  1.00  0.00     0.000 C 
HETATM   15  C9  UNL     1      -0.493   4.569  26.510  1.00  0.00     0.005 C 
ENDBRANCH   9  10
ENDBRANCH   6   9
ENDBRANCH   1   6
BRANCH   3  16
HETATM   16  O2  UNL     1      -2.320  10.986  22.849  1.00  0.00    -0.358 OA
ATOM     17  H2  UNL     1      -3.064  11.089  22.268  1.00  0.00     0.217 HD
ENDBRANCH   3  16
BRANCH   4  18
HETATM   18  N1  UNL     1      -3.049   8.557  21.308  1.00  0.00    -0.287 N 
HETATM   19  N2  UNL     1      -2.855   9.426  20.391  1.00  0.00    -0.249 N 
HETATM   20  C14 UNL     1      -3.747   9.447  19.271  1.00  0.00     0.358 C 
ATOM     21  H2  UNL     1      -2.084  10.090  20.456  1.00  0.00     0.192 HD
HETATM   22  O3  UNL     1      -3.967  10.507  18.627  1.00  0.00    -0.243 OA
HETATM   23  N3  UNL     1      -4.381   8.233  18.901  1.00  0.00    -0.218 N 
ATOM     24  H3  UNL     1      -4.203   7.373  19.421  1.00  0.00     0.199 HD
ATOM     25  H1  UNL     1      -3.810   7.879  21.277  1.00  0.00     0.188 HD
BRANCH  23  26
HETATM   26  O4  UNL     1      -5.232   8.237  17.836  1.00  0.00    -0.286 OA
ATOM     27  H4  UNL     1      -6.004   8.789  17.872  1.00  0.00     0.244 HD
ENDBRANCH  23  26
ENDBRANCH   4  18
TORSDOF 7
ENDMDL
MODEL 2
REMARK VINA RESULT: -8.650702902      1.758      2.044
REMARK  7 active torsions:
REMARK  status: ('A' for Active; 'I' for Inactive)
REMARK    1  A    between atoms: O1_2  and  C2_3 
REMARK    2  A    between atoms: C2_3  and  C3_4 
REMARK    3  A    between atoms: C2_3  and  C10_11 
REMARK    4  A    between atoms: C3_4  and  C4_5 
REMARK    5  A    between atoms: C12_13  and  O2_14 
REMARK    6  A    between atoms: C13_16  and  N1_17 
REMARK       I    between atoms: N2_19  and  C14_21 
REMARK       I    between atoms: C14_21  and  N3_23 
REMARK    7  A    between atoms: N3_23  and  O4_25 
ROOT
HETATM    1  C10 UNL     1      -1.426   8.479  23.119  1.00  0.00     0.016 A 
HETATM    2  C11 UNL     1      -0.885   9.010  21.988  1.00  0.00     0.056 A 
HETATM    3  C12 UNL     1      -1.731   9.337  20.994  1.00  0.00     0.101 A 
HETATM    4  C13 UNL     1      -3.063   9.102  21.209  1.00  0.00     0.122 A 
HETATM    5  S1  UNL     1      -3.095   8.441  22.780  1.00  0.00    -0.070 SA
ENDROOT
BRANCH   1   6
HETATM    6  C2  UNL     1      -0.722   8.025  24.385  1.00  0.00     0.161 C 
BRANCH   6   7
HETATM    7  O1  UNL     1      -0.485   9.144  25.125  1.00  0.00    -0.386 OA
HETATM    8  C1  UNL     1       0.884   9.454  25.193  1.00  0.00     0.202 C 
ENDBRANCH   6   7
BRANCH   6   9
HETATM    9  C3  UNL     1      -1.631   7.053  25.036  1.00  0.00     0.042 C 
BRANCH   9  10
HETATM   10  C4  UNL     1      -1.072   5.767  25.500  1.00  0.00    -0.012 C 
HETATM   11  C5  UNL     1      -0.348   5.842  26.826  1.00  0.00     0.005 C 
HETATM   12  C6  UNL     1       0.508   4.568  26.893  1.00  0.00     0.000 C 
HETATM   13  C7  UNL     1      -0.477   3.426  26.996  1.00  0.00     0.000 C 
HETATM   14  C8  UNL     1      -1.390   3.303  25.835  1.00  0.00     0.000 C 
HETATM   15  C9  UNL     1      -1.957   4.601  25.335  1.00  0.00     0.005 C 
ENDBRANCH   9  10
ENDBRANCH   6   9
ENDBRANCH   1   6
BRANCH   3  16
HETATM   16  O2  UNL     1      -1.287   9.897  19.769  1.00  0.00    -0.358 OA
ATOM     17  H2  UNL     1      -1.874  10.339  19.168  1.00  0.00     0.217 HD
ENDBRANCH   3  16
BRANCH   4  18
HETATM   18  N1  UNL     1      -4.158   9.366  20.298  1.00  0.00    -0.287 N 
HETATM   19  N2  UNL     1      -4.021  10.434  19.609  1.00  0.00    -0.249 N 
HETATM   20  C14 UNL     1      -5.051  10.783  18.678  1.00  0.00     0.358 C 
ATOM     21  H2  UNL     1      -3.196  11.024  19.720  1.00  0.00     0.192 HD
HETATM   22  O3  UNL     1      -5.269  11.984  18.360  1.00  0.00    -0.243 OA
HETATM   23  N3  UNL     1      -5.826   9.736  18.117  1.00  0.00    -0.218 N 
ATOM     24  H3  UNL     1      -5.650   8.764  18.372  1.00  0.00     0.199 HD
ATOM     25  H1  UNL     1      -4.969   8.754  20.215  1.00  0.00     0.188 HD
BRANCH  23  26
HETATM   26  O4  UNL     1      -6.811  10.054  17.229  1.00  0.00    -0.286 OA
ATOM     27  H4  UNL     1      -7.486   9.412  17.048  1.00  0.00     0.244 HD
ENDBRANCH  23  26
ENDBRANCH   4  18
TORSDOF 7
ENDMDL
MODEL 3
REMARK VINA RESULT: -8.473485243      2.028      2.219
REMARK  7 active torsions:
REMARK  status: ('A' for Active; 'I' for Inactive)
REMARK    1  A    between atoms: O1_2  and  C2_3 
REMARK    2  A    between atoms: C2_3  and  C3_4 
REMARK    3  A    between atoms: C2_3  and  C10_11 
REMARK    4  A    between atoms: C3_4  and  C4_5 
REMARK    5  A    between atoms: C12_13  and  O2_14 
REMARK    6  A    between atoms: C13_16  and  N1_17 
REMARK       I    between atoms: N2_19  and  C14_21 
REMARK       I    between atoms: C14_21  and  N3_23 
REMARK    7  A    between atoms: N3_23  and  O4_25 
ROOT
HETATM    1  C10 UNL     1      -0.969   8.657  23.813  1.00  0.00     0.016 A 
HETATM    2  C11 UNL     1      -2.234   8.190  23.630  1.00  0.00     0.056 A 
HETATM    3  C12 UNL     1      -3.018   8.854  22.763  1.00  0.00     0.101 A 
HETATM    4  C13 UNL     1      -2.472   9.945  22.141  1.00  0.00     0.122 A 
HETATM    5  S1  UNL     1      -0.893  10.009  22.779  1.00  0.00    -0.070 SA
ENDROOT
BRANCH   1   6
HETATM    6  C2  UNL     1       0.123   8.114  24.718  1.00  0.00     0.161 C 
BRANCH   6   7
HETATM    7  O1  UNL     1       0.878   9.180  25.105  1.00  0.00    -0.386 OA
HETATM    8  C1  UNL     1       2.176   8.800  25.485  1.00  0.00     0.202 C 
ENDBRANCH   6   7
BRANCH   6   9
HETATM    9  C3  UNL     1      -0.570   7.429  25.833  1.00  0.00     0.042 C 
BRANCH   9  10
HETATM   10  C4  UNL     1      -0.351   5.979  26.015  1.00  0.00    -0.012 C 
HETATM   11  C5  UNL     1       0.305   5.605  27.326  1.00  0.00     0.005 C 
HETATM   12  C6  UNL     1       0.836   4.179  27.121  1.00  0.00     0.000 C 
HETATM   13  C7  UNL     1      -0.393   3.309  26.982  1.00  0.00     0.000 C 
HETATM   14  C8  UNL     1      -1.251   3.648  25.823  1.00  0.00     0.000 C 
HETATM   15  C9  UNL     1      -1.475   5.118  25.609  1.00  0.00     0.005 C 
ENDBRANCH   9  10
ENDBRANCH   6   9
ENDBRANCH   1   6
BRANCH   3  16
HETATM   16  O2  UNL     1      -4.354   8.463  22.489  1.00  0.00    -0.358 OA
ATOM     17  H2  UNL     1      -5.100   9.008  22.708  1.00  0.00     0.217 HD
ENDBRANCH   3  16
BRANCH   4  18
HETATM   18  N1  UNL     1      -3.111  10.816  21.175  1.00  0.00    -0.287 N 
HETATM   19  N2  UNL     1      -2.297  11.421  20.396  1.00  0.00    -0.249 N 
HETATM   20  C14 UNL     1      -2.831  12.305  19.405  1.00  0.00     0.358 C 
ATOM     21  H2  UNL     1      -1.291  11.277  20.480  1.00  0.00     0.192 HD
HETATM   22  O3  UNL     1      -2.165  13.285  18.973  1.00  0.00    -0.243 OA
HETATM   23  N3  UNL     1      -4.137  12.049  18.916  1.00  0.00    -0.218 N 
ATOM     24  H3  UNL     1      -4.677  11.256  19.264  1.00  0.00     0.199 HD
ATOM     25  H1  UNL     1      -4.122  10.936  21.120  1.00  0.00     0.188 HD
BRANCH  23  26
HETATM   26  O4  UNL     1      -4.658  12.883  17.971  1.00  0.00    -0.286 OA
ATOM     27  H4  UNL     1      -4.985  13.732  18.243  1.00  0.00     0.244 HD
ENDBRANCH  23  26
ENDBRANCH   4  18
TORSDOF 7
ENDMDL
MODEL 4
REMARK VINA RESULT: -8.382735863      1.354      1.621
REMARK  7 active torsions:
REMARK  status: ('A' for Active; 'I' for Inactive)
REMARK    1  A    between atoms: O1_2  and  C2_3 
REMARK    2  A    between atoms: C2_3  and  C3_4 
REMARK    3  A    between atoms: C2_3  and  C10_11 
REMARK    4  A    between atoms: C3_4  and  C4_5 
REMARK    5  A    between atoms: C12_13  and  O2_14 
REMARK    6  A    between atoms: C13_16  and  N1_17 
REMARK       I    between atoms: N2_19  and  C14_21 
REMARK       I    between atoms: C14_21  and  N3_23 
REMARK    7  A    between atoms: N3_23  and  O4_25 
ROOT
HETATM    1  C10 UNL     1      -1.089   8.036  23.903  1.00  0.00     0.016 A 
HETATM    2  C11 UNL     1      -2.439   7.890  23.994  1.00  0.00     0.056 A 
HETATM    3  C12 UNL     1      -3.185   8.420  23.008  1.00  0.00     0.101 A 
HETATM    4  C13 UNL     1      -2.517   9.063  22.000  1.00  0.00     0.122 A 
HETATM    5  S1  UNL     1      -0.881   8.907  22.454  1.00  0.00    -0.070 SA
ENDROOT
BRANCH   1   6
HETATM    6  C2  UNL     1      -0.014   7.547  24.858  1.00  0.00     0.161 C 
BRANCH   6   7
HETATM    7  O1  UNL     1       0.550   8.655  25.415  1.00  0.00    -0.386 OA
HETATM    8  C1  UNL     1       1.954   8.600  25.398  1.00  0.00     0.202 C 
ENDBRANCH   6   7
BRANCH   6   9
HETATM    9  C3  UNL     1      -0.699   6.665  25.831  1.00  0.00     0.042 C 
BRANCH   9  10
HETATM   10  C4  UNL     1       0.042   5.510  26.379  1.00  0.00    -0.012 C 
HETATM   11  C5  UNL     1       0.814   5.806  27.646  1.00  0.00     0.005 C 
HETATM   12  C6  UNL     1       1.828   4.661  27.779  1.00  0.00     0.000 C 
HETATM   13  C7  UNL     1       1.004   3.422  28.047  1.00  0.00     0.000 C 
HETATM   14  C8  UNL     1       0.061   3.071  26.960  1.00  0.00     0.000 C 
HETATM   15  C9  UNL     1      -0.693   4.233  26.377  1.00  0.00     0.005 C 
ENDBRANCH   9  10
ENDBRANCH   6   9
ENDBRANCH   1   6
BRANCH   3  16
HETATM   16  O2  UNL     1      -4.601   8.332  22.992  1.00  0.00    -0.358 OA
ATOM     17  H2  UNL     1      -5.159   9.098  22.938  1.00  0.00     0.217 HD
ENDBRANCH   3  16
BRANCH   4  18
HETATM   18  N1  UNL     1      -3.093   9.709  20.838  1.00  0.00    -0.287 N 
HETATM   19  N2  UNL     1      -4.106   9.101  20.349  1.00  0.00    -0.249 N 
HETATM   20  C14 UNL     1      -4.748   9.660  19.198  1.00  0.00     0.358 C 
ATOM     21  H2  UNL     1      -4.448   8.236  20.769  1.00  0.00     0.192 HD
HETATM   22  O3  UNL     1      -5.365   8.934  18.373  1.00  0.00    -0.243 OA
HETATM   23  N3  UNL     1      -4.671  11.064  19.008  1.00  0.00    -0.218 N 
ATOM     24  H3  UNL     1      -4.172  11.653  19.675  1.00  0.00     0.199 HD
ATOM     25  H1  UNL     1      -2.723  10.574  20.445  1.00  0.00     0.188 HD
BRANCH  23  26
HETATM   26  O4  UNL     1      -5.278  11.610  17.916  1.00  0.00    -0.286 OA
ATOM     27  H4  UNL     1      -5.263  11.129  17.098  1.00  0.00     0.244 HD
ENDBRANCH  23  26
ENDBRANCH   4  18
TORSDOF 7
ENDMDL
MODEL 5
REMARK VINA RESULT: -8.338390237      1.731      1.928
REMARK  7 active torsions:
REMARK  status: ('A' for Active; 'I' for Inactive)
REMARK    1  A    between atoms: O1_2  and  C2_3 
REMARK    2  A    between atoms: C2_3  and  C3_4 
REMARK    3  A    between atoms: C2_3  and  C10_11 
REMARK    4  A    between atoms: C3_4  and  C4_5 
REMARK    5  A    between atoms: C12_13  and  O2_14 
REMARK    6  A    between atoms: C13_16  and  N1_17 
REMARK       I    between atoms: N2_19  and  C14_21 
REMARK       I    between atoms: C14_21  and  N3_23 
REMARK    7  A    between atoms: N3_23  and  O4_25 
ROOT
HETATM    1  C10 UNL     1      -0.300   8.963  24.015  1.00  0.00     0.016 A 
HETATM    2  C11 UNL     1       0.021  10.273  23.830  1.00  0.00     0.056 A 
HETATM    3  C12 UNL     1      -0.720  10.972  22.950  1.00  0.00     0.101 A 
HETATM    4  C13 UNL     1      -1.731  10.300  22.318  1.00  0.00     0.122 A 
HETATM    5  S1  UNL     1      -1.621   8.727  22.965  1.00  0.00    -0.070 SA
ENDROOT
BRANCH   1   6
HETATM    6  C2  UNL     1       0.354   7.946  24.933  1.00  0.00     0.161 C 
BRANCH   6   7
HETATM    7  O1  UNL     1       1.044   8.652  25.872  1.00  0.00    -0.386 OA
HETATM    8  C1  UNL     1       2.426   8.403  25.811  1.00  0.00     0.202 C 
ENDBRANCH   6   7
BRANCH   6   9
HETATM    9  C3  UNL     1      -0.747   7.124  25.486  1.00  0.00     0.042 C 
BRANCH   9  10
HETATM   10  C4  UNL     1      -0.472   5.710  25.818  1.00  0.00    -0.012 C 
HETATM   11  C5  UNL     1       0.163   5.496  27.173  1.00  0.00     0.005 C 
HETATM   12  C6  UNL     1       0.757   4.081  27.124  1.00  0.00     0.000 C 
HETATM   13  C7  UNL     1      -0.430   3.149  27.045  1.00  0.00     0.000 C 
HETATM   14  C8  UNL     1      -1.270   3.333  25.840  1.00  0.00     0.000 C 
HETATM   15  C9  UNL     1      -1.549   4.764  25.475  1.00  0.00     0.005 C 
ENDBRANCH   9  10
ENDBRANCH   6   9
ENDBRANCH   1   6
BRANCH   3  16
HETATM   16  O2  UNL     1      -0.482  12.342  22.673  1.00  0.00    -0.358 OA
ATOM     17  H2  UNL     1      -1.182  12.950  22.468  1.00  0.00     0.217 HD
ENDBRANCH   3  16
BRANCH   4  18
HETATM   18  N1  UNL     1      -2.658  10.829  21.337  1.00  0.00    -0.287 N 
HETATM   19  N2  UNL     1      -2.107  11.533  20.423  1.00  0.00    -0.249 N 
HETATM   20  C14 UNL     1      -2.938  12.102  19.406  1.00  0.00     0.358 C 
ATOM     21  H2  UNL     1      -1.099  11.686  20.419  1.00  0.00     0.192 HD
HETATM   22  O3  UNL     1      -2.614  13.165  18.811  1.00  0.00    -0.243 OA
HETATM   23  N3  UNL     1      -4.147  11.433  19.080  1.00  0.00    -0.218 N 
ATOM     24  H3  UNL     1      -4.411  10.572  19.560  1.00  0.00     0.199 HD
ATOM     25  H1  UNL     1      -3.662  10.656  21.374  1.00  0.00     0.188 HD
BRANCH  23  26
HETATM   26  O4  UNL     1      -4.948  11.963  18.113  1.00  0.00    -0.286 OA
ATOM     27  H4  UNL     1      -4.614  12.023  17.226  1.00  0.00     0.244 HD
ENDBRANCH  23  26
ENDBRANCH   4  18
TORSDOF 7
ENDMDL
