MODEL 1
REMARK VINA RESULT: -7.626665820      0.000      0.000
REMARK  5 active torsions:
REMARK  status: ('A' for Active; 'I' for Inactive)
REMARK    1  A    between atoms: C2_2  and  C3_3 
REMARK    2  A    between atoms: C3_3  and  N1_4 
REMARK    3  A    between atoms: C4_5  and  S1_6 
REMARK    4  A    between atoms: S1_6  and  C5_7 
REMARK    5  A    between atoms: C8_14  and  O1_15 
ROOT
HETATM    1  N1  UNL     1      13.260  -8.691  11.757  1.00  0.00    -0.313 N 
HETATM    2  C4  UNL     1      13.557  -7.899  10.677  1.00  0.00     0.154 A 
HETATM    3  N4  UNL     1      12.651  -7.787   9.689  1.00  0.00    -0.345 N 
ATOM      4  H4  UNL     1      12.887  -7.194   8.892  1.00  0.00     0.167 HD
HETATM    5  C9  UNL     1      11.466  -8.397   9.680  1.00  0.00     0.116 A 
HETATM    6  C10 UNL     1      11.145  -9.194  10.748  1.00  0.00     0.098 A 
HETATM    7  C11 UNL     1       9.884  -9.866  10.780  1.00  0.00     0.104 C 
HETATM    8  N5  UNL     1       8.854 -10.425  10.803  1.00  0.00    -0.191 NA
HETATM    9  C12 UNL     1      12.085  -9.309  11.771  1.00  0.00     0.127 A 
HETATM   10  S3  UNL     1      11.665 -10.267  13.026  1.00  0.00    -0.059 SA
ENDROOT
BRANCH   1  11
HETATM   11  C3  UNL     1      14.198  -8.840  12.818  1.00  0.00     0.158 C 
BRANCH  11  12
HETATM   12  C2  UNL     1      14.033  -7.881  13.929  1.00  0.00    -0.017 C 
HETATM   13  C1  UNL     1      14.900  -7.860  14.919  1.00  0.00     0.008 C 
ENDBRANCH  11  12
ENDBRANCH   1  11
BRANCH   2  14
HETATM   14  S1  UNL     1      15.109  -7.103  10.713  1.00  0.00    -0.032 SA
BRANCH  14  15
HETATM   15  C5  UNL     1      15.372  -5.695   9.728  1.00  0.00     0.131 A 
HETATM   16  N2  UNL     1      16.631  -5.263   9.364  1.00  0.00    -0.324 N 
HETATM   17  C6  UNL     1      16.498  -4.180   8.623  1.00  0.00     0.180 A 
ATOM     18  H2  UNL     1      17.513  -5.706   9.624  1.00  0.00     0.169 HD
HETATM   19  S2  UNL     1      17.709  -3.293   7.947  1.00  0.00    -0.040 SA
HETATM   20  N3  UNL     1      15.208  -3.853   8.463  1.00  0.00    -0.307 N 
HETATM   21  C7  UNL     1      14.639  -2.743   7.725  1.00  0.00     0.161 C 
HETATM   22  C8  UNL     1      14.516  -4.815   9.163  1.00  0.00     0.179 A 
BRANCH  22  23
HETATM   23  O1  UNL     1      13.125  -4.751   9.191  1.00  0.00    -0.344 OA
ATOM     24  H1  UNL     1      12.536  -4.009   9.123  1.00  0.00     0.219 HD
ENDBRANCH  22  23
ENDBRANCH  14  15
ENDBRANCH   2  14
TORSDOF 5
ENDMDL
MODEL 2
REMARK VINA RESULT: -7.582151574      1.390      1.458
REMARK  5 active torsions:
REMARK  status: ('A' for Active; 'I' for Inactive)
REMARK    1  A    between atoms: C2_2  and  C3_3 
REMARK    2  A    between atoms: C3_3  and  N1_4 
REMARK    3  A    between atoms: C4_5  and  S1_6 
REMARK    4  A    between atoms: S1_6  and  C5_7 
REMARK    5  A    between atoms: C8_14  and  O1_15 
ROOT
HETATM    1  N1  UNL     1      12.790  -7.784  11.926  1.00  0.00    -0.313 N 
HETATM    2  C4  UNL     1      12.598  -6.802  10.988  1.00  0.00     0.154 A 
HETATM    3  N4  UNL     1      11.700  -7.011  10.007  1.00  0.00    -0.345 N 
ATOM      4  H4  UNL     1      11.569  -6.272   9.317  1.00  0.00     0.167 HD
HETATM    5  C9  UNL     1      10.971  -8.119   9.878  1.00  0.00     0.116 A 
HETATM    6  C10 UNL     1      11.144  -9.116  10.804  1.00  0.00     0.098 A 
HETATM    7  C11 UNL     1      10.382 -10.320  10.703  1.00  0.00     0.104 C 
HETATM    8  N5  UNL     1       9.763 -11.312  10.616  1.00  0.00    -0.191 NA
HETATM    9  C12 UNL     1      12.074  -8.897  11.818  1.00  0.00     0.127 A 
HETATM   10  S3  UNL     1      12.252 -10.107  12.902  1.00  0.00    -0.059 SA
ENDROOT
BRANCH   1  11
HETATM   11  C3  UNL     1      13.737  -7.601  12.974  1.00  0.00     0.158 C 
BRANCH  11  12
HETATM   12  C2  UNL     1      15.104  -8.060  12.659  1.00  0.00    -0.017 C 
HETATM   13  C1  UNL     1      15.786  -8.761  13.540  1.00  0.00     0.008 C 
ENDBRANCH  11  12
ENDBRANCH   1  11
BRANCH   2  14
HETATM   14  S1  UNL     1      13.555  -5.357  11.181  1.00  0.00    -0.032 SA
BRANCH  14  15
HETATM   15  C5  UNL     1      14.047  -4.460   9.775  1.00  0.00     0.131 A 
HETATM   16  N2  UNL     1      15.092  -3.559   9.793  1.00  0.00    -0.324 N 
HETATM   17  C6  UNL     1      15.217  -3.048   8.583  1.00  0.00     0.180 A 
ATOM     18  H2  UNL     1      15.669  -3.328  10.602  1.00  0.00     0.169 HD
HETATM   19  S2  UNL     1      16.320  -1.928   8.095  1.00  0.00    -0.040 SA
HETATM   20  N3  UNL     1      14.307  -3.558   7.741  1.00  0.00    -0.307 N 
HETATM   21  C7  UNL     1      14.107  -3.265   6.335  1.00  0.00     0.161 C 
HETATM   22  C8  UNL     1      13.582  -4.444   8.506  1.00  0.00     0.179 A 
BRANCH  22  23
HETATM   23  O1  UNL     1      12.541  -5.149   7.909  1.00  0.00    -0.344 OA
ATOM     24  H1  UNL     1      12.000  -4.939   7.156  1.00  0.00     0.219 HD
ENDBRANCH  22  23
ENDBRANCH  14  15
ENDBRANCH   2  14
TORSDOF 5
ENDMDL
MODEL 3
REMARK VINA RESULT: -7.340333168      2.812      8.412
REMARK  5 active torsions:
REMARK  status: ('A' for Active; 'I' for Inactive)
REMARK    1  A    between atoms: C2_2  and  C3_3 
REMARK    2  A    between atoms: C3_3  and  N1_4 
REMARK    3  A    between atoms: C4_5  and  S1_6 
REMARK    4  A    between atoms: S1_6  and  C5_7 
REMARK    5  A    between atoms: C8_14  and  O1_15 
ROOT
HETATM    1  N1  UNL     1      16.008  -2.451   7.440  1.00  0.00    -0.313 N 
HETATM    2  C4  UNL     1      15.456  -2.593   8.687  1.00  0.00     0.154 A 
HETATM    3  N4  UNL     1      15.944  -1.853   9.699  1.00  0.00    -0.345 N 
ATOM      4  H4  UNL     1      15.522  -1.971  10.621  1.00  0.00     0.167 HD
HETATM    5  C9  UNL     1      16.941  -0.977   9.579  1.00  0.00     0.116 A 
HETATM    6  C10 UNL     1      17.510  -0.815   8.342  1.00  0.00     0.098 A 
HETATM    7  C11 UNL     1      18.582   0.114   8.169  1.00  0.00     0.104 C 
HETATM    8  N5  UNL     1      19.466   0.870   8.027  1.00  0.00    -0.191 NA
HETATM    9  C12 UNL     1      17.003  -1.583   7.295  1.00  0.00     0.127 A 
HETATM   10  S3  UNL     1      17.707  -1.362   5.837  1.00  0.00    -0.059 SA
ENDROOT
BRANCH   1  11
HETATM   11  C3  UNL     1      15.523  -3.222   6.346  1.00  0.00     0.158 C 
BRANCH  11  12
HETATM   12  C2  UNL     1      14.544  -2.529   5.486  1.00  0.00    -0.017 C 
HETATM   13  C1  UNL     1      13.484  -3.170   5.039  1.00  0.00     0.008 C 
ENDBRANCH  11  12
ENDBRANCH   1  11
BRANCH   2  14
HETATM   14  S1  UNL     1      14.146  -3.738   8.820  1.00  0.00    -0.032 SA
BRANCH  14  15
HETATM   15  C5  UNL     1      14.340  -5.149   9.816  1.00  0.00     0.131 A 
HETATM   16  N2  UNL     1      15.531  -5.468  10.436  1.00  0.00    -0.324 N 
HETATM   17  C6  UNL     1      15.357  -6.586  11.114  1.00  0.00     0.180 A 
ATOM     18  H2  UNL     1      16.396  -4.930  10.380  1.00  0.00     0.169 HD
HETATM   19  S2  UNL     1      16.482  -7.374  12.021  1.00  0.00    -0.040 SA
HETATM   20  N3  UNL     1      14.104  -7.045  10.987  1.00  0.00    -0.307 N 
HETATM   21  C7  UNL     1      13.509  -8.233  11.567  1.00  0.00     0.161 C 
HETATM   22  C8  UNL     1      13.479  -6.130  10.169  1.00  0.00     0.179 A 
BRANCH  22  23
HETATM   23  O1  UNL     1      12.141  -6.330   9.840  1.00  0.00    -0.344 OA
ATOM     24  H1  UNL     1      11.551  -5.817   9.301  1.00  0.00     0.219 HD
ENDBRANCH  22  23
ENDBRANCH  14  15
ENDBRANCH   2  14
TORSDOF 5
ENDMDL
MODEL 4
REMARK VINA RESULT: -7.338864156      2.177      6.627
REMARK  5 active torsions:
REMARK  status: ('A' for Active; 'I' for Inactive)
REMARK    1  A    between atoms: C2_2  and  C3_3 
REMARK    2  A    between atoms: C3_3  and  N1_4 
REMARK    3  A    between atoms: C4_5  and  S1_6 
REMARK    4  A    between atoms: S1_6  and  C5_7 
REMARK    5  A    between atoms: C8_14  and  O1_15 
ROOT
HETATM    1  N1  UNL     1      14.228  -8.001  11.552  1.00  0.00    -0.313 N 
HETATM    2  C4  UNL     1      13.033  -8.080  10.884  1.00  0.00     0.154 A 
HETATM    3  N4  UNL     1      12.886  -7.392   9.737  1.00  0.00    -0.345 N 
ATOM      4  H4  UNL     1      11.991  -7.460   9.252  1.00  0.00     0.167 HD
HETATM    5  C9  UNL     1      13.831  -6.626   9.192  1.00  0.00     0.116 A 
HETATM    6  C10 UNL     1      15.035  -6.531   9.840  1.00  0.00     0.098 A 
HETATM    7  C11 UNL     1      16.077  -5.721   9.290  1.00  0.00     0.104 C 
HETATM    8  N5  UNL     1      16.928  -5.050   8.845  1.00  0.00    -0.191 NA
HETATM    9  C12 UNL     1      15.186  -7.245  11.027  1.00  0.00     0.127 A 
HETATM   10  S3  UNL     1      16.634  -7.106  11.770  1.00  0.00    -0.059 SA
ENDROOT
BRANCH   1  11
HETATM   11  C3  UNL     1      14.418  -8.710  12.772  1.00  0.00     0.158 C 
BRANCH  11  12
HETATM   12  C2  UNL     1      14.054  -7.957  13.988  1.00  0.00    -0.017 C 
HETATM   13  C1  UNL     1      14.890  -7.897  15.004  1.00  0.00     0.008 C 
ENDBRANCH  11  12
ENDBRANCH   1  11
BRANCH   2  14
HETATM   14  S1  UNL     1      11.813  -9.095  11.609  1.00  0.00    -0.032 SA
BRANCH  14  15
HETATM   15  C5  UNL     1      10.784 -10.058  10.592  1.00  0.00     0.131 A 
HETATM   16  N2  UNL     1      10.138 -11.191  11.043  1.00  0.00    -0.324 N 
HETATM   17  C6  UNL     1       9.439 -11.693  10.043  1.00  0.00     0.180 A 
ATOM     18  H2  UNL     1      10.191 -11.573  11.987  1.00  0.00     0.169 HD
HETATM   19  S2  UNL     1       8.497 -13.042  10.078  1.00  0.00    -0.040 SA
HETATM   20  N3  UNL     1       9.577 -10.956   8.931  1.00  0.00    -0.307 N 
HETATM   21  C7  UNL     1       8.982 -11.163   7.626  1.00  0.00     0.161 C 
HETATM   22  C8  UNL     1      10.425  -9.934   9.295  1.00  0.00     0.179 A 
BRANCH  22  23
HETATM   23  O1  UNL     1      10.771  -8.981   8.341  1.00  0.00    -0.344 OA
ATOM     24  H1  UNL     1      11.338  -8.220   8.400  1.00  0.00     0.219 HD
ENDBRANCH  22  23
ENDBRANCH  14  15
ENDBRANCH   2  14
TORSDOF 5
ENDMDL
MODEL 5
REMARK VINA RESULT: -7.295034608      3.073      3.594
REMARK  5 active torsions:
REMARK  status: ('A' for Active; 'I' for Inactive)
REMARK    1  A    between atoms: C2_2  and  C3_3 
REMARK    2  A    between atoms: C3_3  and  N1_4 
REMARK    3  A    between atoms: C4_5  and  S1_6 
REMARK    4  A    between atoms: S1_6  and  C5_7 
REMARK    5  A    between atoms: C8_14  and  O1_15 
ROOT
HETATM    1  N1  UNL     1      13.758  -7.420  11.746  1.00  0.00    -0.313 N 
HETATM    2  C4  UNL     1      13.090  -7.394  10.548  1.00  0.00     0.154 A 
HETATM    3  N4  UNL     1      12.078  -8.258  10.353  1.00  0.00    -0.345 N 
ATOM      4  H4  UNL     1      11.591  -8.227   9.457  1.00  0.00     0.167 HD
HETATM    5  C9  UNL     1      11.668  -9.153  11.252  1.00  0.00     0.116 A 
HETATM    6  C10 UNL     1      12.319  -9.199  12.458  1.00  0.00     0.098 A 
HETATM    7  C11 UNL     1      11.911 -10.143  13.450  1.00  0.00     0.104 C 
HETATM    8  N5  UNL     1      11.583 -10.922  14.262  1.00  0.00    -0.191 NA
HETATM    9  C12 UNL     1      13.367  -8.302  12.657  1.00  0.00     0.127 A 
HETATM   10  S3  UNL     1      14.117  -8.388  14.106  1.00  0.00    -0.059 SA
ENDROOT
BRANCH   1  11
HETATM   11  C3  UNL     1      14.839  -6.525  11.985  1.00  0.00     0.158 C 
BRANCH  11  12
HETATM   12  C2  UNL     1      16.150  -6.992  11.492  1.00  0.00    -0.017 C 
HETATM   13  C1  UNL     1      17.077  -7.381  12.342  1.00  0.00     0.008 C 
ENDBRANCH  11  12
ENDBRANCH   1  11
BRANCH   2  14
HETATM   14  S1  UNL     1      13.636  -6.210   9.390  1.00  0.00    -0.032 SA
BRANCH  14  15
HETATM   15  C5  UNL     1      12.867  -6.113   7.834  1.00  0.00     0.131 A 
HETATM   16  N2  UNL     1      13.566  -5.875   6.669  1.00  0.00    -0.324 N 
HETATM   17  C6  UNL     1      12.707  -5.861   5.667  1.00  0.00     0.180 A 
ATOM     18  H2  UNL     1      14.574  -5.735   6.594  1.00  0.00     0.169 HD
HETATM   19  S2  UNL     1      13.051  -5.616   4.077  1.00  0.00    -0.040 SA
HETATM   20  N3  UNL     1      11.455  -6.079   6.095  1.00  0.00    -0.307 N 
HETATM   21  C7  UNL     1      10.230  -6.142   5.321  1.00  0.00     0.161 C 
HETATM   22  C8  UNL     1      11.574  -6.235   7.457  1.00  0.00     0.179 A 
BRANCH  22  23
HETATM   23  O1  UNL     1      10.426  -6.479   8.206  1.00  0.00    -0.344 OA
ATOM     24  H1  UNL     1       9.589  -6.852   7.956  1.00  0.00     0.219 HD
ENDBRANCH  22  23
ENDBRANCH  14  15
ENDBRANCH   2  14
TORSDOF 5
ENDMDL
