MODEL 1
REMARK VINA RESULT: -7.257349738      0.000      0.000
REMARK  9 active torsions:
REMARK  status: ('A' for Active; 'I' for Inactive)
REMARK    1  A    between atoms: C2_2  and  C3_3 
REMARK    2  A    between atoms: C2_2  and  N8_27 
REMARK    3  A    between atoms: C4_4  and  N1_5 
REMARK    4  A    between atoms: N1_5  and  N2_7 
REMARK    5  A    between atoms: N2_7  and  N3_8 
REMARK    6  A    between atoms: N4_15  and  C8_16 
REMARK    7  A    between atoms: C8_16  and  N5_17 
REMARK    8  A    between atoms: C8_16  and  C9_21 
REMARK    9  A    between atoms: N7_23  and  O2_25 
ROOT
HETATM    1  C3  UNL     1      52.245  18.402  35.223  1.00  0.00     0.086 A 
HETATM    2  C4  UNL     1      52.202  17.402  36.253  1.00  0.00     0.091 A 
HETATM    3  C5  UNL     1      51.236  16.540  36.493  1.00  0.00     0.040 A 
HETATM    4  C6  UNL     1      50.108  16.606  35.672  1.00  0.00     0.077 A 
HETATM    5  C7  UNL     1      50.119  17.573  34.682  1.00  0.00     0.250 A 
HETATM    6  O1  UNL     1      49.079  17.560  34.014  1.00  0.00    -0.268 OA
HETATM    7  N4  UNL     1      51.153  18.460  34.448  1.00  0.00    -0.275 N 
ENDROOT
BRANCH   7   8
HETATM    8  C8  UNL     1      50.896  19.548  33.645  1.00  0.00     0.358 C 
BRANCH   8   9
HETATM    9  N5  UNL     1      50.186  20.550  34.595  1.00  0.00    -0.051 N 
ATOM     10  H53 UNL     1      50.118  20.235  35.564  1.00  0.00     0.277 HD
ATOM     11  H52 UNL     1      50.724  21.394  34.794  1.00  0.00     0.277 HD
ATOM     12  H51 UNL     1      49.288  20.719  34.143  1.00  0.00     0.277 HD
ENDBRANCH   8   9
BRANCH   8  13
HETATM   13  C9  UNL     1      50.182  19.580  32.404  1.00  0.00     0.163 C 
HETATM   14  N6  UNL     1      50.391  18.853  31.213  1.00  0.00    -0.082 NA
HETATM   15  N7  UNL     1      49.102  20.364  32.284  1.00  0.00    -0.256 N 
ATOM     16  H7  UNL     1      48.795  20.929  33.075  1.00  0.00     0.195 HD
BRANCH  15  17
HETATM   17  O2  UNL     1      48.401  20.412  31.093  1.00  0.00    -0.289 OA
ATOM     18  H2  UNL     1      47.936  21.202  30.840  1.00  0.00     0.244 HD
ENDBRANCH  15  17
ENDBRANCH   8  13
ENDBRANCH   7   8
BRANCH   1  19
HETATM   19  C2  UNL     1      53.463  19.172  35.105  1.00  0.00     0.013 C 
HETATM   20  C1  UNL     1      54.002  19.637  33.795  1.00  0.00     0.064 C 
BRANCH  19  21
HETATM   21  N8  UNL     1      53.677  20.144  36.176  1.00  0.00    -0.282 NA
HETATM   22  C10 UNL     1      52.819  21.255  36.235  1.00  0.00     0.123 C 
HETATM   23  C11 UNL     1      53.451  22.294  37.192  1.00  0.00     0.247 C 
HETATM   24  N9  UNL     1      54.105  21.622  38.297  1.00  0.00    -0.073 N 
HETATM   25  C12 UNL     1      55.275  20.919  37.786  1.00  0.00     0.247 C 
ATOM     26  H92 UNL     1      54.334  22.256  39.062  1.00  0.00     0.277 HD
ATOM     27  H91 UNL     1      53.473  21.007  38.810  1.00  0.00     0.277 HD
HETATM   28  C13 UNL     1      55.022  20.602  36.323  1.00  0.00     0.123 C 
ENDBRANCH  19  21
ENDBRANCH   1  19
BRANCH   2  29
HETATM   29  N1  UNL     1      53.280  17.466  37.217  1.00  0.00    -0.214 N 
ATOM     30  H1  UNL     1      54.171  17.053  36.940  1.00  0.00     0.204 HD
BRANCH  29  31
HETATM   31  N2  UNL     1      53.228  17.945  38.282  1.00  0.00    -0.243 NA
BRANCH  31  32
HETATM   32  N3  UNL     1      53.171  18.516  39.439  1.00  0.00    -0.260 N 
ATOM     33  H32 UNL     1      52.298  18.266  38.973  1.00  0.00     0.193 HD
ATOM     34  H31 UNL     1      53.162  18.967  40.353  1.00  0.00     0.193 HD
ENDBRANCH  31  32
ENDBRANCH  29  31
ENDBRANCH   2  29
TORSDOF 9
ENDMDL
MODEL 2
REMARK VINA RESULT: -6.762093730      2.505      5.494
REMARK  9 active torsions:
REMARK  status: ('A' for Active; 'I' for Inactive)
REMARK    1  A    between atoms: C2_2  and  C3_3 
REMARK    2  A    between atoms: C2_2  and  N8_27 
REMARK    3  A    between atoms: C4_4  and  N1_5 
REMARK    4  A    between atoms: N1_5  and  N2_7 
REMARK    5  A    between atoms: N2_7  and  N3_8 
REMARK    6  A    between atoms: N4_15  and  C8_16 
REMARK    7  A    between atoms: C8_16  and  N5_17 
REMARK    8  A    between atoms: C8_16  and  C9_21 
REMARK    9  A    between atoms: N7_23  and  O2_25 
ROOT
HETATM    1  C3  UNL     1      50.747  19.273  34.880  1.00  0.00     0.086 A 
HETATM    2  C4  UNL     1      49.916  18.500  33.999  1.00  0.00     0.091 A 
HETATM    3  C5  UNL     1      49.529  17.251  34.153  1.00  0.00     0.040 A 
HETATM    4  C6  UNL     1      49.985  16.581  35.290  1.00  0.00     0.077 A 
HETATM    5  C7  UNL     1      50.800  17.301  36.147  1.00  0.00     0.250 A 
HETATM    6  O1  UNL     1      51.161  16.624  37.117  1.00  0.00    -0.268 OA
HETATM    7  N4  UNL     1      51.184  18.616  35.962  1.00  0.00    -0.275 N 
ENDROOT
BRANCH   7   8
HETATM    8  C8  UNL     1      52.230  19.092  36.721  1.00  0.00     0.358 C 
BRANCH   8   9
HETATM    9  N5  UNL     1      53.416  18.166  36.339  1.00  0.00    -0.051 N 
ATOM     10  H53 UNL     1      53.144  17.316  35.844  1.00  0.00     0.277 HD
ATOM     11  H52 UNL     1      54.015  18.534  35.600  1.00  0.00     0.277 HD
ATOM     12  H51 UNL     1      53.892  18.003  37.226  1.00  0.00     0.277 HD
ENDBRANCH   8   9
BRANCH   8  13
HETATM   13  C9  UNL     1      52.282  19.265  38.141  1.00  0.00     0.163 C 
HETATM   14  N6  UNL     1      51.529  20.109  38.985  1.00  0.00    -0.082 NA
HETATM   15  N7  UNL     1      53.120  18.512  38.868  1.00  0.00    -0.256 N 
ATOM     16  H7  UNL     1      53.710  17.821  38.406  1.00  0.00     0.195 HD
BRANCH  15  17
HETATM   17  O2  UNL     1      53.188  18.667  40.240  1.00  0.00    -0.289 OA
ATOM     18  H2  UNL     1      53.945  19.081  40.640  1.00  0.00     0.244 HD
ENDBRANCH  15  17
ENDBRANCH   8  13
ENDBRANCH   7   8
BRANCH   1  19
HETATM   19  C2  UNL     1      50.957  20.661  34.534  1.00  0.00     0.013 C 
HETATM   20  C1  UNL     1      51.079  21.739  35.557  1.00  0.00     0.064 C 
BRANCH  19  21
HETATM   21  N8  UNL     1      51.833  20.878  33.384  1.00  0.00    -0.282 NA
HETATM   22  C10 UNL     1      53.191  20.542  33.521  1.00  0.00     0.123 C 
HETATM   23  C11 UNL     1      53.961  21.183  32.341  1.00  0.00     0.247 C 
HETATM   24  N9  UNL     1      53.155  21.140  31.137  1.00  0.00    -0.073 N 
HETATM   25  C12 UNL     1      52.027  22.047  31.301  1.00  0.00     0.247 C 
ATOM     26  H92 UNL     1      53.697  21.338  30.296  1.00  0.00     0.277 HD
ATOM     27  H91 UNL     1      52.864  20.193  30.896  1.00  0.00     0.277 HD
HETATM   28  C13 UNL     1      51.746  22.173  32.787  1.00  0.00     0.123 C 
ENDBRANCH  19  21
ENDBRANCH   1  19
BRANCH   2  29
HETATM   29  N1  UNL     1      49.607  19.132  32.733  1.00  0.00    -0.214 N 
ATOM     30  H1  UNL     1      50.105  18.787  31.912  1.00  0.00     0.204 HD
BRANCH  29  31
HETATM   31  N2  UNL     1      48.841  19.999  32.562  1.00  0.00    -0.243 NA
BRANCH  31  32
HETATM   32  N3  UNL     1      48.026  20.976  32.347  1.00  0.00    -0.260 N 
ATOM     33  H32 UNL     1      47.774  20.274  33.043  1.00  0.00     0.193 HD
ATOM     34  H31 UNL     1      47.405  21.761  32.152  1.00  0.00     0.193 HD
ENDBRANCH  31  32
ENDBRANCH  29  31
ENDBRANCH   2  29
TORSDOF 9
ENDMDL
MODEL 3
REMARK VINA RESULT: -6.746765808      2.541      4.848
REMARK  9 active torsions:
REMARK  status: ('A' for Active; 'I' for Inactive)
REMARK    1  A    between atoms: C2_2  and  C3_3 
REMARK    2  A    between atoms: C2_2  and  N8_27 
REMARK    3  A    between atoms: C4_4  and  N1_5 
REMARK    4  A    between atoms: N1_5  and  N2_7 
REMARK    5  A    between atoms: N2_7  and  N3_8 
REMARK    6  A    between atoms: N4_15  and  C8_16 
REMARK    7  A    between atoms: C8_16  and  N5_17 
REMARK    8  A    between atoms: C8_16  and  C9_21 
REMARK    9  A    between atoms: N7_23  and  O2_25 
ROOT
HETATM    1  C3  UNL     1      52.147  18.734  35.069  1.00  0.00     0.086 A 
HETATM    2  C4  UNL     1      51.017  18.034  34.525  1.00  0.00     0.091 A 
HETATM    3  C5  UNL     1      50.442  16.949  35.001  1.00  0.00     0.040 A 
HETATM    4  C6  UNL     1      50.993  16.393  36.157  1.00  0.00     0.077 A 
HETATM    5  C7  UNL     1      52.093  17.042  36.692  1.00  0.00     0.250 A 
HETATM    6  O1  UNL     1      52.516  16.473  37.705  1.00  0.00    -0.268 OA
HETATM    7  N4  UNL     1      52.672  18.186  36.174  1.00  0.00    -0.275 N 
ENDROOT
BRANCH   7   8
HETATM    8  C8  UNL     1      53.925  18.532  36.624  1.00  0.00     0.358 C 
BRANCH   8   9
HETATM    9  N5  UNL     1      53.678  18.997  38.085  1.00  0.00    -0.051 N 
ATOM     10  H53 UNL     1      53.968  19.956  38.276  1.00  0.00     0.277 HD
ATOM     11  H52 UNL     1      52.695  19.132  38.322  1.00  0.00     0.277 HD
ATOM     12  H51 UNL     1      54.155  18.292  38.648  1.00  0.00     0.277 HD
ENDBRANCH   8   9
BRANCH   8  13
HETATM   13  C9  UNL     1      54.844  19.465  36.045  1.00  0.00     0.163 C 
HETATM   14  N6  UNL     1      54.941  20.865  36.199  1.00  0.00    -0.082 NA
HETATM   15  N7  UNL     1      55.829  19.018  35.253  1.00  0.00    -0.256 N 
ATOM     16  H7  UNL     1      55.918  18.018  35.072  1.00  0.00     0.195 HD
BRANCH  15  17
HETATM   17  O2  UNL     1      56.723  19.903  34.680  1.00  0.00    -0.289 OA
ATOM     18  H2  UNL     1      56.881  20.751  35.078  1.00  0.00     0.244 HD
ENDBRANCH  15  17
ENDBRANCH   8  13
ENDBRANCH   7   8
BRANCH   1  19
HETATM   19  C2  UNL     1      52.539  19.960  34.411  1.00  0.00     0.013 C 
HETATM   20  C1  UNL     1      53.234  19.983  33.092  1.00  0.00     0.064 C 
BRANCH  19  21
HETATM   21  N8  UNL     1      51.593  21.065  34.565  1.00  0.00    -0.282 NA
HETATM   22  C10 UNL     1      51.634  22.101  33.617  1.00  0.00     0.123 C 
HETATM   23  C11 UNL     1      50.823  23.293  34.178  1.00  0.00     0.247 C 
HETATM   24  N9  UNL     1      49.670  22.810  34.912  1.00  0.00    -0.073 N 
HETATM   25  C12 UNL     1      50.135  22.152  36.126  1.00  0.00     0.247 C 
ATOM     26  H92 UNL     1      48.991  23.547  35.103  1.00  0.00     0.277 HD
ATOM     27  H91 UNL     1      49.070  22.210  34.347  1.00  0.00     0.277 HD
HETATM   28  C13 UNL     1      51.543  21.647  35.869  1.00  0.00     0.123 C 
ENDBRANCH  19  21
ENDBRANCH   1  19
BRANCH   2  29
HETATM   29  N1  UNL     1      50.572  18.498  33.228  1.00  0.00    -0.214 N 
ATOM     30  H1  UNL     1      51.086  18.158  32.416  1.00  0.00     0.204 HD
BRANCH  29  31
HETATM   31  N2  UNL     1      49.680  19.225  33.023  1.00  0.00    -0.243 NA
BRANCH  31  32
HETATM   32  N3  UNL     1      48.724  20.060  32.785  1.00  0.00    -0.260 N 
ATOM     33  H32 UNL     1      49.652  20.259  32.411  1.00  0.00     0.193 HD
ATOM     34  H31 UNL     1      47.947  20.698  32.616  1.00  0.00     0.193 HD
ENDBRANCH  31  32
ENDBRANCH  29  31
ENDBRANCH   2  29
TORSDOF 9
ENDMDL
MODEL 4
REMARK VINA RESULT: -6.704003799      1.762      2.010
REMARK  9 active torsions:
REMARK  status: ('A' for Active; 'I' for Inactive)
REMARK    1  A    between atoms: C2_2  and  C3_3 
REMARK    2  A    between atoms: C2_2  and  N8_27 
REMARK    3  A    between atoms: C4_4  and  N1_5 
REMARK    4  A    between atoms: N1_5  and  N2_7 
REMARK    5  A    between atoms: N2_7  and  N3_8 
REMARK    6  A    between atoms: N4_15  and  C8_16 
REMARK    7  A    between atoms: C8_16  and  N5_17 
REMARK    8  A    between atoms: C8_16  and  C9_21 
REMARK    9  A    between atoms: N7_23  and  O2_25 
ROOT
HETATM    1  C3  UNL     1      53.215  19.204  34.952  1.00  0.00     0.086 A 
HETATM    2  C4  UNL     1      53.705  18.442  36.067  1.00  0.00     0.091 A 
HETATM    3  C5  UNL     1      53.007  17.689  36.891  1.00  0.00     0.040 A 
HETATM    4  C6  UNL     1      51.628  17.628  36.681  1.00  0.00     0.077 A 
HETATM    5  C7  UNL     1      51.130  18.367  35.622  1.00  0.00     0.250 A 
HETATM    6  O1  UNL     1      49.902  18.259  35.522  1.00  0.00    -0.268 OA
HETATM    7  N4  UNL     1      51.889  19.144  34.768  1.00  0.00    -0.275 N 
ENDROOT
BRANCH   7   8
HETATM    8  C8  UNL     1      51.231  20.051  33.969  1.00  0.00     0.358 C 
BRANCH   8   9
HETATM    9  N5  UNL     1      50.484  20.961  34.981  1.00  0.00    -0.051 N 
ATOM     10  H53 UNL     1      50.092  20.466  35.782  1.00  0.00     0.277 HD
ATOM     11  H52 UNL     1      51.091  21.577  35.521  1.00  0.00     0.277 HD
ATOM     12  H51 UNL     1      49.794  21.447  34.407  1.00  0.00     0.277 HD
ENDBRANCH   8   9
BRANCH   8  13
HETATM   13  C9  UNL     1      50.316  19.785  32.900  1.00  0.00     0.163 C 
HETATM   14  N6  UNL     1      50.215  18.667  32.044  1.00  0.00    -0.082 NA
HETATM   15  N7  UNL     1      49.342  20.664  32.630  1.00  0.00    -0.256 N 
ATOM     16  H7  UNL     1      49.256  21.513  33.188  1.00  0.00     0.195 HD
BRANCH  15  17
HETATM   17  O2  UNL     1      48.452  20.427  31.598  1.00  0.00    -0.289 OA
ATOM     18  H2  UNL     1      47.516  20.509  31.742  1.00  0.00     0.244 HD
ENDBRANCH  15  17
ENDBRANCH   8  13
ENDBRANCH   7   8
BRANCH   1  19
HETATM   19  C2  UNL     1      54.198  19.882  34.138  1.00  0.00     0.013 C 
HETATM   20  C1  UNL     1      54.075  20.006  32.657  1.00  0.00     0.064 C 
BRANCH  19  21
HETATM   21  N8  UNL     1      54.785  21.072  34.753  1.00  0.00    -0.282 NA
HETATM   22  C10 UNL     1      53.920  22.124  35.102  1.00  0.00     0.123 C 
HETATM   23  C11 UNL     1      54.785  23.377  35.384  1.00  0.00     0.247 C 
HETATM   24  N9  UNL     1      56.021  22.993  36.037  1.00  0.00    -0.073 N 
HETATM   25  C12 UNL     1      56.841  22.259  35.083  1.00  0.00     0.247 C 
ATOM     26  H92 UNL     1      56.512  23.789  36.443  1.00  0.00     0.277 HD
ATOM     27  H91 UNL     1      55.862  22.471  36.899  1.00  0.00     0.277 HD
HETATM   28  C13 UNL     1      55.911  21.621  34.067  1.00  0.00     0.123 C 
ENDBRANCH  19  21
ENDBRANCH   1  19
BRANCH   2  29
HETATM   29  N1  UNL     1      55.097  18.660  36.397  1.00  0.00    -0.214 N 
ATOM     30  H1  UNL     1      55.783  18.080  35.913  1.00  0.00     0.204 HD
BRANCH  29  31
HETATM   31  N2  UNL     1      55.512  19.439  37.164  1.00  0.00    -0.243 NA
BRANCH  31  32
HETATM   32  N3  UNL     1      55.949  20.331  37.989  1.00  0.00    -0.260 N 
ATOM     33  H32 UNL     1      55.437  19.531  38.360  1.00  0.00     0.193 HD
ATOM     34  H31 UNL     1      56.308  21.054  38.612  1.00  0.00     0.193 HD
ENDBRANCH  31  32
ENDBRANCH  29  31
ENDBRANCH   2  29
TORSDOF 9
ENDMDL
MODEL 5
REMARK VINA RESULT: -6.642502988      2.516      5.301
REMARK  9 active torsions:
REMARK  status: ('A' for Active; 'I' for Inactive)
REMARK    1  A    between atoms: C2_2  and  C3_3 
REMARK    2  A    between atoms: C2_2  and  N8_27 
REMARK    3  A    between atoms: C4_4  and  N1_5 
REMARK    4  A    between atoms: N1_5  and  N2_7 
REMARK    5  A    between atoms: N2_7  and  N3_8 
REMARK    6  A    between atoms: N4_15  and  C8_16 
REMARK    7  A    between atoms: C8_16  and  N5_17 
REMARK    8  A    between atoms: C8_16  and  C9_21 
REMARK    9  A    between atoms: N7_23  and  O2_25 
ROOT
HETATM    1  C3  UNL     1      50.791  19.222  34.830  1.00  0.00     0.086 A 
HETATM    2  C4  UNL     1      49.900  18.474  33.987  1.00  0.00     0.091 A 
HETATM    3  C5  UNL     1      49.434  17.259  34.191  1.00  0.00     0.040 A 
HETATM    4  C6  UNL     1      49.860  16.603  35.348  1.00  0.00     0.077 A 
HETATM    5  C7  UNL     1      50.732  17.298  36.168  1.00  0.00     0.250 A 
HETATM    6  O1  UNL     1      51.059  16.634  37.159  1.00  0.00    -0.268 OA
HETATM    7  N4  UNL     1      51.198  18.577  35.931  1.00  0.00    -0.275 N 
ENDROOT
BRANCH   7   8
HETATM    8  C8  UNL     1      52.283  19.010  36.661  1.00  0.00     0.358 C 
BRANCH   8   9
HETATM    9  N5  UNL     1      53.385  17.964  36.342  1.00  0.00    -0.051 N 
ATOM     10  H53 UNL     1      53.813  18.070  35.422  1.00  0.00     0.277 HD
ATOM     11  H52 UNL     1      54.245  18.084  36.876  1.00  0.00     0.277 HD
ATOM     12  H51 UNL     1      52.919  17.068  36.489  1.00  0.00     0.277 HD
ENDBRANCH   8   9
BRANCH   8  13
HETATM   13  C9  UNL     1      52.353  19.269  38.067  1.00  0.00     0.163 C 
HETATM   14  N6  UNL     1      51.705  20.250  38.847  1.00  0.00    -0.082 NA
HETATM   15  N7  UNL     1      53.094  18.471  38.849  1.00  0.00    -0.256 N 
ATOM     16  H7  UNL     1      53.599  17.686  38.438  1.00  0.00     0.195 HD
BRANCH  15  17
HETATM   17  O2  UNL     1      53.179  18.707  40.209  1.00  0.00    -0.289 OA
ATOM     18  H2  UNL     1      52.894  18.047  40.830  1.00  0.00     0.244 HD
ENDBRANCH  15  17
ENDBRANCH   8  13
ENDBRANCH   7   8
BRANCH   1  19
HETATM   19  C2  UNL     1      51.088  20.579  34.431  1.00  0.00     0.013 C 
HETATM   20  C1  UNL     1      50.840  21.754  35.315  1.00  0.00     0.064 C 
BRANCH  19  21
HETATM   21  N8  UNL     1      52.300  20.729  33.627  1.00  0.00    -0.282 NA
HETATM   22  C10 UNL     1      52.270  21.641  32.559  1.00  0.00     0.123 C 
HETATM   23  C11 UNL     1      53.500  21.363  31.661  1.00  0.00     0.247 C 
HETATM   24  N9  UNL     1      54.639  20.993  32.478  1.00  0.00    -0.073 N 
HETATM   25  C12 UNL     1      54.383  19.685  33.066  1.00  0.00     0.247 C 
ATOM     26  H92 UNL     1      55.518  21.023  31.960  1.00  0.00     0.277 HD
ATOM     27  H91 UNL     1      54.864  21.700  33.178  1.00  0.00     0.277 HD
HETATM   28  C13 UNL     1      52.879  19.508  33.164  1.00  0.00     0.123 C 
ENDBRANCH  19  21
ENDBRANCH   1  19
BRANCH   2  29
HETATM   29  N1  UNL     1      49.617  19.078  32.702  1.00  0.00    -0.214 N 
ATOM     30  H1  UNL     1      50.116  18.702  31.896  1.00  0.00     0.204 HD
BRANCH  29  31
HETATM   31  N2  UNL     1      48.871  19.956  32.500  1.00  0.00    -0.243 NA
BRANCH  31  32
HETATM   32  N3  UNL     1      48.072  20.951  32.304  1.00  0.00    -0.260 N 
ATOM     33  H32 UNL     1      48.502  20.501  31.494  1.00  0.00     0.193 HD
ATOM     34  H31 UNL     1      47.437  21.739  32.184  1.00  0.00     0.193 HD
ENDBRANCH  31  32
ENDBRANCH  29  31
ENDBRANCH   2  29
TORSDOF 9
ENDMDL
