MODEL 1
REMARK VINA RESULT: -6.194000542      0.000      0.000
REMARK  7 active torsions:
REMARK  status: ('A' for Active; 'I' for Inactive)
REMARK    1  A    between atoms: O1_2  and  C2_3 
REMARK    2  A    between atoms: C4_10  and  C5_11 
REMARK    3  A    between atoms: C6_12  and  N3_13 
REMARK    4  A    between atoms: N3_13  and  C8_16 
REMARK    5  A    between atoms: C8_16  and  O3_18 
REMARK    6  A    between atoms: C11_25  and  N7_26 
REMARK    7  A    between atoms: C12_29  and  O4_30 
ROOT
HETATM    1  N3  UNL     1      53.326  18.895  36.547  1.00  0.00    -0.241 N 
HETATM    2  C7  UNL     1      54.304  19.018  35.573  1.00  0.00     0.188 C 
HETATM    3  N4  UNL     1      55.124  19.123  34.737  1.00  0.00    -0.172 NA
ENDROOT
BRANCH   1   4
HETATM    4  C6  UNL     1      52.532  20.004  36.899  1.00  0.00     0.136 A 
HETATM    5  C5  UNL     1      51.487  20.497  36.167  1.00  0.00     0.082 A 
HETATM    6  C11 UNL     1      50.835  21.622  36.669  1.00  0.00     0.116 A 
HETATM    7  N6  UNL     1      51.196  22.215  37.821  1.00  0.00    -0.338 N 
HETATM    8  C10 UNL     1      52.208  21.725  38.516  1.00  0.00     0.183 A 
ATOM      9  H6  UNL     1      50.693  23.037  38.155  1.00  0.00     0.168 HD
HETATM   10  N5  UNL     1      52.848  20.649  38.054  1.00  0.00    -0.337 N 
ATOM     11  H5  UNL     1      53.626  20.285  38.605  1.00  0.00     0.168 HD
BRANCH   5  12
HETATM   12  C4  UNL     1      51.080  19.859  34.929  1.00  0.00     0.092 A 
HETATM   13  N2  UNL     1      50.152  18.887  34.931  1.00  0.00    -0.305 N 
HETATM   14  C3  UNL     1      49.732  18.259  33.820  1.00  0.00     0.326 A 
ATOM     15  H2  UNL     1      49.745  18.611  35.825  1.00  0.00     0.171 HD
HETATM   16  N1  UNL     1      50.271  18.624  32.643  1.00  0.00    -0.287 N 
HETATM   17  O2  UNL     1      48.848  17.340  33.856  1.00  0.00    -0.247 OA
HETATM   18  C2  UNL     1      51.204  19.579  32.518  1.00  0.00     0.182 A 
ATOM     19  H1  UNL     1      49.954  18.148  31.799  1.00  0.00     0.172 HD
HETATM   20  C12 UNL     1      51.614  20.210  33.701  1.00  0.00     0.147 A 
BRANCH  18  21
HETATM   21  O1  UNL     1      51.747  19.938  31.294  1.00  0.00    -0.339 OA
HETATM   22  C1  UNL     1      51.001  20.755  30.410  1.00  0.00     0.211 C 
ENDBRANCH  18  21
BRANCH  20  23
HETATM   23  O4  UNL     1      52.575  21.189  33.548  1.00  0.00    -0.350 OA
HETATM   24  C13 UNL     1      52.362  22.556  33.384  1.00  0.00     0.210 C 
ENDBRANCH  20  23
ENDBRANCH   5  12
BRANCH   6  25
HETATM   25  N7  UNL     1      49.859  22.127  36.007  1.00  0.00    -0.385 N 
ATOM     26  H72 UNL     1      49.935  22.165  34.990  1.00  0.00     0.157 HD
ATOM     27  H71 UNL     1      49.038  22.464  36.510  1.00  0.00     0.157 HD
ENDBRANCH   6  25
ENDBRANCH   1   4
BRANCH   1  28
HETATM   28  C8  UNL     1      53.122  17.624  37.185  1.00  0.00     0.232 C 
HETATM   29  C9  UNL     1      52.018  16.795  36.624  1.00  0.00     0.064 C 
BRANCH  28  30
HETATM   30  O3  UNL     1      53.017  17.749  38.576  1.00  0.00    -0.376 OA
ATOM     31  H3  UNL     1      52.988  18.658  38.849  1.00  0.00     0.212 HD
ENDBRANCH  28  30
ENDBRANCH   1  28
TORSDOF 7
ENDMDL
MODEL 2
REMARK VINA RESULT: -6.181260347      1.718      3.531
REMARK  7 active torsions:
REMARK  status: ('A' for Active; 'I' for Inactive)
REMARK    1  A    between atoms: O1_2  and  C2_3 
REMARK    2  A    between atoms: C4_10  and  C5_11 
REMARK    3  A    between atoms: C6_12  and  N3_13 
REMARK    4  A    between atoms: N3_13  and  C8_16 
REMARK    5  A    between atoms: C8_16  and  O3_18 
REMARK    6  A    between atoms: C11_25  and  N7_26 
REMARK    7  A    between atoms: C12_29  and  O4_30 
ROOT
HETATM    1  N3  UNL     1      52.726  18.613  36.450  1.00  0.00    -0.241 N 
HETATM    2  C7  UNL     1      53.853  18.851  35.679  1.00  0.00     0.188 C 
HETATM    3  N4  UNL     1      54.811  19.040  35.025  1.00  0.00    -0.172 NA
ENDROOT
BRANCH   1   4
HETATM    4  C6  UNL     1      51.584  18.022  35.873  1.00  0.00     0.136 A 
HETATM    5  C5  UNL     1      50.681  18.660  35.067  1.00  0.00     0.082 A 
HETATM    6  C11 UNL     1      49.598  17.910  34.611  1.00  0.00     0.116 A 
HETATM    7  N6  UNL     1      49.425  16.616  34.932  1.00  0.00    -0.338 N 
HETATM    8  C10 UNL     1      50.308  16.016  35.711  1.00  0.00     0.183 A 
ATOM      9  H6  UNL     1      48.619  16.102  34.577  1.00  0.00     0.168 HD
HETATM   10  N5  UNL     1      51.353  16.713  36.161  1.00  0.00    -0.337 N 
ATOM     11  H5  UNL     1      52.023  16.233  36.761  1.00  0.00     0.168 HD
BRANCH   5  12
HETATM   12  C4  UNL     1      50.862  20.053  34.702  1.00  0.00     0.092 A 
HETATM   13  N2  UNL     1      50.395  21.035  35.490  1.00  0.00    -0.305 N 
HETATM   14  C3  UNL     1      50.531  22.342  35.209  1.00  0.00     0.326 A 
ATOM     15  H2  UNL     1      49.909  20.774  36.349  1.00  0.00     0.171 HD
HETATM   16  N1  UNL     1      51.170  22.683  34.076  1.00  0.00    -0.287 N 
HETATM   17  O2  UNL     1      50.075  23.250  35.980  1.00  0.00    -0.247 OA
HETATM   18  C2  UNL     1      51.678  21.791  33.213  1.00  0.00     0.182 A 
ATOM     19  H1  UNL     1      51.274  23.674  33.861  1.00  0.00     0.172 HD
HETATM   20  C12 UNL     1      51.515  20.438  33.544  1.00  0.00     0.147 A 
BRANCH  18  21
HETATM   21  O1  UNL     1      52.334  22.166  32.050  1.00  0.00    -0.339 OA
HETATM   22  C1  UNL     1      51.603  22.771  30.999  1.00  0.00     0.211 C 
ENDBRANCH  18  21
BRANCH  20  23
HETATM   23  O4  UNL     1      52.045  19.539  32.642  1.00  0.00    -0.350 OA
HETATM   24  C13 UNL     1      51.422  19.017  31.510  1.00  0.00     0.210 C 
ENDBRANCH  20  23
ENDBRANCH   5  12
BRANCH   6  25
HETATM   25  N7  UNL     1      48.718  18.473  33.864  1.00  0.00    -0.385 N 
ATOM     26  H72 UNL     1      49.013  19.249  33.273  1.00  0.00     0.157 HD
ATOM     27  H71 UNL     1      47.760  18.123  33.875  1.00  0.00     0.157 HD
ENDBRANCH   6  25
ENDBRANCH   1   4
BRANCH   1  28
HETATM   28  C8  UNL     1      52.737  18.963  37.842  1.00  0.00     0.232 C 
HETATM   29  C9  UNL     1      53.527  20.177  38.193  1.00  0.00     0.064 C 
BRANCH  28  30
HETATM   30  O3  UNL     1      53.080  17.873  38.652  1.00  0.00    -0.376 OA
ATOM     31  H3  UNL     1      52.341  17.295  38.800  1.00  0.00     0.212 HD
ENDBRANCH  28  30
ENDBRANCH   1  28
TORSDOF 7
ENDMDL
MODEL 3
REMARK VINA RESULT: -6.146448581      2.071      3.359
REMARK  7 active torsions:
REMARK  status: ('A' for Active; 'I' for Inactive)
REMARK    1  A    between atoms: O1_2  and  C2_3 
REMARK    2  A    between atoms: C4_10  and  C5_11 
REMARK    3  A    between atoms: C6_12  and  N3_13 
REMARK    4  A    between atoms: N3_13  and  C8_16 
REMARK    5  A    between atoms: C8_16  and  O3_18 
REMARK    6  A    between atoms: C11_25  and  N7_26 
REMARK    7  A    between atoms: C12_29  and  O4_30 
ROOT
HETATM    1  N3  UNL     1      52.202  18.159  36.517  1.00  0.00    -0.241 N 
HETATM    2  C7  UNL     1      51.568  18.934  37.476  1.00  0.00     0.188 C 
HETATM    3  N4  UNL     1      51.040  19.587  38.298  1.00  0.00    -0.172 NA
ENDROOT
BRANCH   1   4
HETATM    4  C6  UNL     1      53.398  18.607  35.923  1.00  0.00     0.136 A 
HETATM    5  C5  UNL     1      53.491  19.289  34.741  1.00  0.00     0.082 A 
HETATM    6  C11 UNL     1      54.770  19.627  34.302  1.00  0.00     0.116 A 
HETATM    7  N6  UNL     1      55.881  19.308  34.990  1.00  0.00    -0.338 N 
HETATM    8  C10 UNL     1      55.773  18.649  36.130  1.00  0.00     0.183 A 
ATOM      9  H6  UNL     1      56.799  19.574  34.635  1.00  0.00     0.168 HD
HETATM   10  N5  UNL     1      54.558  18.315  36.571  1.00  0.00    -0.337 N 
ATOM     11  H5  UNL     1      54.495  17.806  37.453  1.00  0.00     0.168 HD
BRANCH   5  12
HETATM   12  C4  UNL     1      52.300  19.650  33.995  1.00  0.00     0.092 A 
HETATM   13  N2  UNL     1      51.807  18.830  33.051  1.00  0.00    -0.305 N 
HETATM   14  C3  UNL     1      50.709  19.106  32.327  1.00  0.00     0.326 A 
ATOM     15  H2  UNL     1      52.293  17.951  32.875  1.00  0.00     0.171 HD
HETATM   16  N1  UNL     1      50.071  20.267  32.561  1.00  0.00    -0.287 N 
HETATM   17  O2  UNL     1      50.267  18.305  31.438  1.00  0.00    -0.247 OA
HETATM   18  C2  UNL     1      50.471  21.162  33.475  1.00  0.00     0.182 A 
ATOM     19  H1  UNL     1      49.238  20.478  32.012  1.00  0.00     0.172 HD
HETATM   20  C12 UNL     1      51.619  20.836  34.209  1.00  0.00     0.147 A 
BRANCH  18  21
HETATM   21  O1  UNL     1      49.797  22.354  33.699  1.00  0.00    -0.339 OA
HETATM   22  C1  UNL     1      49.228  23.052  32.606  1.00  0.00     0.211 C 
ENDBRANCH  18  21
BRANCH  20  23
HETATM   23  O4  UNL     1      52.011  21.772  35.144  1.00  0.00    -0.350 OA
HETATM   24  C13 UNL     1      52.893  22.835  34.951  1.00  0.00     0.210 C 
ENDBRANCH  20  23
ENDBRANCH   5  12
BRANCH   6  25
HETATM   25  N7  UNL     1      54.905  20.254  33.190  1.00  0.00    -0.385 N 
ATOM     26  H72 UNL     1      54.892  19.712  32.326  1.00  0.00     0.157 HD
ATOM     27  H71 UNL     1      55.009  21.269  33.201  1.00  0.00     0.157 HD
ENDBRANCH   6  25
ENDBRANCH   1   4
BRANCH   1  28
HETATM   28  C8  UNL     1      51.636  16.893  36.145  1.00  0.00     0.232 C 
HETATM   29  C9  UNL     1      50.249  16.946  35.600  1.00  0.00     0.064 C 
BRANCH  28  30
HETATM   30  O3  UNL     1      51.751  15.948  37.171  1.00  0.00    -0.376 OA
ATOM     31  H3  UNL     1      50.940  15.471  37.307  1.00  0.00     0.212 HD
ENDBRANCH  28  30
ENDBRANCH   1  28
TORSDOF 7
ENDMDL
MODEL 4
REMARK VINA RESULT: -6.011465360      2.112      5.534
REMARK  7 active torsions:
REMARK  status: ('A' for Active; 'I' for Inactive)
REMARK    1  A    between atoms: O1_2  and  C2_3 
REMARK    2  A    between atoms: C4_10  and  C5_11 
REMARK    3  A    between atoms: C6_12  and  N3_13 
REMARK    4  A    between atoms: N3_13  and  C8_16 
REMARK    5  A    between atoms: C8_16  and  O3_18 
REMARK    6  A    between atoms: C11_25  and  N7_26 
REMARK    7  A    between atoms: C12_29  and  O4_30 
ROOT
HETATM    1  N3  UNL     1      50.924  19.369  33.233  1.00  0.00    -0.241 N 
HETATM    2  C7  UNL     1      50.624  20.687  33.543  1.00  0.00     0.188 C 
HETATM    3  N4  UNL     1      50.357  21.800  33.807  1.00  0.00    -0.172 NA
ENDROOT
BRANCH   1   4
HETATM    4  C6  UNL     1      50.966  18.394  34.249  1.00  0.00     0.136 A 
HETATM    5  C5  UNL     1      51.972  18.242  35.163  1.00  0.00     0.082 A 
HETATM    6  C11 UNL     1      51.846  17.199  36.079  1.00  0.00     0.116 A 
HETATM    7  N6  UNL     1      50.791  16.365  36.087  1.00  0.00    -0.338 N 
HETATM    8  C10 UNL     1      49.827  16.527  35.197  1.00  0.00     0.183 A 
ATOM      9  H6  UNL     1      50.734  15.615  36.775  1.00  0.00     0.168 HD
HETATM   10  N5  UNL     1      49.927  17.519  34.309  1.00  0.00    -0.337 N 
ATOM     11  H5  UNL     1      49.173  17.627  33.631  1.00  0.00     0.168 HD
BRANCH   5  12
HETATM   12  C4  UNL     1      53.110  19.142  35.173  1.00  0.00     0.092 A 
HETATM   13  N2  UNL     1      54.033  19.093  34.198  1.00  0.00    -0.305 N 
HETATM   14  C3  UNL     1      55.108  19.899  34.149  1.00  0.00     0.326 A 
ATOM     15  H2  UNL     1      53.911  18.407  33.453  1.00  0.00     0.171 HD
HETATM   16  N1  UNL     1      55.266  20.802  35.133  1.00  0.00    -0.287 N 
HETATM   17  O2  UNL     1      55.965  19.827  33.208  1.00  0.00    -0.247 OA
HETATM   18  C2  UNL     1      54.412  20.942  36.158  1.00  0.00     0.182 A 
ATOM     19  H1  UNL     1      56.081  21.414  35.099  1.00  0.00     0.172 HD
HETATM   20  C12 UNL     1      53.305  20.084  36.170  1.00  0.00     0.147 A 
BRANCH  18  21
HETATM   21  O1  UNL     1      54.597  21.882  37.162  1.00  0.00    -0.339 OA
HETATM   22  C1  UNL     1      55.567  21.650  38.166  1.00  0.00     0.211 C 
ENDBRANCH  18  21
BRANCH  20  23
HETATM   23  O4  UNL     1      52.440  20.246  37.233  1.00  0.00    -0.350 OA
HETATM   24  C13 UNL     1      51.295  21.040  37.272  1.00  0.00     0.210 C 
ENDBRANCH  20  23
ENDBRANCH   5  12
BRANCH   6  25
HETATM   25  N7  UNL     1      52.774  17.011  36.945  1.00  0.00    -0.385 N 
ATOM     26  H72 UNL     1      53.597  17.613  36.908  1.00  0.00     0.157 HD
ATOM     27  H71 UNL     1      52.660  16.278  37.646  1.00  0.00     0.157 HD
ENDBRANCH   6  25
ENDBRANCH   1   4
BRANCH   1  28
HETATM   28  C8  UNL     1      51.179  19.006  31.867  1.00  0.00     0.232 C 
HETATM   29  C9  UNL     1      51.361  20.145  30.923  1.00  0.00     0.064 C 
BRANCH  28  30
HETATM   30  O3  UNL     1      50.240  18.084  31.388  1.00  0.00    -0.376 OA
ATOM     31  H3  UNL     1      50.642  17.255  31.158  1.00  0.00     0.212 HD
ENDBRANCH  28  30
ENDBRANCH   1  28
TORSDOF 7
ENDMDL
MODEL 5
REMARK VINA RESULT: -5.948045712      1.547      3.104
REMARK  7 active torsions:
REMARK  status: ('A' for Active; 'I' for Inactive)
REMARK    1  A    between atoms: O1_2  and  C2_3 
REMARK    2  A    between atoms: C4_10  and  C5_11 
REMARK    3  A    between atoms: C6_12  and  N3_13 
REMARK    4  A    between atoms: N3_13  and  C8_16 
REMARK    5  A    between atoms: C8_16  and  O3_18 
REMARK    6  A    between atoms: C11_25  and  N7_26 
REMARK    7  A    between atoms: C12_29  and  O4_30 
ROOT
HETATM    1  N3  UNL     1      52.888  18.844  36.505  1.00  0.00    -0.241 N 
HETATM    2  C7  UNL     1      52.051  19.796  37.066  1.00  0.00     0.188 C 
HETATM    3  N4  UNL     1      51.352  20.609  37.548  1.00  0.00    -0.172 NA
ENDROOT
BRANCH   1   4
HETATM    4  C6  UNL     1      53.769  19.200  35.465  1.00  0.00     0.136 A 
HETATM    5  C5  UNL     1      53.402  19.513  34.185  1.00  0.00     0.082 A 
HETATM    6  C11 UNL     1      54.424  19.816  33.288  1.00  0.00     0.116 A 
HETATM    7  N6  UNL     1      55.722  19.809  33.638  1.00  0.00    -0.338 N 
HETATM    8  C10 UNL     1      56.059  19.504  34.879  1.00  0.00     0.183 A 
ATOM      9  H6  UNL     1      56.441  20.038  32.952  1.00  0.00     0.168 HD
HETATM   10  N5  UNL     1      55.097  19.210  35.757  1.00  0.00    -0.337 N 
ATOM     11  H5  UNL     1      55.377  18.977  36.709  1.00  0.00     0.168 HD
BRANCH   5  12
HETATM   12  C4  UNL     1      52.004  19.537  33.797  1.00  0.00     0.092 A 
HETATM   13  N2  UNL     1      51.280  18.406  33.768  1.00  0.00    -0.305 N 
HETATM   14  C3  UNL     1      49.983  18.361  33.419  1.00  0.00     0.326 A 
ATOM     15  H2  UNL     1      51.741  17.532  34.025  1.00  0.00     0.171 HD
HETATM   16  N1  UNL     1      49.379  19.514  33.079  1.00  0.00    -0.287 N 
HETATM   17  O2  UNL     1      49.324  17.269  33.402  1.00  0.00    -0.247 OA
HETATM   18  C2  UNL     1      49.999  20.703  33.070  1.00  0.00     0.182 A 
ATOM     19  H1  UNL     1      48.395  19.482  32.813  1.00  0.00     0.172 HD
HETATM   20  C12 UNL     1      51.351  20.705  33.441  1.00  0.00     0.147 A 
BRANCH  18  21
HETATM   21  O1  UNL     1      49.356  21.879  32.715  1.00  0.00    -0.339 OA
HETATM   22  C1  UNL     1      49.148  22.178  31.347  1.00  0.00     0.211 C 
ENDBRANCH  18  21
BRANCH  20  23
HETATM   23  O4  UNL     1      51.968  21.939  33.424  1.00  0.00    -0.350 OA
HETATM   24  C13 UNL     1      52.145  22.805  34.501  1.00  0.00     0.210 C 
ENDBRANCH  20  23
ENDBRANCH   5  12
BRANCH   6  25
HETATM   25  N7  UNL     1      54.126  20.102  32.072  1.00  0.00    -0.385 N 
ATOM     26  H72 UNL     1      53.187  19.878  31.741  1.00  0.00     0.157 HD
ATOM     27  H71 UNL     1      54.825  20.550  31.480  1.00  0.00     0.157 HD
ENDBRANCH   6  25
ENDBRANCH   1   4
BRANCH   1  28
HETATM   28  C8  UNL     1      52.857  17.497  37.001  1.00  0.00     0.232 C 
HETATM   29  C9  UNL     1      51.681  16.684  36.578  1.00  0.00     0.064 C 
BRANCH  28  30
HETATM   30  O3  UNL     1      53.045  17.447  38.388  1.00  0.00    -0.376 OA
ATOM     31  H3  UNL     1      52.249  17.655  38.862  1.00  0.00     0.212 HD
ENDBRANCH  28  30
ENDBRANCH   1  28
TORSDOF 7
ENDMDL
