MODEL 1
REMARK VINA RESULT: -7.166304545      0.000      0.000
REMARK  8 active torsions:
REMARK  status: ('A' for Active; 'I' for Inactive)
REMARK    1  A    between atoms: N1_2  and  C2_4 
REMARK    2  A    between atoms: C2_4  and  N2_6 
REMARK    3  A    between atoms: C3_8  and  C4_9 
REMARK    4  A    between atoms: C4_9  and  N3_10 
REMARK       I    between atoms: N3_10  and  C5_12 
REMARK       I    between atoms: C5_12  and  N4_14 
REMARK    5  A    between atoms: N4_14  and  N5_16 
REMARK    6  A    between atoms: N5_16  and  C6_18 
REMARK    7  A    between atoms: C6_18  and  N6_20 
REMARK    8  A    between atoms: N6_20  and  N7_22 
ROOT
HETATM    1  N3  UNL     1       7.190   6.147  92.491  1.00  0.00    -0.337 N 
ATOM      2  H3  UNL     1       7.320   6.569  91.572  1.00  0.00     0.164 HD
HETATM    3  C5  UNL     1       7.058   4.745  92.611  1.00  0.00     0.335 C 
HETATM    4  O1  UNL     1       6.899   4.227  93.739  1.00  0.00    -0.246 OA
HETATM    5  N4  UNL     1       7.107   3.935  91.436  1.00  0.00    -0.249 N 
ATOM      6  H4  UNL     1       7.237   4.364  90.519  1.00  0.00     0.192 HD
ENDROOT
BRANCH   1   7
HETATM    7  C4  UNL     1       7.143   6.975  93.659  1.00  0.00     0.169 C 
BRANCH   7   8
HETATM    8  C3  UNL     1       8.519   7.364  94.037  1.00  0.00     0.083 C 
HETATM    9  N2  UNL     1       9.456   7.546  93.176  1.00  0.00    -0.345 N 
ATOM     10  H2  UNL     1       9.272   7.424  92.181  1.00  0.00     0.167 HD
BRANCH   9  11
HETATM   11  C2  UNL     1      10.750   7.920  93.627  1.00  0.00     0.171 C 
HETATM   12  S1  UNL     1      10.831   8.735  95.035  1.00  0.00    -0.041 SA
BRANCH  11  13
HETATM   13  N1  UNL     1      11.939   7.619  92.920  1.00  0.00    -0.371 N 
HETATM   14  C1  UNL     1      13.141   7.320  93.674  1.00  0.00     0.148 C 
ATOM     15  H1  UNL     1      11.950   7.614  91.900  1.00  0.00     0.161 HD
ENDBRANCH  11  13
ENDBRANCH   9  11
ENDBRANCH   7   8
ENDBRANCH   1   7
BRANCH   5  16
HETATM   16  N5  UNL     1       6.974   2.540  91.558  1.00  0.00    -0.271 N 
ATOM     17  H5  UNL     1       6.223   2.145  92.124  1.00  0.00     0.189 HD
BRANCH  16  18
HETATM   18  C6  UNL     1       7.874   1.698  90.900  1.00  0.00     0.210 C 
HETATM   19  S2  UNL     1       9.387   1.541  91.485  1.00  0.00    -0.038 SA
BRANCH  18  20
HETATM   20  N6  UNL     1       7.511   0.981  89.745  1.00  0.00    -0.214 N 
ATOM     21  H6  UNL     1       7.744  -0.011  89.689  1.00  0.00     0.195 HD
BRANCH  20  22
HETATM   22  N7  UNL     1       6.840   1.580  88.667  1.00  0.00    -0.037 N 
HETATM   23  O2  UNL     1       6.622   2.803  88.670  1.00  0.00    -0.516 OA
HETATM   24  O3  UNL     1       6.416   0.825  87.588  1.00  0.00    -0.516 OA
ENDBRANCH  20  22
ENDBRANCH  18  20
ENDBRANCH  16  18
ENDBRANCH   5  16
TORSDOF 8
ENDMDL
MODEL 2
REMARK VINA RESULT: -7.070308741      1.178      1.372
REMARK  8 active torsions:
REMARK  status: ('A' for Active; 'I' for Inactive)
REMARK    1  A    between atoms: N1_2  and  C2_4 
REMARK    2  A    between atoms: C2_4  and  N2_6 
REMARK    3  A    between atoms: C3_8  and  C4_9 
REMARK    4  A    between atoms: C4_9  and  N3_10 
REMARK       I    between atoms: N3_10  and  C5_12 
REMARK       I    between atoms: C5_12  and  N4_14 
REMARK    5  A    between atoms: N4_14  and  N5_16 
REMARK    6  A    between atoms: N5_16  and  C6_18 
REMARK    7  A    between atoms: C6_18  and  N6_20 
REMARK    8  A    between atoms: N6_20  and  N7_22 
ROOT
HETATM    1  N3  UNL     1       6.816   6.247  93.837  1.00  0.00    -0.337 N 
ATOM      2  H3  UNL     1       6.243   5.688  94.469  1.00  0.00     0.164 HD
HETATM    3  C5  UNL     1       7.243   5.704  92.605  1.00  0.00     0.335 C 
HETATM    4  O1  UNL     1       7.947   6.391  91.830  1.00  0.00    -0.246 OA
HETATM    5  N4  UNL     1       6.865   4.371  92.260  1.00  0.00    -0.249 N 
ATOM      6  H4  UNL     1       6.292   3.816  92.896  1.00  0.00     0.192 HD
ENDROOT
BRANCH   1   7
HETATM    7  C4  UNL     1       7.186   7.582  94.200  1.00  0.00     0.169 C 
BRANCH   7   8
HETATM    8  C3  UNL     1       8.646   7.636  94.438  1.00  0.00     0.083 C 
HETATM    9  N2  UNL     1       9.472   8.146  93.598  1.00  0.00    -0.345 N 
ATOM     10  H2  UNL     1       9.137   8.539  92.718  1.00  0.00     0.167 HD
BRANCH   9  11
HETATM   11  C2  UNL     1      10.859   8.157  93.907  1.00  0.00     0.171 C 
HETATM   12  S1  UNL     1      11.300   8.921  95.275  1.00  0.00    -0.041 SA
BRANCH  11  13
HETATM   13  N1  UNL     1      11.844   7.546  93.094  1.00  0.00    -0.371 N 
HETATM   14  C1  UNL     1      13.196   7.431  93.606  1.00  0.00     0.148 C 
ATOM     15  H1  UNL     1      11.607   7.194  92.166  1.00  0.00     0.161 HD
ENDBRANCH  11  13
ENDBRANCH   9  11
ENDBRANCH   7   8
ENDBRANCH   1   7
BRANCH   5  16
HETATM   16  N5  UNL     1       7.293   3.832  91.033  1.00  0.00    -0.271 N 
ATOM     17  H5  UNL     1       6.913   4.189  90.156  1.00  0.00     0.189 HD
BRANCH  16  18
HETATM   18  C6  UNL     1       8.241   2.805  91.020  1.00  0.00     0.210 C 
HETATM   19  S2  UNL     1       8.901   2.317  92.428  1.00  0.00    -0.038 SA
BRANCH  18  20
HETATM   20  N6  UNL     1       8.642   2.179  89.826  1.00  0.00    -0.214 N 
ATOM     21  H6  UNL     1       9.633   1.987  89.680  1.00  0.00     0.195 HD
BRANCH  20  22
HETATM   22  N7  UNL     1       7.727   1.809  88.827  1.00  0.00    -0.037 N 
HETATM   23  O2  UNL     1       7.995   0.878  88.050  1.00  0.00    -0.516 OA
HETATM   24  O3  UNL     1       6.518   2.468  88.693  1.00  0.00    -0.516 OA
ENDBRANCH  20  22
ENDBRANCH  18  20
ENDBRANCH  16  18
ENDBRANCH   5  16
TORSDOF 8
ENDMDL
MODEL 3
REMARK VINA RESULT: -7.030932314      1.610      1.635
REMARK  8 active torsions:
REMARK  status: ('A' for Active; 'I' for Inactive)
REMARK    1  A    between atoms: N1_2  and  C2_4 
REMARK    2  A    between atoms: C2_4  and  N2_6 
REMARK    3  A    between atoms: C3_8  and  C4_9 
REMARK    4  A    between atoms: C4_9  and  N3_10 
REMARK       I    between atoms: N3_10  and  C5_12 
REMARK       I    between atoms: C5_12  and  N4_14 
REMARK    5  A    between atoms: N4_14  and  N5_16 
REMARK    6  A    between atoms: N5_16  and  C6_18 
REMARK    7  A    between atoms: C6_18  and  N6_20 
REMARK    8  A    between atoms: N6_20  and  N7_22 
ROOT
HETATM    1  N3  UNL     1       8.324   6.219  92.164  1.00  0.00    -0.337 N 
ATOM      2  H3  UNL     1       9.205   6.428  91.694  1.00  0.00     0.164 HD
HETATM    3  C5  UNL     1       7.537   5.128  91.735  1.00  0.00     0.335 C 
HETATM    4  O1  UNL     1       6.455   4.873  92.311  1.00  0.00    -0.246 OA
HETATM    5  N4  UNL     1       7.987   4.327  90.642  1.00  0.00    -0.249 N 
ATOM      6  H4  UNL     1       8.870   4.540  90.176  1.00  0.00     0.192 HD
ENDROOT
BRANCH   1   7
HETATM    7  C4  UNL     1       7.887   7.034  93.258  1.00  0.00     0.169 C 
BRANCH   7   8
HETATM    8  C3  UNL     1       9.068   7.542  93.990  1.00  0.00     0.083 C 
HETATM    9  N2  UNL     1      10.214   7.713  93.434  1.00  0.00    -0.345 N 
ATOM     10  H2  UNL     1      10.345   7.497  92.446  1.00  0.00     0.167 HD
BRANCH   9  11
HETATM   11  C2  UNL     1      11.295   8.207  94.211  1.00  0.00     0.171 C 
HETATM   12  S1  UNL     1      12.765   7.570  93.914  1.00  0.00    -0.041 SA
BRANCH  11  13
HETATM   13  N1  UNL     1      11.150   9.202  95.207  1.00  0.00    -0.371 N 
HETATM   14  C1  UNL     1      12.064   9.199  96.333  1.00  0.00     0.148 C 
ATOM     15  H1  UNL     1      10.417   9.907  95.134  1.00  0.00     0.161 HD
ENDBRANCH  11  13
ENDBRANCH   9  11
ENDBRANCH   7   8
ENDBRANCH   1   7
BRANCH   5  16
HETATM   16  N5  UNL     1       7.201   3.241  90.215  1.00  0.00    -0.271 N 
ATOM     17  H5  UNL     1       6.218   3.382  89.982  1.00  0.00     0.189 HD
BRANCH  16  18
HETATM   18  C6  UNL     1       7.772   1.970  90.113  1.00  0.00     0.210 C 
HETATM   19  S2  UNL     1       8.958   1.548  91.147  1.00  0.00    -0.038 SA
BRANCH  18  20
HETATM   20  N6  UNL     1       7.352   1.044  89.141  1.00  0.00    -0.214 N 
ATOM     21  H6  UNL     1       8.059   0.541  88.604  1.00  0.00     0.195 HD
BRANCH  20  22
HETATM   22  N7  UNL     1       5.996   0.785  88.885  1.00  0.00    -0.037 N 
HETATM   23  O2  UNL     1       5.205   1.725  88.707  1.00  0.00    -0.516 OA
HETATM   24  O3  UNL     1       5.521  -0.513  88.825  1.00  0.00    -0.516 OA
ENDBRANCH  20  22
ENDBRANCH  18  20
ENDBRANCH  16  18
ENDBRANCH   5  16
TORSDOF 8
ENDMDL
MODEL 4
REMARK VINA RESULT: -7.023946505      1.217      1.359
REMARK  8 active torsions:
REMARK  status: ('A' for Active; 'I' for Inactive)
REMARK    1  A    between atoms: N1_2  and  C2_4 
REMARK    2  A    between atoms: C2_4  and  N2_6 
REMARK    3  A    between atoms: C3_8  and  C4_9 
REMARK    4  A    between atoms: C4_9  and  N3_10 
REMARK       I    between atoms: N3_10  and  C5_12 
REMARK       I    between atoms: C5_12  and  N4_14 
REMARK    5  A    between atoms: N4_14  and  N5_16 
REMARK    6  A    between atoms: N5_16  and  C6_18 
REMARK    7  A    between atoms: C6_18  and  N6_20 
REMARK    8  A    between atoms: N6_20  and  N7_22 
ROOT
HETATM    1  N3  UNL     1       8.530   6.559  92.187  1.00  0.00    -0.337 N 
ATOM      2  H3  UNL     1       9.381   6.829  91.694  1.00  0.00     0.164 HD
HETATM    3  C5  UNL     1       7.799   5.426  91.766  1.00  0.00     0.335 C 
HETATM    4  O1  UNL     1       6.755   5.095  92.371  1.00  0.00    -0.246 OA
HETATM    5  N4  UNL     1       8.264   4.671  90.646  1.00  0.00    -0.249 N 
ATOM      6  H4  UNL     1       9.116   4.946  90.157  1.00  0.00     0.192 HD
ENDROOT
BRANCH   1   7
HETATM    7  C4  UNL     1       8.078   7.329  93.307  1.00  0.00     0.169 C 
BRANCH   7   8
HETATM    8  C3  UNL     1       9.245   7.751  94.112  1.00  0.00     0.083 C 
HETATM    9  N2  UNL     1      10.454   7.681  93.681  1.00  0.00    -0.345 N 
ATOM     10  H2  UNL     1      10.647   7.322  92.746  1.00  0.00     0.167 HD
BRANCH   9  11
HETATM   11  C2  UNL     1      11.516   8.109  94.521  1.00  0.00     0.171 C 
HETATM   12  S1  UNL     1      11.196   9.333  95.545  1.00  0.00    -0.041 SA
BRANCH  11  13
HETATM   13  N1  UNL     1      12.807   7.528  94.502  1.00  0.00    -0.371 N 
HETATM   14  C1  UNL     1      13.618   7.671  93.308  1.00  0.00     0.148 C 
ATOM     15  H1  UNL     1      13.160   7.020  95.313  1.00  0.00     0.161 HD
ENDBRANCH  11  13
ENDBRANCH   9  11
ENDBRANCH   7   8
ENDBRANCH   1   7
BRANCH   5  16
HETATM   16  N5  UNL     1       7.534   3.544  90.227  1.00  0.00    -0.271 N 
ATOM     17  H5  UNL     1       6.537   3.624  90.029  1.00  0.00     0.189 HD
BRANCH  16  18
HETATM   18  C6  UNL     1       8.181   2.314  90.081  1.00  0.00     0.210 C 
HETATM   19  S2  UNL     1       9.283   1.861  91.193  1.00  0.00    -0.038 SA
BRANCH  18  20
HETATM   20  N6  UNL     1       7.908   1.454  89.002  1.00  0.00    -0.214 N 
ATOM     21  H6  UNL     1       8.689   1.007  88.520  1.00  0.00     0.195 HD
BRANCH  20  22
HETATM   22  N7  UNL     1       6.600   1.189  88.564  1.00  0.00    -0.037 N 
HETATM   23  O2  UNL     1       6.387   0.912  87.373  1.00  0.00    -0.516 OA
HETATM   24  O3  UNL     1       5.535   1.230  89.446  1.00  0.00    -0.516 OA
ENDBRANCH  20  22
ENDBRANCH  18  20
ENDBRANCH  16  18
ENDBRANCH   5  16
TORSDOF 8
ENDMDL
MODEL 5
REMARK VINA RESULT: -7.018550935      1.313      1.489
REMARK  8 active torsions:
REMARK  status: ('A' for Active; 'I' for Inactive)
REMARK    1  A    between atoms: N1_2  and  C2_4 
REMARK    2  A    between atoms: C2_4  and  N2_6 
REMARK    3  A    between atoms: C3_8  and  C4_9 
REMARK    4  A    between atoms: C4_9  and  N3_10 
REMARK       I    between atoms: N3_10  and  C5_12 
REMARK       I    between atoms: C5_12  and  N4_14 
REMARK    5  A    between atoms: N4_14  and  N5_16 
REMARK    6  A    between atoms: N5_16  and  C6_18 
REMARK    7  A    between atoms: C6_18  and  N6_20 
REMARK    8  A    between atoms: N6_20  and  N7_22 
ROOT
HETATM    1  N3  UNL     1       7.218   6.450  92.748  1.00  0.00    -0.337 N 
ATOM      2  H3  UNL     1       7.360   6.937  91.864  1.00  0.00     0.164 HD
HETATM    3  C5  UNL     1       7.114   5.041  92.770  1.00  0.00     0.335 C 
HETATM    4  O1  UNL     1       6.939   4.444  93.855  1.00  0.00    -0.246 OA
HETATM    5  N4  UNL     1       7.208   4.315  91.544  1.00  0.00    -0.249 N 
ATOM      6  H4  UNL     1       7.351   4.807  90.662  1.00  0.00     0.192 HD
ENDROOT
BRANCH   1   7
HETATM    7  C4  UNL     1       7.125   7.195  93.968  1.00  0.00     0.169 C 
BRANCH   7   8
HETATM    8  C3  UNL     1       8.483   7.585  94.407  1.00  0.00     0.083 C 
HETATM    9  N2  UNL     1       9.450   7.793  93.586  1.00  0.00    -0.345 N 
ATOM     10  H2  UNL     1       9.304   7.691  92.582  1.00  0.00     0.167 HD
BRANCH   9  11
HETATM   11  C2  UNL     1      10.723   8.165  94.093  1.00  0.00     0.171 C 
HETATM   12  S1  UNL     1      12.023   7.487  93.384  1.00  0.00    -0.041 SA
BRANCH  11  13
HETATM   13  N1  UNL     1      10.901   9.076  95.162  1.00  0.00    -0.371 N 
HETATM   14  C1  UNL     1      12.028   8.890  96.056  1.00  0.00     0.148 C 
ATOM     15  H1  UNL     1      10.250   9.849  95.300  1.00  0.00     0.161 HD
ENDBRANCH  11  13
ENDBRANCH   9  11
ENDBRANCH   7   8
ENDBRANCH   1   7
BRANCH   5  16
HETATM   16  N5  UNL     1       7.103   2.912  91.567  1.00  0.00    -0.271 N 
ATOM     17  H5  UNL     1       6.214   2.469  91.799  1.00  0.00     0.189 HD
BRANCH  16  18
HETATM   18  C6  UNL     1       8.221   2.128  91.270  1.00  0.00     0.210 C 
HETATM   19  S2  UNL     1       9.058   1.445  92.491  1.00  0.00    -0.038 SA
BRANCH  18  20
HETATM   20  N6  UNL     1       8.646   1.911  89.947  1.00  0.00    -0.214 N 
ATOM     21  H6  UNL     1       9.645   1.830  89.759  1.00  0.00     0.195 HD
BRANCH  20  22
HETATM   22  N7  UNL     1       7.744   1.803  88.876  1.00  0.00    -0.037 N 
HETATM   23  O2  UNL     1       7.907   0.927  88.011  1.00  0.00    -0.516 OA
HETATM   24  O3  UNL     1       6.665   2.662  88.768  1.00  0.00    -0.516 OA
ENDBRANCH  20  22
ENDBRANCH  18  20
ENDBRANCH  16  18
ENDBRANCH   5  16
TORSDOF 8
ENDMDL
