MODEL 1
REMARK VINA RESULT: -8.757822013      0.000      0.000
REMARK  8 active torsions:
REMARK  status: ('A' for Active; 'I' for Inactive)
REMARK    1  A    between atoms: N1_1  and  C1_4 
REMARK    2  A    between atoms: C4_9  and  N3_10 
REMARK    3  A    between atoms: N3_10  and  N4_12 
REMARK    4  A    between atoms: N4_12  and  C5_14 
REMARK    5  A    between atoms: C8_17  and  C9_18 
REMARK       I    between atoms: C9_18  and  N5_20 
REMARK    6  A    between atoms: N5_20  and  C10_22 
REMARK    7  A    between atoms: C10_22  and  C11_23 
REMARK    8  A    between atoms: C10_22  and  C12_25 
ROOT
HETATM    1  C5  UNL     1       8.900   7.835  13.470  1.00  0.00     0.063 A 
HETATM    2  C6  UNL     1       8.575   6.509  13.276  1.00  0.00     0.035 A 
HETATM    3  C7  UNL     1       9.299   5.701  12.411  1.00  0.00     0.037 A 
HETATM    4  C8  UNL     1      10.370   6.232  11.727  1.00  0.00     0.100 A 
HETATM    5  N6  UNL     1      10.681   7.531  11.926  1.00  0.00    -0.359 N 
ATOM      6  H6  UNL     1      11.474   7.928  11.422  1.00  0.00     0.165 HD
HETATM    7  C13 UNL     1       9.977   8.329  12.769  1.00  0.00     0.119 A 
ENDROOT
BRANCH   1   8
HETATM    8  N4  UNL     1       8.173   8.680  14.349  1.00  0.00    -0.298 N 
ATOM      9  H4  UNL     1       7.180   8.516  14.517  1.00  0.00     0.187 HD
BRANCH   8  10
HETATM   10  N3  UNL     1       8.830   9.737  14.983  1.00  0.00    -0.284 N 
ATOM     11  H3  UNL     1       8.511  10.688  14.799  1.00  0.00     0.188 HD
BRANCH  10  12
HETATM   12  C4  UNL     1       9.919   9.546  15.870  1.00  0.00     0.137 A 
HETATM   13  C3  UNL     1       9.674   9.394  17.218  1.00  0.00     0.137 A 
HETATM   14  N2  UNL     1      10.729   9.212  18.044  1.00  0.00    -0.368 N 
HETATM   15  C2  UNL     1      11.981   9.183  17.553  1.00  0.00     0.136 A 
ATOM     16  H2  UNL     1      10.575   9.097  19.046  1.00  0.00     0.164 HD
HETATM   17  C1  UNL     1      12.218   9.337  16.197  1.00  0.00     0.116 A 
HETATM   18  N7  UNL     1      11.160   9.520  15.356  1.00  0.00    -0.326 N 
ATOM     19  H7  UNL     1      11.309   9.635  14.353  1.00  0.00     0.169 HD
BRANCH  17  20
HETATM   20  N1  UNL     1      13.409   9.307  15.748  1.00  0.00    -0.384 N 
ATOM     21  H12 UNL     1      14.081   8.625  16.100  1.00  0.00     0.157 HD
ATOM     22  H11 UNL     1      13.701   9.967  15.028  1.00  0.00     0.157 HD
ENDBRANCH  17  20
ENDBRANCH  10  12
ENDBRANCH   8  10
ENDBRANCH   1   8
BRANCH   4  23
HETATM   23  C9  UNL     1      11.152   5.413  10.813  1.00  0.00     0.269 C 
HETATM   24  O1  UNL     1      11.985   4.598  11.284  1.00  0.00    -0.266 OA
HETATM   25  N5  UNL     1      11.014   5.491   9.405  1.00  0.00    -0.336 N 
ATOM     26  H5  UNL     1      10.340   6.150   9.017  1.00  0.00     0.164 HD
BRANCH  25  27
HETATM   27  C10 UNL     1      11.785   4.681   8.498  1.00  0.00     0.247 C 
BRANCH  27  28
HETATM   28  C11 UNL     1      10.953   4.139   7.388  1.00  0.00     0.267 C 
HETATM   29  O2  UNL     1      11.450   3.282   6.679  1.00  0.00    -0.304 OA
ENDBRANCH  27  28
BRANCH  27  30
HETATM   30  C12 UNL     1      12.837   5.533   7.888  1.00  0.00     0.203 C 
HETATM   31  O3  UNL     1      14.033   5.481   8.274  1.00  0.00    -0.646 OA
HETATM   32  O4  UNL     1      12.482   6.417   6.857  1.00  0.00    -0.646 OA
ENDBRANCH  27  30
ENDBRANCH  25  27
ENDBRANCH   4  23
TORSDOF 8
ENDMDL
MODEL 2
REMARK VINA RESULT: -8.684317435      1.263      1.532
REMARK  8 active torsions:
REMARK  status: ('A' for Active; 'I' for Inactive)
REMARK    1  A    between atoms: N1_1  and  C1_4 
REMARK    2  A    between atoms: C4_9  and  N3_10 
REMARK    3  A    between atoms: N3_10  and  N4_12 
REMARK    4  A    between atoms: N4_12  and  C5_14 
REMARK    5  A    between atoms: C8_17  and  C9_18 
REMARK       I    between atoms: C9_18  and  N5_20 
REMARK    6  A    between atoms: N5_20  and  C10_22 
REMARK    7  A    between atoms: C10_22  and  C11_23 
REMARK    8  A    between atoms: C10_22  and  C12_25 
ROOT
HETATM    1  C5  UNL     1       9.618   7.993  13.235  1.00  0.00     0.063 A 
HETATM    2  C6  UNL     1       9.067   6.730  13.209  1.00  0.00     0.035 A 
HETATM    3  C7  UNL     1       9.548   5.744  12.359  1.00  0.00     0.037 A 
HETATM    4  C8  UNL     1      10.601   6.030  11.519  1.00  0.00     0.100 A 
HETATM    5  N6  UNL     1      11.134   7.270  11.553  1.00  0.00    -0.359 N 
ATOM      6  H6  UNL     1      11.915   7.485  10.933  1.00  0.00     0.165 HD
HETATM    7  C13 UNL     1      10.670   8.240  12.381  1.00  0.00     0.119 A 
ENDROOT
BRANCH   1   8
HETATM    8  N4  UNL     1       9.143   9.018  14.095  1.00  0.00    -0.298 N 
ATOM      9  H4  UNL     1       8.298   9.538  13.858  1.00  0.00     0.187 HD
BRANCH   8  10
HETATM   10  N3  UNL     1       9.842   9.307  15.268  1.00  0.00    -0.284 N 
ATOM     11  H3  UNL     1       9.317   9.626  16.082  1.00  0.00     0.188 HD
BRANCH  10  12
HETATM   12  C4  UNL     1      11.250   9.177  15.378  1.00  0.00     0.137 A 
HETATM   13  C3  UNL     1      11.776   8.179  16.170  1.00  0.00     0.137 A 
HETATM   14  N2  UNL     1      13.122   8.075  16.258  1.00  0.00    -0.368 N 
HETATM   15  C2  UNL     1      13.917   8.927  15.586  1.00  0.00     0.136 A 
ATOM     16  H2  UNL     1      13.537   7.345  16.837  1.00  0.00     0.164 HD
HETATM   17  C1  UNL     1      13.378   9.926  14.792  1.00  0.00     0.116 A 
HETATM   18  N7  UNL     1      12.023  10.039  14.697  1.00  0.00    -0.326 N 
ATOM     19  H7  UNL     1      11.602  10.767  14.118  1.00  0.00     0.169 HD
BRANCH  17  20
HETATM   20  N1  UNL     1      14.144  10.725  14.163  1.00  0.00    -0.384 N 
ATOM     21  H12 UNL     1      15.132  10.799  14.404  1.00  0.00     0.157 HD
ATOM     22  H11 UNL     1      13.773  11.301  13.406  1.00  0.00     0.157 HD
ENDBRANCH  17  20
ENDBRANCH  10  12
ENDBRANCH   8  10
ENDBRANCH   1   8
BRANCH   4  23
HETATM   23  C9  UNL     1      11.131   5.018  10.615  1.00  0.00     0.269 C 
HETATM   24  O1  UNL     1      11.516   3.920  11.088  1.00  0.00    -0.266 OA
HETATM   25  N5  UNL     1      11.231   5.217   9.216  1.00  0.00    -0.336 N 
ATOM     26  H5  UNL     1      10.919   6.107   8.827  1.00  0.00     0.164 HD
BRANCH  25  27
HETATM   27  C10 UNL     1      11.753   4.219   8.320  1.00  0.00     0.247 C 
BRANCH  27  28
HETATM   28  C11 UNL     1      10.921   4.080   7.092  1.00  0.00     0.267 C 
HETATM   29  O2  UNL     1      10.970   4.981   6.275  1.00  0.00    -0.304 OA
ENDBRANCH  27  28
BRANCH  27  30
HETATM   30  C12 UNL     1      13.110   4.640   7.890  1.00  0.00     0.203 C 
HETATM   31  O3  UNL     1      13.610   5.732   8.264  1.00  0.00    -0.646 OA
HETATM   32  O4  UNL     1      13.848   3.795   7.047  1.00  0.00    -0.646 OA
ENDBRANCH  27  30
ENDBRANCH  25  27
ENDBRANCH   4  23
TORSDOF 8
ENDMDL
MODEL 3
REMARK VINA RESULT: -8.358027759      3.538      8.943
REMARK  8 active torsions:
REMARK  status: ('A' for Active; 'I' for Inactive)
REMARK    1  A    between atoms: N1_1  and  C1_4 
REMARK    2  A    between atoms: C4_9  and  N3_10 
REMARK    3  A    between atoms: N3_10  and  N4_12 
REMARK    4  A    between atoms: N4_12  and  C5_14 
REMARK    5  A    between atoms: C8_17  and  C9_18 
REMARK       I    between atoms: C9_18  and  N5_20 
REMARK    6  A    between atoms: N5_20  and  C10_22 
REMARK    7  A    between atoms: C10_22  and  C11_23 
REMARK    8  A    between atoms: C10_22  and  C12_25 
ROOT
HETATM    1  C5  UNL     1      10.914   4.812  10.531  1.00  0.00     0.063 A 
HETATM    2  C6  UNL     1      10.559   4.670  11.855  1.00  0.00     0.035 A 
HETATM    3  C7  UNL     1      10.536   5.753  12.723  1.00  0.00     0.037 A 
HETATM    4  C8  UNL     1      10.876   7.002  12.254  1.00  0.00     0.100 A 
HETATM    5  N6  UNL     1      11.221   7.131  10.955  1.00  0.00    -0.359 N 
ATOM      6  H6  UNL     1      11.472   8.055  10.604  1.00  0.00     0.165 HD
HETATM    7  C13 UNL     1      11.247   6.077  10.100  1.00  0.00     0.119 A 
ENDROOT
BRANCH   1   8
HETATM    8  N4  UNL     1      10.945   3.720   9.625  1.00  0.00    -0.298 N 
ATOM      9  H4  UNL     1      11.269   2.803   9.935  1.00  0.00     0.187 HD
BRANCH   8  10
HETATM   10  N3  UNL     1      10.527   3.910   8.307  1.00  0.00    -0.284 N 
ATOM     11  H3  UNL     1       9.600   4.301   8.141  1.00  0.00     0.188 HD
BRANCH  10  12
HETATM   12  C4  UNL     1      11.335   3.583   7.188  1.00  0.00     0.137 A 
HETATM   13  C3  UNL     1      11.086   4.188   5.975  1.00  0.00     0.137 A 
HETATM   14  N2  UNL     1      11.871   3.861   4.923  1.00  0.00    -0.368 N 
HETATM   15  C2  UNL     1      12.866   2.967   5.068  1.00  0.00     0.136 A 
ATOM     16  H2  UNL     1      11.708   4.295   4.015  1.00  0.00     0.164 HD
HETATM   17  C1  UNL     1      13.109   2.365   6.292  1.00  0.00     0.116 A 
HETATM   18  N7  UNL     1      12.323   2.689   7.358  1.00  0.00    -0.326 N 
ATOM     19  H7  UNL     1      12.483   2.258   8.269  1.00  0.00     0.169 HD
BRANCH  17  20
HETATM   20  N1  UNL     1      14.054   1.520   6.412  1.00  0.00    -0.384 N 
ATOM     21  H12 UNL     1      14.694   1.340   5.638  1.00  0.00     0.157 HD
ATOM     22  H11 UNL     1      14.181   1.015   7.289  1.00  0.00     0.157 HD
ENDBRANCH  17  20
ENDBRANCH  10  12
ENDBRANCH   8  10
ENDBRANCH   1   8
BRANCH   4  23
HETATM   23  C9  UNL     1      10.862   8.160  13.137  1.00  0.00     0.269 C 
HETATM   24  O1  UNL     1      10.636   9.296  12.650  1.00  0.00    -0.266 OA
HETATM   25  N5  UNL     1      11.092   8.063  14.532  1.00  0.00    -0.336 N 
ATOM     26  H5  UNL     1      11.276   7.144  14.933  1.00  0.00     0.164 HD
BRANCH  25  27
HETATM   27  C10 UNL     1      11.078   9.206  15.408  1.00  0.00     0.247 C 
BRANCH  27  28
HETATM   28  C11 UNL     1       9.770   9.359  16.104  1.00  0.00     0.267 C 
HETATM   29  O2  UNL     1       8.879   9.934  15.506  1.00  0.00    -0.304 OA
ENDBRANCH  27  28
BRANCH  27  30
HETATM   30  C12 UNL     1      12.115   9.008  16.451  1.00  0.00     0.203 C 
HETATM   31  O3  UNL     1      13.328   8.851  16.153  1.00  0.00    -0.646 OA
HETATM   32  O4  UNL     1      11.729   8.998  17.800  1.00  0.00    -0.646 OA
ENDBRANCH  27  30
ENDBRANCH  25  27
ENDBRANCH   4  23
TORSDOF 8
ENDMDL
MODEL 4
REMARK VINA RESULT: -8.330862260      3.784      9.181
REMARK  8 active torsions:
REMARK  status: ('A' for Active; 'I' for Inactive)
REMARK    1  A    between atoms: N1_1  and  C1_4 
REMARK    2  A    between atoms: C4_9  and  N3_10 
REMARK    3  A    between atoms: N3_10  and  N4_12 
REMARK    4  A    between atoms: N4_12  and  C5_14 
REMARK    5  A    between atoms: C8_17  and  C9_18 
REMARK       I    between atoms: C9_18  and  N5_20 
REMARK    6  A    between atoms: N5_20  and  C10_22 
REMARK    7  A    between atoms: C10_22  and  C11_23 
REMARK    8  A    between atoms: C10_22  and  C12_25 
ROOT
HETATM    1  C5  UNL     1      10.952   4.693   8.487  1.00  0.00     0.063 A 
HETATM    2  C6  UNL     1      10.805   3.892   9.599  1.00  0.00     0.035 A 
HETATM    3  C7  UNL     1      10.786   4.423  10.881  1.00  0.00     0.037 A 
HETATM    4  C8  UNL     1      10.916   5.784  11.051  1.00  0.00     0.100 A 
HETATM    5  N6  UNL     1      11.058   6.559   9.955  1.00  0.00    -0.359 N 
ATOM      6  H6  UNL     1      11.153   7.567  10.077  1.00  0.00     0.165 HD
HETATM    7  C13 UNL     1      11.078   6.048   8.698  1.00  0.00     0.119 A 
ENDROOT
BRANCH   1   8
HETATM    8  N4  UNL     1      10.974   4.172   7.167  1.00  0.00    -0.298 N 
ATOM      9  H4  UNL     1      10.118   3.819   6.738  1.00  0.00     0.187 HD
BRANCH   8  10
HETATM   10  N3  UNL     1      12.178   4.147   6.460  1.00  0.00    -0.284 N 
ATOM     11  H3  UNL     1      12.623   5.034   6.224  1.00  0.00     0.188 HD
BRANCH  10  12
HETATM   12  C4  UNL     1      12.810   2.944   6.056  1.00  0.00     0.137 A 
HETATM   13  C3  UNL     1      12.150   2.089   5.200  1.00  0.00     0.137 A 
HETATM   14  N2  UNL     1      12.773   0.947   4.829  1.00  0.00    -0.368 N 
HETATM   15  C2  UNL     1      14.005   0.663   5.289  1.00  0.00     0.136 A 
ATOM     16  H2  UNL     1      12.307   0.298   4.196  1.00  0.00     0.164 HD
HETATM   17  C1  UNL     1      14.660   1.530   6.149  1.00  0.00     0.116 A 
HETATM   18  N7  UNL     1      14.040   2.683   6.528  1.00  0.00    -0.326 N 
ATOM     19  H7  UNL     1      14.502   3.337   7.161  1.00  0.00     0.169 HD
BRANCH  17  20
HETATM   20  N1  UNL     1      15.826   1.246   6.576  1.00  0.00    -0.384 N 
ATOM     21  H12 UNL     1      16.311   0.410   6.250  1.00  0.00     0.157 HD
ATOM     22  H11 UNL     1      16.287   1.857   7.250  1.00  0.00     0.157 HD
ENDBRANCH  17  20
ENDBRANCH  10  12
ENDBRANCH   8  10
ENDBRANCH   1   8
BRANCH   4  23
HETATM   23  C9  UNL     1      10.900   6.374  12.382  1.00  0.00     0.269 C 
HETATM   24  O1  UNL     1      10.923   5.618  13.385  1.00  0.00    -0.266 OA
HETATM   25  N5  UNL     1      10.859   7.774  12.599  1.00  0.00    -0.336 N 
ATOM     26  H5  UNL     1      10.840   8.393  11.789  1.00  0.00     0.164 HD
BRANCH  25  27
HETATM   27  C10 UNL     1      10.844   8.361  13.914  1.00  0.00     0.247 C 
BRANCH  27  28
HETATM   28  C11 UNL     1      12.201   8.792  14.349  1.00  0.00     0.267 C 
HETATM   29  O2  UNL     1      12.816   8.049  15.091  1.00  0.00    -0.304 OA
ENDBRANCH  27  28
BRANCH  27  30
HETATM   30  C12 UNL     1       9.985   9.572  13.875  1.00  0.00     0.203 C 
HETATM   31  O3  UNL     1      10.003  10.361  12.896  1.00  0.00    -0.646 OA
HETATM   32  O4  UNL     1       9.135   9.836  14.959  1.00  0.00    -0.646 OA
ENDBRANCH  27  30
ENDBRANCH  25  27
ENDBRANCH   4  23
TORSDOF 8
ENDMDL
MODEL 5
REMARK VINA RESULT: -8.279644295      1.334      1.793
REMARK  8 active torsions:
REMARK  status: ('A' for Active; 'I' for Inactive)
REMARK    1  A    between atoms: N1_1  and  C1_4 
REMARK    2  A    between atoms: C4_9  and  N3_10 
REMARK    3  A    between atoms: N3_10  and  N4_12 
REMARK    4  A    between atoms: N4_12  and  C5_14 
REMARK    5  A    between atoms: C8_17  and  C9_18 
REMARK       I    between atoms: C9_18  and  N5_20 
REMARK    6  A    between atoms: N5_20  and  C10_22 
REMARK    7  A    between atoms: C10_22  and  C11_23 
REMARK    8  A    between atoms: C10_22  and  C12_25 
ROOT
HETATM    1  C5  UNL     1       9.614   7.834  13.101  1.00  0.00     0.063 A 
HETATM    2  C6  UNL     1       9.112   6.550  13.118  1.00  0.00     0.035 A 
HETATM    3  C7  UNL     1       9.590   5.570  12.260  1.00  0.00     0.037 A 
HETATM    4  C8  UNL     1      10.591   5.883  11.368  1.00  0.00     0.100 A 
HETATM    5  N6  UNL     1      11.076   7.143  11.360  1.00  0.00    -0.359 N 
ATOM      6  H6  UNL     1      11.819   7.378  10.701  1.00  0.00     0.165 HD
HETATM    7  C13 UNL     1      10.614   8.108  12.195  1.00  0.00     0.119 A 
ENDROOT
BRANCH   1   8
HETATM    8  N4  UNL     1       9.140   8.852  13.969  1.00  0.00    -0.298 N 
ATOM      9  H4  UNL     1       8.151   8.898  14.218  1.00  0.00     0.187 HD
BRANCH   8  10
HETATM   10  N3  UNL     1      10.038   9.791  14.479  1.00  0.00    -0.284 N 
ATOM     11  H3  UNL     1       9.730  10.758  14.576  1.00  0.00     0.188 HD
BRANCH  10  12
HETATM   12  C4  UNL     1      11.361   9.459  14.870  1.00  0.00     0.137 A 
HETATM   13  C3  UNL     1      12.417  10.175  14.351  1.00  0.00     0.137 A 
HETATM   14  N2  UNL     1      13.669   9.841  14.739  1.00  0.00    -0.368 N 
HETATM   15  C2  UNL     1      13.866   8.833  15.609  1.00  0.00     0.136 A 
ATOM     16  H2  UNL     1      14.469  10.355  14.370  1.00  0.00     0.164 HD
HETATM   17  C1  UNL     1      12.797   8.120  16.125  1.00  0.00     0.116 A 
HETATM   18  N7  UNL     1      11.531   8.450  15.740  1.00  0.00    -0.326 N 
ATOM     19  H7  UNL     1      10.728   7.939  16.106  1.00  0.00     0.169 HD
BRANCH  17  20
HETATM   20  N1  UNL     1      13.000   7.169  16.947  1.00  0.00    -0.384 N 
ATOM     21  H12 UNL     1      13.090   7.353  17.946  1.00  0.00     0.157 HD
ATOM     22  H11 UNL     1      13.073   6.208  16.611  1.00  0.00     0.157 HD
ENDBRANCH  17  20
ENDBRANCH  10  12
ENDBRANCH   8  10
ENDBRANCH   1   8
BRANCH   4  23
HETATM   23  C9  UNL     1      11.116   4.879  10.454  1.00  0.00     0.269 C 
HETATM   24  O1  UNL     1      11.468   3.762  10.910  1.00  0.00    -0.266 OA
HETATM   25  N5  UNL     1      11.249   5.104   9.061  1.00  0.00    -0.336 N 
ATOM     26  H5  UNL     1      10.966   6.008   8.684  1.00  0.00     0.164 HD
BRANCH  25  27
HETATM   27  C10 UNL     1      11.768   4.113   8.154  1.00  0.00     0.247 C 
BRANCH  27  28
HETATM   28  C11 UNL     1      10.963   4.025   6.904  1.00  0.00     0.267 C 
HETATM   29  O2  UNL     1      11.054   4.945   6.111  1.00  0.00    -0.304 OA
ENDBRANCH  27  28
BRANCH  27  30
HETATM   30  C12 UNL     1      13.146   4.507   7.768  1.00  0.00     0.203 C 
HETATM   31  O3  UNL     1      13.856   3.780   7.027  1.00  0.00    -0.646 OA
HETATM   32  O4  UNL     1      13.664   5.721   8.245  1.00  0.00    -0.646 OA
ENDBRANCH  27  30
ENDBRANCH  25  27
ENDBRANCH   4  23
TORSDOF 8
ENDMDL
