MODEL 1
REMARK VINA RESULT: -7.563107510      0.000      0.000
REMARK  5 active torsions:
REMARK  status: ('A' for Active; 'I' for Inactive)
REMARK    1  A    between atoms: C2_2  and  C3_3 
REMARK    2  A    between atoms: C3_3  and  C4_4 
REMARK    3  A    between atoms: C4_4  and  C5_5 
REMARK    4  A    between atoms: C5_5  and  C6_6 
REMARK    5  A    between atoms: C6_6  and  N1_7 
ROOT
HETATM    1  N1  UNL     1      19.691  26.405   8.829  1.00  0.00    -0.379 N 
HETATM    2  C7  UNL     1      18.380  26.419   8.114  1.00  0.00     0.128 C 
HETATM    3  C8  UNL     1      17.466  26.183   9.323  1.00  0.00     0.068 C 
HETATM    4  C9  UNL     1      18.148  27.148  10.281  1.00  0.00     0.013 A 
HETATM    5  S1  UNL     1      17.932  28.164  11.615  1.00  0.00    -0.086 SA
HETATM    6  C10 UNL     1      19.513  28.792  11.748  1.00  0.00     0.091 A 
HETATM    7  C11 UNL     1      20.107  29.715  12.628  1.00  0.00     0.279 A 
HETATM    8  O1  UNL     1      19.356  30.184  13.511  1.00  0.00    -0.265 OA
HETATM    9  N2  UNL     1      21.394  30.052  12.502  1.00  0.00    -0.259 N 
HETATM   10  C12 UNL     1      21.983  31.001  13.416  1.00  0.00     0.181 C 
HETATM   11  N3  UNL     1      22.038  29.472  11.526  1.00  0.00    -0.280 N 
ATOM     12  H3  UNL     1      23.023  29.719  11.417  1.00  0.00     0.189 HD
HETATM   13  C13 UNL     1      21.541  28.583  10.649  1.00  0.00     0.128 A 
HETATM   14  N4  UNL     1      22.336  28.149   9.738  1.00  0.00    -0.384 N 
ATOM     15  H41 UNL     1      21.958  27.474   9.073  1.00  0.00     0.157 HD
ATOM     16  H42 UNL     1      23.312  28.440   9.685  1.00  0.00     0.157 HD
HETATM   17  C14 UNL     1      20.188  28.180  10.724  1.00  0.00     0.059 A 
HETATM   18  C15 UNL     1      19.478  27.313   9.950  1.00  0.00     0.059 A 
ENDROOT
BRANCH   1  19
HETATM   19  C6  UNL     1      20.756  25.577   8.406  1.00  0.00     0.123 C 
BRANCH  19  20
HETATM   20  C5  UNL     1      20.339  24.391   7.539  1.00  0.00     0.020 C 
BRANCH  20  21
HETATM   21  C4  UNL     1      21.238  23.253   7.946  1.00  0.00     0.002 C 
BRANCH  21  22
HETATM   22  C3  UNL     1      22.428  23.177   7.061  1.00  0.00    -0.000 C 
BRANCH  22  23
HETATM   23  C2  UNL     1      23.686  23.004   7.863  1.00  0.00    -0.005 C 
HETATM   24  C1  UNL     1      24.323  24.372   8.144  1.00  0.00     0.005 C 
ENDBRANCH  22  23
ENDBRANCH  21  22
ENDBRANCH  20  21
ENDBRANCH  19  20
ENDBRANCH   1  19
TORSDOF 5
ENDMDL
MODEL 2
REMARK VINA RESULT: -7.436361441      1.995      2.667
REMARK  5 active torsions:
REMARK  status: ('A' for Active; 'I' for Inactive)
REMARK    1  A    between atoms: C2_2  and  C3_3 
REMARK    2  A    between atoms: C3_3  and  C4_4 
REMARK    3  A    between atoms: C4_4  and  C5_5 
REMARK    4  A    between atoms: C5_5  and  C6_6 
REMARK    5  A    between atoms: C6_6  and  N1_7 
ROOT
HETATM    1  N1  UNL     1      20.271  24.706   7.693  1.00  0.00    -0.379 N 
HETATM    2  C7  UNL     1      19.939  25.085   6.287  1.00  0.00     0.128 C 
HETATM    3  C8  UNL     1      18.414  25.158   6.430  1.00  0.00     0.068 C 
HETATM    4  C9  UNL     1      18.373  25.905   7.755  1.00  0.00     0.013 A 
HETATM    5  S1  UNL     1      17.485  26.973   8.720  1.00  0.00    -0.086 SA
HETATM    6  C10 UNL     1      18.555  27.114  10.041  1.00  0.00     0.091 A 
HETATM    7  C11 UNL     1      18.505  27.845  11.242  1.00  0.00     0.279 A 
HETATM    8  O1  UNL     1      17.476  28.535  11.414  1.00  0.00    -0.265 OA
HETATM    9  N2  UNL     1      19.508  27.787  12.123  1.00  0.00    -0.259 N 
HETATM   10  C12 UNL     1      19.435  28.545  13.348  1.00  0.00     0.181 C 
HETATM   11  N3  UNL     1      20.510  27.019  11.790  1.00  0.00    -0.280 N 
ATOM     12  H3  UNL     1      21.284  26.964  12.453  1.00  0.00     0.189 HD
HETATM   13  C13 UNL     1      20.628  26.293  10.665  1.00  0.00     0.128 A 
HETATM   14  N4  UNL     1      21.714  25.621  10.512  1.00  0.00    -0.384 N 
ATOM     15  H41 UNL     1      21.803  25.070   9.658  1.00  0.00     0.157 HD
ATOM     16  H42 UNL     1      22.452  25.613  11.215  1.00  0.00     0.157 HD
HETATM   17  C14 UNL     1      19.605  26.305   9.690  1.00  0.00     0.059 A 
HETATM   18  C15 UNL     1      19.516  25.665   8.492  1.00  0.00     0.059 A 
ENDROOT
BRANCH   1  19
HETATM   19  C6  UNL     1      21.090  23.592   7.986  1.00  0.00     0.123 C 
BRANCH  19  20
HETATM   20  C5  UNL     1      22.190  23.319   6.962  1.00  0.00     0.020 C 
BRANCH  20  21
HETATM   21  C4  UNL     1      23.417  22.977   7.766  1.00  0.00     0.002 C 
BRANCH  21  22
HETATM   22  C3  UNL     1      24.318  24.153   7.881  1.00  0.00    -0.000 C 
BRANCH  22  23
HETATM   23  C2  UNL     1      25.728  23.724   8.169  1.00  0.00    -0.005 C 
HETATM   24  C1  UNL     1      25.754  22.248   8.589  1.00  0.00     0.005 C 
ENDBRANCH  22  23
ENDBRANCH  21  22
ENDBRANCH  20  21
ENDBRANCH  19  20
ENDBRANCH   1  19
TORSDOF 5
ENDMDL
MODEL 3
REMARK VINA RESULT: -7.425487068      0.999      1.169
REMARK  5 active torsions:
REMARK  status: ('A' for Active; 'I' for Inactive)
REMARK    1  A    between atoms: C2_2  and  C3_3 
REMARK    2  A    between atoms: C3_3  and  C4_4 
REMARK    3  A    between atoms: C4_4  and  C5_5 
REMARK    4  A    between atoms: C5_5  and  C6_6 
REMARK    5  A    between atoms: C6_6  and  N1_7 
ROOT
HETATM    1  N1  UNL     1      19.741  25.467   8.388  1.00  0.00    -0.379 N 
HETATM    2  C7  UNL     1      18.512  25.603   7.552  1.00  0.00     0.128 C 
HETATM    3  C8  UNL     1      17.479  25.665   8.683  1.00  0.00     0.068 C 
HETATM    4  C9  UNL     1      18.238  26.617   9.595  1.00  0.00     0.013 A 
HETATM    5  S1  UNL     1      18.094  27.809  10.786  1.00  0.00    -0.086 SA
HETATM    6  C10 UNL     1      19.743  28.188  11.005  1.00  0.00     0.091 A 
HETATM    7  C11 UNL     1      20.415  29.104  11.835  1.00  0.00     0.279 A 
HETATM    8  O1  UNL     1      19.687  29.791  12.585  1.00  0.00    -0.265 OA
HETATM    9  N2  UNL     1      21.746  29.214  11.800  1.00  0.00    -0.259 N 
HETATM   10  C12 UNL     1      22.413  30.160  12.660  1.00  0.00     0.181 C 
HETATM   11  N3  UNL     1      22.357  28.424  10.959  1.00  0.00    -0.280 N 
ATOM     12  H3  UNL     1      23.374  28.495  10.920  1.00  0.00     0.189 HD
HETATM   13  C13 UNL     1      21.785  27.526  10.137  1.00  0.00     0.128 A 
HETATM   14  N4  UNL     1      22.565  26.863   9.360  1.00  0.00    -0.384 N 
ATOM     15  H41 UNL     1      22.131  26.181   8.737  1.00  0.00     0.157 HD
ATOM     16  H42 UNL     1      23.577  26.986   9.371  1.00  0.00     0.157 HD
HETATM   17  C14 UNL     1      20.382  27.356  10.122  1.00  0.00     0.059 A 
HETATM   18  C15 UNL     1      19.598  26.527   9.380  1.00  0.00     0.059 A 
ENDROOT
BRANCH   1  19
HETATM   19  C6  UNL     1      20.680  24.434   8.162  1.00  0.00     0.123 C 
BRANCH  19  20
HETATM   20  C5  UNL     1      20.858  24.040   6.697  1.00  0.00     0.020 C 
BRANCH  20  21
HETATM   21  C4  UNL     1      22.307  23.653   6.554  1.00  0.00     0.002 C 
BRANCH  21  22
HETATM   22  C3  UNL     1      22.892  23.300   7.872  1.00  0.00    -0.000 C 
BRANCH  22  23
HETATM   23  C2  UNL     1      24.307  23.791   7.982  1.00  0.00    -0.005 C 
HETATM   24  C1  UNL     1      25.244  22.625   8.324  1.00  0.00     0.005 C 
ENDBRANCH  22  23
ENDBRANCH  21  22
ENDBRANCH  20  21
ENDBRANCH  19  20
ENDBRANCH   1  19
TORSDOF 5
ENDMDL
MODEL 4
REMARK VINA RESULT: -7.164209949      1.858      2.370
REMARK  5 active torsions:
REMARK  status: ('A' for Active; 'I' for Inactive)
REMARK    1  A    between atoms: C2_2  and  C3_3 
REMARK    2  A    between atoms: C3_3  and  C4_4 
REMARK    3  A    between atoms: C4_4  and  C5_5 
REMARK    4  A    between atoms: C5_5  and  C6_6 
REMARK    5  A    between atoms: C6_6  and  N1_7 
ROOT
HETATM    1  N1  UNL     1      19.388  26.768   9.474  1.00  0.00    -0.379 N 
HETATM    2  C7  UNL     1      18.180  27.631   9.316  1.00  0.00     0.128 C 
HETATM    3  C8  UNL     1      17.852  27.829  10.801  1.00  0.00     0.068 C 
HETATM    4  C9  UNL     1      19.270  28.088  11.287  1.00  0.00     0.013 A 
HETATM    5  S1  UNL     1      20.219  28.867  12.449  1.00  0.00    -0.086 SA
HETATM    6  C10 UNL     1      21.769  28.432  11.885  1.00  0.00     0.091 A 
HETATM    7  C11 UNL     1      23.070  28.719  12.337  1.00  0.00     0.279 A 
HETATM    8  O1  UNL     1      23.142  29.427  13.366  1.00  0.00    -0.265 OA
HETATM    9  N2  UNL     1      24.141  28.254  11.688  1.00  0.00    -0.259 N 
HETATM   10  C12 UNL     1      25.465  28.560  12.170  1.00  0.00     0.181 C 
HETATM   11  N3  UNL     1      23.891  27.530  10.630  1.00  0.00    -0.280 N 
ATOM     12  H3  UNL     1      24.698  27.167  10.123  1.00  0.00     0.189 HD
HETATM   13  C13 UNL     1      22.680  27.214  10.139  1.00  0.00     0.128 A 
HETATM   14  N4  UNL     1      22.648  26.512   9.063  1.00  0.00    -0.384 N 
ATOM     15  H41 UNL     1      21.729  26.272   8.691  1.00  0.00     0.157 HD
ATOM     16  H42 UNL     1      23.497  26.182   8.604  1.00  0.00     0.157 HD
HETATM   17  C14 UNL     1      21.504  27.672  10.776  1.00  0.00     0.059 A 
HETATM   18  C15 UNL     1      20.193  27.485  10.456  1.00  0.00     0.059 A 
ENDROOT
BRANCH   1  19
HETATM   19  C6  UNL     1      19.509  25.532   8.798  1.00  0.00     0.123 C 
BRANCH  19  20
HETATM   20  C5  UNL     1      18.988  25.535   7.362  1.00  0.00     0.020 C 
BRANCH  20  21
HETATM   21  C4  UNL     1      19.850  24.550   6.615  1.00  0.00     0.002 C 
BRANCH  21  22
HETATM   22  C3  UNL     1      20.814  23.891   7.532  1.00  0.00    -0.000 C 
BRANCH  22  23
HETATM   23  C2  UNL     1      21.937  23.254   6.765  1.00  0.00    -0.005 C 
HETATM   24  C1  UNL     1      23.165  23.087   7.671  1.00  0.00     0.005 C 
ENDBRANCH  22  23
ENDBRANCH  21  22
ENDBRANCH  20  21
ENDBRANCH  19  20
ENDBRANCH   1  19
TORSDOF 5
ENDMDL
MODEL 5
REMARK VINA RESULT: -7.098309143      3.431      6.780
REMARK  5 active torsions:
REMARK  status: ('A' for Active; 'I' for Inactive)
REMARK    1  A    between atoms: C2_2  and  C3_3 
REMARK    2  A    between atoms: C3_3  and  C4_4 
REMARK    3  A    between atoms: C4_4  and  C5_5 
REMARK    4  A    between atoms: C5_5  and  C6_6 
REMARK    5  A    between atoms: C6_6  and  N1_7 
ROOT
HETATM    1  N1  UNL     1      18.469  26.890   9.287  1.00  0.00    -0.379 N 
HETATM    2  C7  UNL     1      17.033  26.632   8.965  1.00  0.00     0.128 C 
HETATM    3  C8  UNL     1      17.122  26.756   7.440  1.00  0.00     0.068 C 
HETATM    4  C9  UNL     1      18.401  25.953   7.248  1.00  0.00     0.013 A 
HETATM    5  S1  UNL     1      19.274  24.965   6.190  1.00  0.00    -0.086 SA
HETATM    6  C10 UNL     1      20.619  24.614   7.178  1.00  0.00     0.091 A 
HETATM    7  C11 UNL     1      21.775  23.835   6.984  1.00  0.00     0.279 A 
HETATM    8  O1  UNL     1      21.873  23.280   5.868  1.00  0.00    -0.265 OA
HETATM    9  N2  UNL     1      22.690  23.714   7.950  1.00  0.00    -0.259 N 
HETATM   10  C12 UNL     1      23.868  22.910   7.729  1.00  0.00     0.181 C 
HETATM   11  N3  UNL     1      22.434  24.358   9.057  1.00  0.00    -0.280 N 
ATOM     12  H3  UNL     1      23.124  24.275   9.804  1.00  0.00     0.189 HD
HETATM   13  C13 UNL     1      21.357  25.119   9.314  1.00  0.00     0.128 A 
HETATM   14  N4  UNL     1      21.277  25.647  10.484  1.00  0.00    -0.384 N 
ATOM     15  H41 UNL     1      20.460  26.224  10.678  1.00  0.00     0.157 HD
ATOM     16  H42 UNL     1      22.004  25.521  11.188  1.00  0.00     0.157 HD
HETATM   17  C14 UNL     1      20.349  25.293   8.338  1.00  0.00     0.059 A 
HETATM   18  C15 UNL     1      19.187  26.000   8.382  1.00  0.00     0.059 A 
ENDROOT
BRANCH   1  19
HETATM   19  C6  UNL     1      18.851  27.869  10.233  1.00  0.00     0.123 C 
BRANCH  19  20
HETATM   20  C5  UNL     1      17.828  28.127  11.337  1.00  0.00     0.020 C 
BRANCH  20  21
HETATM   21  C4  UNL     1      18.627  28.557  12.540  1.00  0.00     0.002 C 
BRANCH  21  22
HETATM   22  C3  UNL     1      17.731  29.005  13.635  1.00  0.00    -0.000 C 
BRANCH  22  23
HETATM   23  C2  UNL     1      16.989  27.845  14.233  1.00  0.00    -0.005 C 
HETATM   24  C1  UNL     1      15.741  28.343  14.976  1.00  0.00     0.005 C 
ENDBRANCH  22  23
ENDBRANCH  21  22
ENDBRANCH  20  21
ENDBRANCH  19  20
ENDBRANCH   1  19
TORSDOF 5
ENDMDL
