MODEL 1
REMARK VINA RESULT: -6.379776774      0.000      0.000
REMARK  7 active torsions:
REMARK  status: ('A' for Active; 'I' for Inactive)
REMARK    1  A    between atoms: C2_2  and  C3_3 
REMARK    2  A    between atoms: C3_3  and  O1_4 
REMARK    3  A    between atoms: C5_8  and  C6_9 
REMARK       I    between atoms: C6_9  and  N1_11 
REMARK    4  A    between atoms: N1_11  and  C7_13 
REMARK    5  A    between atoms: C7_13  and  C8_14 
REMARK    6  A    between atoms: C7_13  and  C9_17 
REMARK    7  A    between atoms: C13_21  and  O6_22 
ROOT
HETATM    1  C3  UNL     1      13.184  15.485  16.933  1.00  0.00     0.104 C 
HETATM    2  C4  UNL     1      13.868  14.594  17.960  1.00  0.00     0.209 C 
HETATM    3  O2  UNL     1      14.369  15.336  19.027  1.00  0.00    -0.373 OA
HETATM    4  C5  UNL     1      15.415  16.107  18.528  1.00  0.00     0.215 C 
HETATM    5  C12 UNL     1      14.956  17.070  17.455  1.00  0.00     0.076 C 
HETATM    6  C13 UNL     1      13.436  16.919  17.352  1.00  0.00     0.157 C 
ENDROOT
BRANCH   4   7
HETATM    7  C6  UNL     1      16.075  16.892  19.582  1.00  0.00     0.247 C 
HETATM    8  O3  UNL     1      15.411  17.705  20.268  1.00  0.00    -0.271 OA
HETATM    9  N1  UNL     1      17.457  16.763  19.854  1.00  0.00    -0.344 N 
ATOM     10  H1  UNL     1      18.010  16.106  19.304  1.00  0.00     0.163 HD
BRANCH   9  11
HETATM   11  C7  UNL     1      18.112  17.533  20.889  1.00  0.00     0.189 C 
BRANCH  11  12
HETATM   12  C8  UNL     1      19.523  17.801  20.552  1.00  0.00     0.197 C 
HETATM   13  O4  UNL     1      19.918  18.964  20.401  1.00  0.00    -0.646 OA
HETATM   14  O5  UNL     1      20.386  16.747  20.408  1.00  0.00    -0.646 OA
ENDBRANCH  11  12
BRANCH  11  15
HETATM   15  C9  UNL     1      18.105  16.827  22.223  1.00  0.00     0.019 A 
HETATM   16  C10 UNL     1      18.368  17.541  23.487  1.00  0.00     0.007 A 
HETATM   17  C11 UNL     1      16.957  17.235  23.133  1.00  0.00     0.007 A 
ENDBRANCH  11  15
ENDBRANCH   9  11
ENDBRANCH   4   7
BRANCH   6  18
HETATM   18  O6  UNL     1      12.967  17.838  16.441  1.00  0.00    -0.392 OA
ATOM     19  H6  UNL     1      13.280  18.718  16.606  1.00  0.00     0.210 HD
ENDBRANCH   6  18
BRANCH   1  20
HETATM   20  C2  UNL     1      11.701  15.184  16.921  1.00  0.00     0.038 C 
HETATM   21  C1  UNL     1      11.158  15.203  18.312  1.00  0.00     0.008 C 
ENDBRANCH   1  20
BRANCH   1  22
HETATM   22  O1  UNL     1      13.746  15.316  15.669  1.00  0.00    -0.385 OA
ATOM     23  H1  UNL     1      13.883  14.397  15.473  1.00  0.00     0.210 HD
ENDBRANCH   1  22
TORSDOF 7
ENDMDL
MODEL 2
REMARK VINA RESULT: -6.226883686      1.837      2.308
REMARK  7 active torsions:
REMARK  status: ('A' for Active; 'I' for Inactive)
REMARK    1  A    between atoms: C2_2  and  C3_3 
REMARK    2  A    between atoms: C3_3  and  O1_4 
REMARK    3  A    between atoms: C5_8  and  C6_9 
REMARK       I    between atoms: C6_9  and  N1_11 
REMARK    4  A    between atoms: N1_11  and  C7_13 
REMARK    5  A    between atoms: C7_13  and  C8_14 
REMARK    6  A    between atoms: C7_13  and  C9_17 
REMARK    7  A    between atoms: C13_21  and  O6_22 
ROOT
HETATM    1  C3  UNL     1      12.288  15.385  16.478  1.00  0.00     0.104 C 
HETATM    2  C4  UNL     1      11.956  15.876  17.881  1.00  0.00     0.209 C 
HETATM    3  O2  UNL     1      12.884  16.815  18.325  1.00  0.00    -0.373 OA
HETATM    4  C5  UNL     1      14.090  16.142  18.501  1.00  0.00     0.215 C 
HETATM    5  C12 UNL     1      14.604  15.541  17.210  1.00  0.00     0.076 C 
HETATM    6  C13 UNL     1      13.633  15.975  16.108  1.00  0.00     0.157 C 
ENDROOT
BRANCH   4   7
HETATM    7  C6  UNL     1      15.142  17.020  19.036  1.00  0.00     0.247 C 
HETATM    8  O3  UNL     1      14.928  17.698  20.069  1.00  0.00    -0.271 OA
HETATM    9  N1  UNL     1      16.409  17.130  18.416  1.00  0.00    -0.344 N 
ATOM     10  H1  UNL     1      16.597  16.584  17.575  1.00  0.00     0.163 HD
BRANCH   9  11
HETATM   11  C7  UNL     1      17.447  17.991  18.938  1.00  0.00     0.189 C 
BRANCH  11  12
HETATM   12  C8  UNL     1      18.201  18.646  17.853  1.00  0.00     0.197 C 
HETATM   13  O4  UNL     1      18.069  19.859  17.644  1.00  0.00    -0.646 OA
HETATM   14  O5  UNL     1      19.047  17.894  17.080  1.00  0.00    -0.646 OA
ENDBRANCH  11  12
BRANCH  11  15
HETATM   15  C9  UNL     1      18.450  17.239  19.779  1.00  0.00     0.019 A 
HETATM   16  C10 UNL     1      19.448  17.935  20.613  1.00  0.00     0.007 A 
HETATM   17  C11 UNL     1      18.236  17.388  21.277  1.00  0.00     0.007 A 
ENDBRANCH  11  15
ENDBRANCH   9  11
ENDBRANCH   4   7
BRANCH   6  18
HETATM   18  O6  UNL     1      14.110  15.515  14.901  1.00  0.00    -0.392 OA
ATOM     19  H6  UNL     1      15.051  15.392  14.896  1.00  0.00     0.210 HD
ENDBRANCH   6  18
BRANCH   1  20
HETATM   20  C2  UNL     1      11.216  15.856  15.520  1.00  0.00     0.038 C 
HETATM   21  C1  UNL     1       9.861  15.534  16.061  1.00  0.00     0.008 C 
ENDBRANCH   1  20
BRANCH   1  22
HETATM   22  O1  UNL     1      12.419  13.998  16.451  1.00  0.00    -0.385 OA
ATOM     23  H1  UNL     1      13.127  13.708  17.013  1.00  0.00     0.210 HD
ENDBRANCH   1  22
TORSDOF 7
ENDMDL
MODEL 3
REMARK VINA RESULT: -6.198070350      1.826      2.913
REMARK  7 active torsions:
REMARK  status: ('A' for Active; 'I' for Inactive)
REMARK    1  A    between atoms: C2_2  and  C3_3 
REMARK    2  A    between atoms: C3_3  and  O1_4 
REMARK    3  A    between atoms: C5_8  and  C6_9 
REMARK       I    between atoms: C6_9  and  N1_11 
REMARK    4  A    between atoms: N1_11  and  C7_13 
REMARK    5  A    between atoms: C7_13  and  C8_14 
REMARK    6  A    between atoms: C7_13  and  C9_17 
REMARK    7  A    between atoms: C13_21  and  O6_22 
ROOT
HETATM    1  C3  UNL     1      12.135  16.594  16.346  1.00  0.00     0.104 C 
HETATM    2  C4  UNL     1      13.537  16.808  15.792  1.00  0.00     0.209 C 
HETATM    3  O2  UNL     1      14.505  16.249  16.622  1.00  0.00    -0.373 OA
HETATM    4  C5  UNL     1      14.511  16.995  17.798  1.00  0.00     0.215 C 
HETATM    5  C12 UNL     1      13.180  16.941  18.517  1.00  0.00     0.076 C 
HETATM    6  C13 UNL     1      12.291  15.980  17.722  1.00  0.00     0.157 C 
ENDROOT
BRANCH   4   7
HETATM    7  C6  UNL     1      15.546  16.540  18.738  1.00  0.00     0.247 C 
HETATM    8  O3  UNL     1      15.984  15.367  18.670  1.00  0.00    -0.271 OA
HETATM    9  N1  UNL     1      16.076  17.393  19.735  1.00  0.00    -0.344 N 
ATOM     10  H1  UNL     1      15.729  18.350  19.802  1.00  0.00     0.163 HD
BRANCH   9  11
HETATM   11  C7  UNL     1      17.094  16.951  20.662  1.00  0.00     0.189 C 
BRANCH  11  12
HETATM   12  C8  UNL     1      16.663  17.127  22.062  1.00  0.00     0.197 C 
HETATM   13  O4  UNL     1      15.483  16.932  22.381  1.00  0.00    -0.646 OA
HETATM   14  O5  UNL     1      17.585  17.511  23.000  1.00  0.00    -0.646 OA
ENDBRANCH  11  12
BRANCH  11  15
HETATM   15  C9  UNL     1      18.388  17.712  20.502  1.00  0.00     0.019 A 
HETATM   16  C10 UNL     1      19.682  17.026  20.328  1.00  0.00     0.007 A 
HETATM   17  C11 UNL     1      19.014  17.583  19.122  1.00  0.00     0.007 A 
ENDBRANCH  11  15
ENDBRANCH   9  11
ENDBRANCH   4   7
BRANCH   6  18
HETATM   18  O6  UNL     1      11.095  15.839  18.388  1.00  0.00    -0.392 OA
ATOM     19  H6  UNL     1      10.730  16.667  18.677  1.00  0.00     0.210 HD
ENDBRANCH   6  18
BRANCH   1  20
HETATM   20  C2  UNL     1      11.374  15.663  15.428  1.00  0.00     0.038 C 
HETATM   21  C1  UNL     1      10.043  16.248  15.086  1.00  0.00     0.008 C 
ENDBRANCH   1  20
BRANCH   1  22
HETATM   22  O1  UNL     1      11.468  17.807  16.504  1.00  0.00    -0.385 OA
ATOM     23  H1  UNL     1      11.317  18.229  15.667  1.00  0.00     0.210 HD
ENDBRANCH   1  22
TORSDOF 7
ENDMDL
MODEL 4
REMARK VINA RESULT: -6.079299692      1.912      3.139
REMARK  7 active torsions:
REMARK  status: ('A' for Active; 'I' for Inactive)
REMARK    1  A    between atoms: C2_2  and  C3_3 
REMARK    2  A    between atoms: C3_3  and  O1_4 
REMARK    3  A    between atoms: C5_8  and  C6_9 
REMARK       I    between atoms: C6_9  and  N1_11 
REMARK    4  A    between atoms: N1_11  and  C7_13 
REMARK    5  A    between atoms: C7_13  and  C8_14 
REMARK    6  A    between atoms: C7_13  and  C9_17 
REMARK    7  A    between atoms: C13_21  and  O6_22 
ROOT
HETATM    1  C3  UNL     1      11.722  16.307  16.405  1.00  0.00     0.104 C 
HETATM    2  C4  UNL     1      12.298  17.568  17.032  1.00  0.00     0.209 C 
HETATM    3  O2  UNL     1      13.611  17.374  17.454  1.00  0.00    -0.373 OA
HETATM    4  C5  UNL     1      13.566  16.481  18.522  1.00  0.00     0.215 C 
HETATM    5  C12 UNL     1      12.993  15.139  18.121  1.00  0.00     0.076 C 
HETATM    6  C13 UNL     1      12.739  15.203  16.612  1.00  0.00     0.157 C 
ENDROOT
BRANCH   4   7
HETATM    7  C6  UNL     1      14.896  16.244  19.103  1.00  0.00     0.247 C 
HETATM    8  O3  UNL     1      15.583  15.267  18.721  1.00  0.00    -0.271 OA
HETATM    9  N1  UNL     1      15.438  17.094  20.096  1.00  0.00    -0.344 N 
ATOM     10  H1  UNL     1      14.890  17.892  20.416  1.00  0.00     0.163 HD
BRANCH   9  11
HETATM   11  C7  UNL     1      16.746  16.866  20.671  1.00  0.00     0.189 C 
BRANCH  11  12
HETATM   12  C8  UNL     1      16.730  17.048  22.135  1.00  0.00     0.197 C 
HETATM   13  O4  UNL     1      15.675  16.920  22.769  1.00  0.00    -0.646 OA
HETATM   14  O5  UNL     1      17.898  17.362  22.780  1.00  0.00    -0.646 OA
ENDBRANCH  11  12
BRANCH  11  15
HETATM   15  C9  UNL     1      17.789  17.809  20.122  1.00  0.00     0.019 A 
HETATM   16  C10 UNL     1      19.188  17.392  19.916  1.00  0.00     0.007 A 
HETATM   17  C11 UNL     1      18.287  17.438  18.734  1.00  0.00     0.007 A 
ENDBRANCH  11  15
ENDBRANCH   9  11
ENDBRANCH   4   7
BRANCH   6  18
HETATM   18  O6  UNL     1      12.291  13.971  16.192  1.00  0.00    -0.392 OA
ATOM     19  H6  UNL     1      11.448  14.010  15.758  1.00  0.00     0.210 HD
ENDBRANCH   6  18
BRANCH   1  20
HETATM   20  C2  UNL     1      11.486  16.547  14.930  1.00  0.00     0.038 C 
HETATM   21  C1  UNL     1      10.061  16.923  14.688  1.00  0.00     0.008 C 
ENDBRANCH   1  20
BRANCH   1  22
HETATM   22  O1  UNL     1      10.549  15.918  17.049  1.00  0.00    -0.385 OA
ATOM     23  H1  UNL     1      10.397  14.985  16.956  1.00  0.00     0.210 HD
ENDBRANCH   1  22
TORSDOF 7
ENDMDL
MODEL 5
REMARK VINA RESULT: -5.980810359      1.110      1.329
REMARK  7 active torsions:
REMARK  status: ('A' for Active; 'I' for Inactive)
REMARK    1  A    between atoms: C2_2  and  C3_3 
REMARK    2  A    between atoms: C3_3  and  O1_4 
REMARK    3  A    between atoms: C5_8  and  C6_9 
REMARK       I    between atoms: C6_9  and  N1_11 
REMARK    4  A    between atoms: N1_11  and  C7_13 
REMARK    5  A    between atoms: C7_13  and  C8_14 
REMARK    6  A    between atoms: C7_13  and  C9_17 
REMARK    7  A    between atoms: C13_21  and  O6_22 
ROOT
HETATM    1  C3  UNL     1      13.600  16.409  16.454  1.00  0.00     0.104 C 
HETATM    2  C4  UNL     1      14.722  15.495  16.925  1.00  0.00     0.209 C 
HETATM    3  O2  UNL     1      15.372  16.018  18.041  1.00  0.00    -0.373 OA
HETATM    4  C5  UNL     1      16.048  17.160  17.618  1.00  0.00     0.215 C 
HETATM    5  C12 UNL     1      15.107  18.215  17.079  1.00  0.00     0.076 C 
HETATM    6  C13 UNL     1      13.686  17.678  17.277  1.00  0.00     0.157 C 
ENDROOT
BRANCH   4   7
HETATM    7  C6  UNL     1      16.833  17.771  18.700  1.00  0.00     0.247 C 
HETATM    8  O3  UNL     1      17.121  18.991  18.656  1.00  0.00    -0.271 OA
HETATM    9  N1  UNL     1      17.285  17.020  19.811  1.00  0.00    -0.344 N 
ATOM     10  H1  UNL     1      17.059  16.026  19.860  1.00  0.00     0.163 HD
BRANCH   9  11
HETATM   11  C7  UNL     1      18.058  17.616  20.878  1.00  0.00     0.189 C 
BRANCH  11  12
HETATM   12  C8  UNL     1      19.490  17.690  20.531  1.00  0.00     0.197 C 
HETATM   13  O4  UNL     1      20.147  16.653  20.366  1.00  0.00    -0.646 OA
HETATM   14  O5  UNL     1      20.082  18.918  20.398  1.00  0.00    -0.646 OA
ENDBRANCH  11  12
BRANCH  11  15
HETATM   15  C9  UNL     1      17.958  16.836  22.167  1.00  0.00     0.019 A 
HETATM   16  C10 UNL     1      18.220  17.456  23.478  1.00  0.00     0.007 A 
HETATM   17  C11 UNL     1      16.806  17.265  23.061  1.00  0.00     0.007 A 
ENDBRANCH  11  15
ENDBRANCH   9  11
ENDBRANCH   4   7
BRANCH   6  18
HETATM   18  O6  UNL     1      12.794  18.645  16.872  1.00  0.00    -0.392 OA
ATOM     19  H6  UNL     1      13.214  19.390  16.460  1.00  0.00     0.210 HD
ENDBRANCH   6  18
BRANCH   1  20
HETATM   20  C2  UNL     1      12.271  15.719  16.674  1.00  0.00     0.038 C 
HETATM   21  C1  UNL     1      12.041  15.492  18.132  1.00  0.00     0.008 C 
ENDBRANCH   1  20
BRANCH   1  22
HETATM   22  O1  UNL     1      13.771  16.766  15.118  1.00  0.00    -0.385 OA
ATOM     23  H1  UNL     1      13.254  17.530  14.896  1.00  0.00     0.210 HD
ENDBRANCH   1  22
TORSDOF 7
ENDMDL
