MODEL 1
REMARK VINA RESULT: -8.018809451      0.000      0.000
REMARK  6 active torsions:
REMARK  status: ('A' for Active; 'I' for Inactive)
REMARK    1  A    between atoms: C10_10  and  C11_11 
REMARK    2  A    between atoms: C11_11  and  C12_12 
REMARK    3  A    between atoms: C12_12  and  O2_14 
REMARK    4  A    between atoms: O2_14  and  C13_15 
REMARK    5  A    between atoms: C13_15  and  C14_16 
REMARK       I    between atoms: C14_16  and  N1_18 
REMARK    6  A    between atoms: N1_18  and  C15_20 
ROOT
HETATM    1  C12 UNL     1       6.832  24.444  -3.977  1.00  0.00     0.259 C 
HETATM    2  O1  UNL     1       6.446  24.483  -2.762  1.00  0.00    -0.265 OA
ENDROOT
BRANCH   1   3
HETATM    3  C11 UNL     1       7.208  23.161  -4.620  1.00  0.00     0.116 C 
BRANCH   3   4
HETATM    4  C10 UNL     1       6.242  22.092  -4.303  1.00  0.00     0.004 C 
HETATM    5  C5  UNL     1       4.816  22.323  -4.651  1.00  0.00    -0.009 C 
HETATM    6  C4  UNL     1       4.207  20.910  -4.621  1.00  0.00     0.014 C 
HETATM    7  C6  UNL     1       4.722  22.774  -6.082  1.00  0.00     0.005 C 
HETATM    8  C2  UNL     1       5.352  19.949  -4.567  1.00  0.00    -0.043 C 
HETATM    9  C1  UNL     1       5.151  18.726  -5.424  1.00  0.00     0.015 C 
HETATM   10  C3  UNL     1       5.694  19.527  -3.161  1.00  0.00     0.015 C 
HETATM   11  C9  UNL     1       6.508  20.802  -5.080  1.00  0.00    -0.002 C 
HETATM   12  C8  UNL     1       6.458  21.005  -6.561  1.00  0.00     0.006 C 
HETATM   13  C7  UNL     1       5.402  21.902  -7.058  1.00  0.00     0.001 C 
ENDBRANCH   3   4
ENDBRANCH   1   3
BRANCH   1  14
HETATM   14  O2  UNL     1       6.862  25.676  -4.609  1.00  0.00    -0.312 OA
BRANCH  14  15
HETATM   15  C13 UNL     1       8.061  26.403  -4.772  1.00  0.00     0.281 C 
BRANCH  15  16
HETATM   16  C14 UNL     1       9.096  25.644  -5.479  1.00  0.00     0.242 C 
HETATM   17  O3  UNL     1      10.139  25.310  -4.868  1.00  0.00    -0.271 OA
HETATM   18  N1  UNL     1       8.874  25.313  -6.844  1.00  0.00    -0.355 N 
ATOM     19  H1  UNL     1       8.017  25.596  -7.319  1.00  0.00     0.162 HD
BRANCH  18  20
HETATM   20  C15 UNL     1       9.896  24.564  -7.540  1.00  0.00     0.084 C 
HETATM   21  C16 UNL     1      10.023  25.071  -8.976  1.00  0.00     0.025 C 
HETATM   22  C17 UNL     1       8.938  24.351  -9.747  1.00  0.00     0.002 C 
HETATM   23  C18 UNL     1       8.405  23.263  -8.853  1.00  0.00     0.002 C 
HETATM   24  C19 UNL     1       9.380  23.138  -7.704  1.00  0.00     0.025 C 
ENDBRANCH  18  20
ENDBRANCH  15  16
ENDBRANCH  14  15
ENDBRANCH   1  14
TORSDOF 6
ENDMDL
MODEL 2
REMARK VINA RESULT: -7.936507462      2.295      3.207
REMARK  6 active torsions:
REMARK  status: ('A' for Active; 'I' for Inactive)
REMARK    1  A    between atoms: C10_10  and  C11_11 
REMARK    2  A    between atoms: C11_11  and  C12_12 
REMARK    3  A    between atoms: C12_12  and  O2_14 
REMARK    4  A    between atoms: O2_14  and  C13_15 
REMARK    5  A    between atoms: C13_15  and  C14_16 
REMARK       I    between atoms: C14_16  and  N1_18 
REMARK    6  A    between atoms: N1_18  and  C15_20 
ROOT
HETATM    1  C12 UNL     1       7.927  25.432  -5.078  1.00  0.00     0.259 C 
HETATM    2  O1  UNL     1       7.268  26.378  -4.533  1.00  0.00    -0.265 OA
ENDROOT
BRANCH   1   3
HETATM    3  C11 UNL     1       7.246  24.385  -5.877  1.00  0.00     0.116 C 
BRANCH   3   4
HETATM    4  C10 UNL     1       6.188  23.710  -5.099  1.00  0.00     0.004 C 
HETATM    5  C5  UNL     1       5.005  23.200  -5.838  1.00  0.00    -0.009 C 
HETATM    6  C4  UNL     1       4.372  22.201  -4.854  1.00  0.00     0.014 C 
HETATM    7  C6  UNL     1       5.468  22.378  -7.009  1.00  0.00     0.005 C 
HETATM    8  C2  UNL     1       5.375  21.973  -3.768  1.00  0.00    -0.043 C 
HETATM    9  C1  UNL     1       5.458  20.536  -3.319  1.00  0.00     0.015 C 
HETATM   10  C3  UNL     1       5.152  22.861  -2.572  1.00  0.00     0.015 C 
HETATM   11  C9  UNL     1       6.672  22.421  -4.434  1.00  0.00    -0.002 C 
HETATM   12  C8  UNL     1       7.185  21.424  -5.423  1.00  0.00     0.006 C 
HETATM   13  C7  UNL     1       6.426  21.306  -6.680  1.00  0.00     0.001 C 
ENDBRANCH   3   4
ENDBRANCH   1   3
BRANCH   1  14
HETATM   14  O2  UNL     1       9.294  25.482  -4.855  1.00  0.00    -0.312 OA
BRANCH  14  15
HETATM   15  C13 UNL     1      10.190  24.612  -5.513  1.00  0.00     0.281 C 
BRANCH  15  16
HETATM   16  C14 UNL     1      10.622  25.121  -6.818  1.00  0.00     0.242 C 
HETATM   17  O3  UNL     1      10.039  24.724  -7.856  1.00  0.00    -0.271 OA
HETATM   18  N1  UNL     1      11.694  26.053  -6.857  1.00  0.00    -0.355 N 
ATOM     19  H1  UNL     1      12.151  26.361  -5.999  1.00  0.00     0.162 HD
BRANCH  18  20
HETATM   20  C15 UNL     1      12.118  26.554  -8.145  1.00  0.00     0.084 C 
HETATM   21  C16 UNL     1      13.299  25.730  -8.659  1.00  0.00     0.025 C 
HETATM   22  C17 UNL     1      14.519  26.333  -7.997  1.00  0.00     0.002 C 
HETATM   23  C18 UNL     1      14.087  27.627  -7.362  1.00  0.00     0.002 C 
HETATM   24  C19 UNL     1      12.716  27.939  -7.918  1.00  0.00     0.025 C 
ENDBRANCH  18  20
ENDBRANCH  15  16
ENDBRANCH  14  15
ENDBRANCH   1  14
TORSDOF 6
ENDMDL
MODEL 3
REMARK VINA RESULT: -7.901713171      1.639      5.961
REMARK  6 active torsions:
REMARK  status: ('A' for Active; 'I' for Inactive)
REMARK    1  A    between atoms: C10_10  and  C11_11 
REMARK    2  A    between atoms: C11_11  and  C12_12 
REMARK    3  A    between atoms: C12_12  and  O2_14 
REMARK    4  A    between atoms: O2_14  and  C13_15 
REMARK    5  A    between atoms: C13_15  and  C14_16 
REMARK       I    between atoms: C14_16  and  N1_18 
REMARK    6  A    between atoms: N1_18  and  C15_20 
ROOT
HETATM    1  C12 UNL     1       8.323  24.916  -4.954  1.00  0.00     0.259 C 
HETATM    2  O1  UNL     1       9.112  25.593  -4.215  1.00  0.00    -0.265 OA
ENDROOT
BRANCH   1   3
HETATM    3  C11 UNL     1       8.841  23.883  -5.884  1.00  0.00     0.116 C 
BRANCH   3   4
HETATM    4  C10 UNL     1       8.912  24.387  -7.270  1.00  0.00     0.004 C 
HETATM    5  C5  UNL     1       9.984  25.362  -7.596  1.00  0.00    -0.009 C 
HETATM    6  C4  UNL     1      10.056  25.313  -9.132  1.00  0.00     0.014 C 
HETATM    7  C6  UNL     1      11.304  24.827  -7.112  1.00  0.00     0.005 C 
HETATM    8  C2  UNL     1       9.262  24.121  -9.563  1.00  0.00    -0.043 C 
HETATM    9  C1  UNL     1       9.894  23.356 -10.697  1.00  0.00     0.015 C 
HETATM   10  C3  UNL     1       7.839  24.466  -9.920  1.00  0.00     0.015 C 
HETATM   11  C9  UNL     1       9.222  23.288  -8.286  1.00  0.00    -0.002 C 
HETATM   12  C8  UNL     1      10.521  22.601  -8.008  1.00  0.00     0.006 C 
HETATM   13  C7  UNL     1      11.631  23.463  -7.568  1.00  0.00     0.001 C 
ENDBRANCH   3   4
ENDBRANCH   1   3
BRANCH   1  14
HETATM   14  O2  UNL     1       6.983  25.233  -4.803  1.00  0.00    -0.312 OA
BRANCH  14  15
HETATM   15  C13 UNL     1       6.383  25.352  -3.531  1.00  0.00     0.281 C 
BRANCH  15  16
HETATM   16  C14 UNL     1       5.720  24.120  -3.096  1.00  0.00     0.242 C 
HETATM   17  O3  UNL     1       5.585  23.894  -1.869  1.00  0.00    -0.271 OA
HETATM   18  N1  UNL     1       5.250  23.220  -4.091  1.00  0.00    -0.355 N 
ATOM     19  H1  UNL     1       5.370  23.426  -5.082  1.00  0.00     0.162 HD
BRANCH  18  20
HETATM   20  C15 UNL     1       4.596  22.005  -3.659  1.00  0.00     0.084 C 
HETATM   21  C16 UNL     1       5.637  20.908  -3.433  1.00  0.00     0.025 C 
HETATM   22  C17 UNL     1       5.888  20.314  -4.803  1.00  0.00     0.002 C 
HETATM   23  C18 UNL     1       4.824  20.850  -5.722  1.00  0.00     0.002 C 
HETATM   24  C19 UNL     1       3.777  21.489  -4.838  1.00  0.00     0.025 C 
ENDBRANCH  18  20
ENDBRANCH  15  16
ENDBRANCH  14  15
ENDBRANCH   1  14
TORSDOF 6
ENDMDL
MODEL 4
REMARK VINA RESULT: -7.899233529      1.303      1.882
REMARK  6 active torsions:
REMARK  status: ('A' for Active; 'I' for Inactive)
REMARK    1  A    between atoms: C10_10  and  C11_11 
REMARK    2  A    between atoms: C11_11  and  C12_12 
REMARK    3  A    between atoms: C12_12  and  O2_14 
REMARK    4  A    between atoms: O2_14  and  C13_15 
REMARK    5  A    between atoms: C13_15  and  C14_16 
REMARK       I    between atoms: C14_16  and  N1_18 
REMARK    6  A    between atoms: N1_18  and  C15_20 
ROOT
HETATM    1  C12 UNL     1       7.657  25.103  -5.022  1.00  0.00     0.259 C 
HETATM    2  O1  UNL     1       7.227  26.241  -4.639  1.00  0.00    -0.265 OA
ENDROOT
BRANCH   1   3
HETATM    3  C11 UNL     1       6.821  24.211  -5.862  1.00  0.00     0.116 C 
BRANCH   3   4
HETATM    4  C10 UNL     1       5.858  23.445  -5.047  1.00  0.00     0.004 C 
HETATM    5  C5  UNL     1       4.692  22.841  -5.742  1.00  0.00    -0.009 C 
HETATM    6  C4  UNL     1       4.187  21.786  -4.742  1.00  0.00     0.014 C 
HETATM    7  C6  UNL     1       5.174  22.067  -6.937  1.00  0.00     0.005 C 
HETATM    8  C2  UNL     1       5.249  21.638  -3.700  1.00  0.00    -0.043 C 
HETATM    9  C1  UNL     1       5.472  20.211  -3.267  1.00  0.00     0.015 C 
HETATM   10  C3  UNL     1       5.002  22.498  -2.487  1.00  0.00     0.015 C 
HETATM   11  C9  UNL     1       6.475  22.199  -4.414  1.00  0.00    -0.002 C 
HETATM   12  C8  UNL     1       7.029  21.254  -5.431  1.00  0.00     0.006 C 
HETATM   13  C7  UNL     1       6.232  21.079  -6.657  1.00  0.00     0.001 C 
ENDBRANCH   3   4
ENDBRANCH   1   3
BRANCH   1  14
HETATM   14  O2  UNL     1       8.938  24.799  -4.589  1.00  0.00    -0.312 OA
BRANCH  14  15
HETATM   15  C13 UNL     1      10.070  24.998  -5.409  1.00  0.00     0.281 C 
BRANCH  15  16
HETATM   16  C14 UNL     1      10.224  23.957  -6.430  1.00  0.00     0.242 C 
HETATM   17  O3  UNL     1      10.578  22.804  -6.083  1.00  0.00    -0.271 OA
HETATM   18  N1  UNL     1       9.965  24.298  -7.785  1.00  0.00    -0.355 N 
ATOM     19  H1  UNL     1       9.678  25.243  -8.041  1.00  0.00     0.162 HD
BRANCH  18  20
HETATM   20  C15 UNL     1      10.118  23.271  -8.790  1.00  0.00     0.084 C 
HETATM   21  C16 UNL     1      10.081  23.898 -10.183  1.00  0.00     0.025 C 
HETATM   22  C17 UNL     1       8.611  24.036 -10.515  1.00  0.00     0.002 C 
HETATM   23  C18 UNL     1       7.846  23.255  -9.482  1.00  0.00     0.002 C 
HETATM   24  C19 UNL     1       8.862  22.407  -8.749  1.00  0.00     0.025 C 
ENDBRANCH  18  20
ENDBRANCH  15  16
ENDBRANCH  14  15
ENDBRANCH   1  14
TORSDOF 6
ENDMDL
MODEL 5
REMARK VINA RESULT: -7.795311995      1.747      6.242
REMARK  6 active torsions:
REMARK  status: ('A' for Active; 'I' for Inactive)
REMARK    1  A    between atoms: C10_10  and  C11_11 
REMARK    2  A    between atoms: C11_11  and  C12_12 
REMARK    3  A    between atoms: C12_12  and  O2_14 
REMARK    4  A    between atoms: O2_14  and  C13_15 
REMARK    5  A    between atoms: C13_15  and  C14_16 
REMARK       I    between atoms: C14_16  and  N1_18 
REMARK    6  A    between atoms: N1_18  and  C15_20 
ROOT
HETATM    1  C12 UNL     1       8.083  25.105  -5.251  1.00  0.00     0.259 C 
HETATM    2  O1  UNL     1       9.011  25.409  -4.431  1.00  0.00    -0.265 OA
ENDROOT
BRANCH   1   3
HETATM    3  C11 UNL     1       8.395  24.523  -6.579  1.00  0.00     0.116 C 
BRANCH   3   4
HETATM    4  C10 UNL     1       9.849  24.488  -6.828  1.00  0.00     0.004 C 
HETATM    5  C5  UNL     1      10.475  23.166  -7.086  1.00  0.00    -0.009 C 
HETATM    6  C4  UNL     1      11.822  23.527  -7.734  1.00  0.00     0.014 C 
HETATM    7  C6  UNL     1       9.693  22.447  -8.150  1.00  0.00     0.005 C 
HETATM    8  C2  UNL     1      11.755  24.979  -8.084  1.00  0.00    -0.043 C 
HETATM    9  C1  UNL     1      12.381  25.306  -9.416  1.00  0.00     0.015 C 
HETATM   10  C3  UNL     1      12.349  25.865  -7.019  1.00  0.00     0.015 C 
HETATM   11  C9  UNL     1      10.251  25.233  -8.101  1.00  0.00    -0.002 C 
HETATM   12  C8  UNL     1       9.589  24.680  -9.323  1.00  0.00     0.006 C 
HETATM   13  C7  UNL     1       9.476  23.213  -9.391  1.00  0.00     0.001 C 
ENDBRANCH   3   4
ENDBRANCH   1   3
BRANCH   1  14
HETATM   14  O2  UNL     1       6.802  25.364  -4.790  1.00  0.00    -0.312 OA
BRANCH  14  15
HETATM   15  C13 UNL     1       6.485  25.340  -3.415  1.00  0.00     0.281 C 
BRANCH  15  16
HETATM   16  C14 UNL     1       5.757  24.131  -3.019  1.00  0.00     0.242 C 
HETATM   17  O3  UNL     1       5.567  23.899  -1.801  1.00  0.00    -0.271 OA
HETATM   18  N1  UNL     1       5.292  23.259  -4.041  1.00  0.00    -0.355 N 
ATOM     19  H1  UNL     1       5.459  23.470  -5.025  1.00  0.00     0.162 HD
BRANCH  18  20
HETATM   20  C15 UNL     1       4.575  22.067  -3.649  1.00  0.00     0.084 C 
HETATM   21  C16 UNL     1       5.563  20.934  -3.372  1.00  0.00     0.025 C 
HETATM   22  C17 UNL     1       5.865  20.334  -4.728  1.00  0.00     0.002 C 
HETATM   23  C18 UNL     1       4.870  20.909  -5.701  1.00  0.00     0.002 C 
HETATM   24  C19 UNL     1       3.801  21.582  -4.870  1.00  0.00     0.025 C 
ENDBRANCH  18  20
ENDBRANCH  15  16
ENDBRANCH  14  15
ENDBRANCH   1  14
TORSDOF 6
ENDMDL
