MODEL 1
REMARK VINA RESULT: -7.702737694      0.000      0.000
REMARK  3 active torsions:
REMARK  status: ('A' for Active; 'I' for Inactive)
REMARK       I    between atoms: C2_4  and  N2_5 
REMARK       I    between atoms: C2_4  and  N3_12 
REMARK    1  A    between atoms: N2_5  and  C3_7 
REMARK    2  A    between atoms: C10_15  and  C11_16 
REMARK    3  A    between atoms: C11_16  and  N4_18 
ROOT
HETATM    1  C1  UNL     1      10.371   7.148   2.442  1.00  0.00     0.165 C 
HETATM    2  N1  UNL     1       9.540   8.112   3.112  1.00  0.00    -0.231 N 
ATOM      3  H1  UNL     1       8.935   7.806   3.874  1.00  0.00     0.177 HD
HETATM    4  C2  UNL     1       9.543   9.363   2.769  1.00  0.00     0.671 C 
HETATM    5  N2  UNL     1       8.694  10.237   3.483  1.00  0.00    -0.222 N 
ATOM      6  H2  UNL     1       8.782  11.246   3.363  1.00  0.00     0.178 HD
HETATM    7  N3  UNL     1      10.368   9.838   1.716  1.00  0.00    -0.217 N 
HETATM    8  C8  UNL     1      10.065   9.683   0.311  1.00  0.00     0.142 C 
HETATM    9  C9  UNL     1      11.327  10.220  -0.408  1.00  0.00     0.034 C 
HETATM   10  C10 UNL     1      11.706  11.297   0.593  1.00  0.00     0.067 C 
HETATM   11  C16 UNL     1      11.628  10.545   1.897  1.00  0.00     0.152 C 
ENDROOT
BRANCH   5  12
HETATM   12  C3  UNL     1       7.704   9.704   4.380  1.00  0.00     0.099 C 
HETATM   13  C4  UNL     1       6.347   9.909   3.787  1.00  0.00     0.026 C 
HETATM   14  C5  UNL     1       5.614  10.813   4.732  1.00  0.00     0.002 C 
HETATM   15  C6  UNL     1       6.274  10.592   6.064  1.00  0.00     0.002 C 
HETATM   16  C7  UNL     1       7.721  10.425   5.709  1.00  0.00     0.026 C 
ENDBRANCH   5  12
BRANCH  10  17
HETATM   17  C11 UNL     1      12.920  12.026   0.325  1.00  0.00     0.081 C 
HETATM   18  S1  UNL     1      12.901  13.637   0.781  1.00  0.00    -0.065 SA
BRANCH  17  19
HETATM   19  N4  UNL     1      14.112  11.596  -0.255  1.00  0.00    -0.371 N 
HETATM   20  C12 UNL     1      15.007  10.638   0.332  1.00  0.00     0.149 C 
HETATM   21  C13 UNL     1      16.351  10.760  -0.382  1.00  0.00     0.187 C 
HETATM   22  O1  UNL     1      16.272  10.424  -1.724  1.00  0.00    -0.388 OA
HETATM   23  C14 UNL     1      15.171  10.970  -2.354  1.00  0.00     0.187 C 
HETATM   24  C15 UNL     1      14.561  12.109  -1.567  1.00  0.00     0.149 C 
ENDBRANCH  17  19
ENDBRANCH  10  17
TORSDOF 3
ENDMDL
MODEL 2
REMARK VINA RESULT: -7.482139548      1.711      2.146
REMARK  3 active torsions:
REMARK  status: ('A' for Active; 'I' for Inactive)
REMARK       I    between atoms: C2_4  and  N2_5 
REMARK       I    between atoms: C2_4  and  N3_12 
REMARK    1  A    between atoms: N2_5  and  C3_7 
REMARK    2  A    between atoms: C10_15  and  C11_16 
REMARK    3  A    between atoms: C11_16  and  N4_18 
ROOT
HETATM    1  C1  UNL     1       9.825   6.789   2.538  1.00  0.00     0.165 C 
HETATM    2  N1  UNL     1       9.126   7.828   3.249  1.00  0.00    -0.231 N 
ATOM      3  H1  UNL     1       8.465   7.573   3.982  1.00  0.00     0.177 HD
HETATM    4  C2  UNL     1       9.319   9.081   2.977  1.00  0.00     0.671 C 
HETATM    5  N2  UNL     1       8.589  10.030   3.726  1.00  0.00    -0.222 N 
ATOM      6  H2  UNL     1       8.825  11.020   3.665  1.00  0.00     0.178 HD
HETATM    7  N3  UNL     1      10.230   9.487   1.967  1.00  0.00    -0.217 N 
HETATM    8  C8  UNL     1       9.942   9.453   0.551  1.00  0.00     0.142 C 
HETATM    9  C9  UNL     1      11.286   9.838  -0.116  1.00  0.00     0.034 C 
HETATM   10  C10 UNL     1      11.792  10.793   0.950  1.00  0.00     0.067 C 
HETATM   11  C16 UNL     1      11.574   9.991   2.208  1.00  0.00     0.152 C 
ENDROOT
BRANCH   5  12
HETATM   12  C3  UNL     1       7.510   9.599   4.575  1.00  0.00     0.099 C 
HETATM   13  C4  UNL     1       6.210   9.903   3.903  1.00  0.00     0.026 C 
HETATM   14  C5  UNL     1       5.504  10.884   4.789  1.00  0.00     0.002 C 
HETATM   15  C6  UNL     1       6.070  10.639   6.160  1.00  0.00     0.002 C 
HETATM   16  C7  UNL     1       7.515  10.346   5.890  1.00  0.00     0.026 C 
ENDBRANCH   5  12
BRANCH  10  17
HETATM   17  C11 UNL     1      13.105  11.350   0.744  1.00  0.00     0.081 C 
HETATM   18  S1  UNL     1      14.377  10.391   1.258  1.00  0.00    -0.065 SA
BRANCH  17  19
HETATM   19  N4  UNL     1      13.481  12.567   0.177  1.00  0.00    -0.371 N 
HETATM   20  C12 UNL     1      14.348  12.707  -0.958  1.00  0.00     0.149 C 
HETATM   21  C13 UNL     1      14.838  14.152  -0.994  1.00  0.00     0.187 C 
HETATM   22  O1  UNL     1      13.808  15.057  -1.198  1.00  0.00    -0.388 OA
HETATM   23  C14 UNL     1      12.693  14.787  -0.429  1.00  0.00     0.187 C 
HETATM   24  C15 UNL     1      12.996  13.854   0.722  1.00  0.00     0.149 C 
ENDBRANCH  17  19
ENDBRANCH  10  17
TORSDOF 3
ENDMDL
MODEL 3
REMARK VINA RESULT: -7.472256382      3.229      8.465
REMARK  3 active torsions:
REMARK  status: ('A' for Active; 'I' for Inactive)
REMARK       I    between atoms: C2_4  and  N2_5 
REMARK       I    between atoms: C2_4  and  N3_12 
REMARK    1  A    between atoms: N2_5  and  C3_7 
REMARK    2  A    between atoms: C10_15  and  C11_16 
REMARK    3  A    between atoms: C11_16  and  N4_18 
ROOT
HETATM    1  C1  UNL     1      13.739  13.323   0.003  1.00  0.00     0.165 C 
HETATM    2  N1  UNL     1      14.535  12.294  -0.613  1.00  0.00    -0.231 N 
ATOM      3  H1  UNL     1      15.309  12.559  -1.222  1.00  0.00     0.177 HD
HETATM    4  C2  UNL     1      14.290  11.037  -0.411  1.00  0.00     0.671 C 
HETATM    5  N2  UNL     1      15.124  10.098  -1.058  1.00  0.00    -0.222 N 
ATOM      6  H2  UNL     1      15.077   9.112  -0.802  1.00  0.00     0.178 HD
HETATM    7  N3  UNL     1      13.226  10.617   0.429  1.00  0.00    -0.217 N 
HETATM    8  C8  UNL     1      11.836  10.596   0.032  1.00  0.00     0.142 C 
HETATM    9  C9  UNL     1      11.080  10.218   1.330  1.00  0.00     0.034 C 
HETATM   10  C10 UNL     1      12.134   9.312   1.940  1.00  0.00     0.067 C 
HETATM   11  C16 UNL     1      13.378  10.151   1.800  1.00  0.00     0.152 C 
ENDROOT
BRANCH   5  12
HETATM   12  C3  UNL     1      16.040  10.533  -2.078  1.00  0.00     0.099 C 
HETATM   13  C4  UNL     1      15.675   9.880  -3.372  1.00  0.00     0.026 C 
HETATM   14  C5  UNL     1      16.848   9.028  -3.752  1.00  0.00     0.002 C 
HETATM   15  C6  UNL     1      18.024   9.668  -3.069  1.00  0.00     0.002 C 
HETATM   16  C7  UNL     1      17.458  10.119  -1.756  1.00  0.00     0.026 C 
ENDBRANCH   5  12
BRANCH  10  17
HETATM   17  C11 UNL     1      11.844   8.777   3.247  1.00  0.00     0.081 C 
HETATM   18  S1  UNL     1      13.092   7.919   3.960  1.00  0.00    -0.065 SA
BRANCH  17  19
HETATM   19  N4  UNL     1      10.682   8.867   4.012  1.00  0.00    -0.371 N 
HETATM   20  C12 UNL     1      10.429   9.881   4.997  1.00  0.00     0.149 C 
HETATM   21  C13 UNL     1       9.283   9.394   5.881  1.00  0.00     0.187 C 
HETATM   22  O1  UNL     1       8.096   9.250   5.180  1.00  0.00    -0.388 OA
HETATM   23  C14 UNL     1       8.263   8.624   3.961  1.00  0.00     0.187 C 
HETATM   24  C15 UNL     1       9.582   7.891   3.862  1.00  0.00     0.149 C 
ENDBRANCH  17  19
ENDBRANCH  10  17
TORSDOF 3
ENDMDL
MODEL 4
REMARK VINA RESULT: -7.375754002      4.137      8.185
REMARK  3 active torsions:
REMARK  status: ('A' for Active; 'I' for Inactive)
REMARK       I    between atoms: C2_4  and  N2_5 
REMARK       I    between atoms: C2_4  and  N3_12 
REMARK    1  A    between atoms: N2_5  and  C3_7 
REMARK    2  A    between atoms: C10_15  and  C11_16 
REMARK    3  A    between atoms: C11_16  and  N4_18 
ROOT
HETATM    1  C1  UNL     1      14.488  13.564  -0.741  1.00  0.00     0.165 C 
HETATM    2  N1  UNL     1      15.026  12.401  -1.395  1.00  0.00    -0.231 N 
ATOM      3  H1  UNL     1      15.697  12.520  -2.153  1.00  0.00     0.177 HD
HETATM    4  C2  UNL     1      14.677  11.203  -1.040  1.00  0.00     0.671 C 
HETATM    5  N2  UNL     1      15.258  10.121  -1.739  1.00  0.00    -0.222 N 
ATOM      6  H2  UNL     1      15.145   9.169  -1.391  1.00  0.00     0.178 HD
HETATM    7  N3  UNL     1      13.749  10.985   0.011  1.00  0.00    -0.217 N 
HETATM    8  C8  UNL     1      12.317  11.121  -0.128  1.00  0.00     0.142 C 
HETATM    9  C9  UNL     1      11.779  10.934   1.313  1.00  0.00     0.034 C 
HETATM   10  C10 UNL     1      12.816   9.939   1.804  1.00  0.00     0.067 C 
HETATM   11  C16 UNL     1      14.101  10.595   1.369  1.00  0.00     0.152 C 
ENDROOT
BRANCH   5  12
HETATM   12  C3  UNL     1      16.009  10.363  -2.941  1.00  0.00     0.099 C 
HETATM   13  C4  UNL     1      15.239   9.841  -4.111  1.00  0.00     0.026 C 
HETATM   14  C5  UNL     1      16.080   8.755  -4.711  1.00  0.00     0.002 C 
HETATM   15  C6  UNL     1      17.488   9.094  -4.310  1.00  0.00     0.002 C 
HETATM   16  C7  UNL     1      17.332   9.630  -2.919  1.00  0.00     0.026 C 
ENDBRANCH   5  12
BRANCH  10  17
HETATM   17  C11 UNL     1      12.717   9.536   3.184  1.00  0.00     0.081 C 
HETATM   18  S1  UNL     1      11.501  10.282   4.061  1.00  0.00    -0.065 SA
BRANCH  17  19
HETATM   19  N4  UNL     1      13.477   8.615   3.903  1.00  0.00    -0.371 N 
HETATM   20  C12 UNL     1      13.436   7.193   3.709  1.00  0.00     0.149 C 
HETATM   21  C13 UNL     1      14.065   6.538   4.937  1.00  0.00     0.187 C 
HETATM   22  O1  UNL     1      15.407   6.857   5.080  1.00  0.00    -0.388 OA
HETATM   23  C14 UNL     1      15.667   8.198   4.876  1.00  0.00     0.187 C 
HETATM   24  C15 UNL     1      14.419   9.048   4.958  1.00  0.00     0.149 C 
ENDBRANCH  17  19
ENDBRANCH  10  17
TORSDOF 3
ENDMDL
MODEL 5
REMARK VINA RESULT: -7.219236730      2.825      3.544
REMARK  3 active torsions:
REMARK  status: ('A' for Active; 'I' for Inactive)
REMARK       I    between atoms: C2_4  and  N2_5 
REMARK       I    between atoms: C2_4  and  N3_12 
REMARK    1  A    between atoms: N2_5  and  C3_7 
REMARK    2  A    between atoms: C10_15  and  C11_16 
REMARK    3  A    between atoms: C11_16  and  N4_18 
ROOT
HETATM    1  C1  UNL     1       9.229   9.262  -0.159  1.00  0.00     0.165 C 
HETATM    2  N1  UNL     1       9.107   9.536   1.249  1.00  0.00    -0.231 N 
ATOM      3  H1  UNL     1       8.207   9.399   1.707  1.00  0.00     0.177 HD
HETATM    4  C2  UNL     1      10.117   9.952   1.947  1.00  0.00     0.671 C 
HETATM    5  N2  UNL     1       9.903  10.194   3.322  1.00  0.00    -0.222 N 
ATOM      6  H2  UNL     1      10.697  10.361   3.941  1.00  0.00     0.178 HD
HETATM    7  N3  UNL     1      11.391  10.155   1.355  1.00  0.00    -0.217 N 
HETATM    8  C8  UNL     1      11.746  11.312   0.565  1.00  0.00     0.142 C 
HETATM    9  C9  UNL     1      13.163  10.984   0.031  1.00  0.00     0.034 C 
HETATM   10  C10 UNL     1      13.663  10.185   1.221  1.00  0.00     0.067 C 
HETATM   11  C16 UNL     1      12.516   9.236   1.458  1.00  0.00     0.152 C 
ENDROOT
BRANCH   5  12
HETATM   12  C3  UNL     1       8.565  10.207   3.849  1.00  0.00     0.099 C 
HETATM   13  C4  UNL     1       8.528  11.075   5.066  1.00  0.00     0.026 C 
HETATM   14  C5  UNL     1       8.154  10.177   6.206  1.00  0.00     0.002 C 
HETATM   15  C6  UNL     1       7.400   9.043   5.569  1.00  0.00     0.002 C 
HETATM   16  C7  UNL     1       8.131   8.823   4.278  1.00  0.00     0.026 C 
ENDBRANCH   5  12
BRANCH  10  17
HETATM   17  C11 UNL     1      14.979   9.610   1.102  1.00  0.00     0.081 C 
HETATM   18  S1  UNL     1      15.925  10.239  -0.128  1.00  0.00    -0.065 SA
BRANCH  17  19
HETATM   19  N4  UNL     1      15.590   8.610   1.858  1.00  0.00    -0.371 N 
HETATM   20  C12 UNL     1      16.276   8.829   3.100  1.00  0.00     0.149 C 
HETATM   21  C13 UNL     1      17.141   7.601   3.376  1.00  0.00     0.187 C 
HETATM   22  O1  UNL     1      16.388   6.452   3.562  1.00  0.00    -0.388 OA
HETATM   23  C14 UNL     1      15.374   6.316   2.635  1.00  0.00     0.187 C 
HETATM   24  C15 UNL     1      15.576   7.197   1.423  1.00  0.00     0.149 C 
ENDBRANCH  17  19
ENDBRANCH  10  17
TORSDOF 3
ENDMDL
