MODEL 1
REMARK VINA RESULT: -9.732358569      0.000      0.000
REMARK  5 active torsions:
REMARK  status: ('A' for Active; 'I' for Inactive)
REMARK    1  A    between atoms: N2_6  and  C3_7 
REMARK    2  A    between atoms: C6_10  and  N3_11 
REMARK    3  A    between atoms: C9_19  and  N5_20 
REMARK    4  A    between atoms: C14_28  and  N7_29 
REMARK    5  A    between atoms: C17_32  and  N8_33 
ROOT
HETATM    1  N1  UNL     1      16.577  38.600  27.737  1.00  0.00    -0.388 N 
ATOM      2  H11 UNL     1      17.158  37.916  27.250  1.00  0.00     0.157 HD
ATOM      3  H12 UNL     1      16.562  38.541  28.755  1.00  0.00     0.157 HD
HETATM    4  C1  UNL     1      15.902  39.478  27.117  1.00  0.00     0.093 C 
HETATM    5  C2  UNL     1      15.061  40.468  27.822  1.00  0.00     0.201 C 
HETATM    6  N2  UNL     1      13.737  40.361  27.219  1.00  0.00    -0.353 N 
HETATM    7  C8  UNL     1      13.660  40.490  25.799  1.00  0.00     0.150 A 
HETATM    8  N4  UNL     1      12.568  40.999  25.201  1.00  0.00    -0.174 N 
ATOM      9  H4  UNL     1      11.771  41.292  25.766  1.00  0.00     0.186 HD
HETATM   10  C9  UNL     1      12.523  41.123  23.875  1.00  0.00     0.683 A 
HETATM   11  N6  UNL     1      13.578  40.731  23.158  1.00  0.00    -0.174 N 
ATOM     12  H6  UNL     1      13.523  40.833  22.144  1.00  0.00     0.186 HD
HETATM   13  C14 UNL     1      14.712  40.211  23.671  1.00  0.00     0.150 A 
HETATM   14  C20 UNL     1      14.763  40.082  25.041  1.00  0.00     0.123 A 
HETATM   15  N9  UNL     1      15.922  39.560  25.700  1.00  0.00    -0.339 N 
ATOM     16  H9  UNL     1      16.738  39.256  25.168  1.00  0.00     0.167 HD
ENDROOT
BRANCH  13  17
HETATM   17  N7  UNL     1      15.785  39.796  22.840  1.00  0.00    -0.365 N 
HETATM   18  C15 UNL     1      17.133  40.106  23.246  1.00  0.00     0.126 C 
HETATM   19  C16 UNL     1      18.063  40.101  22.051  1.00  0.00     0.052 C 
HETATM   20  C17 UNL     1      18.083  38.645  21.566  1.00  0.00     0.186 C 
HETATM   21  C18 UNL     1      16.712  38.140  21.254  1.00  0.00     0.052 C 
HETATM   22  C19 UNL     1      15.600  39.078  21.600  1.00  0.00     0.126 C 
BRANCH  20  23
HETATM   23  N8  UNL     1      18.994  38.600  20.443  1.00  0.00    -0.075 N 
ATOM     24  H83 UNL     1      19.614  39.407  20.393  1.00  0.00     0.274 HD
ATOM     25  H82 UNL     1      19.720  37.889  20.539  1.00  0.00     0.274 HD
ATOM     26  H81 UNL     1      18.420  38.480  19.608  1.00  0.00     0.274 HD
ENDBRANCH  20  23
ENDBRANCH  13  17
BRANCH  10  27
HETATM   27  N5  UNL     1      11.388  41.656  23.210  1.00  0.00    -0.213 N 
HETATM   28  C10 UNL     1      10.044  41.224  23.519  1.00  0.00     0.167 C 
HETATM   29  C11 UNL     1       9.225  41.410  22.252  1.00  0.00     0.188 C 
HETATM   30  O1  UNL     1       9.154  42.714  21.834  1.00  0.00    -0.388 OA
HETATM   31  C12 UNL     1      10.259  43.479  22.116  1.00  0.00     0.188 C 
HETATM   32  C13 UNL     1      11.546  42.664  22.186  1.00  0.00     0.167 C 
ENDBRANCH  10  27
BRANCH   6  33
HETATM   33  C3  UNL     1      12.563  40.148  27.995  1.00  0.00     0.088 C 
HETATM   34  C4  UNL     1      12.975  39.844  29.433  1.00  0.00     0.027 C 
HETATM   35  C5  UNL     1      11.797  39.089  30.026  1.00  0.00     0.035 C 
HETATM   36  C6  UNL     1      10.866  38.810  28.895  1.00  0.00     0.185 C 
HETATM   37  C7  UNL     1      11.687  39.008  27.593  1.00  0.00     0.058 C 
BRANCH  36  38
HETATM   38  N3  UNL     1      10.393  37.445  28.845  1.00  0.00    -0.075 N 
ATOM     39  H33 UNL     1      10.566  36.973  29.733  1.00  0.00     0.274 HD
ATOM     40  H32 UNL     1       9.374  37.419  28.833  1.00  0.00     0.274 HD
ATOM     41  H31 UNL     1      10.774  36.902  28.071  1.00  0.00     0.274 HD
ENDBRANCH  36  38
ENDBRANCH   6  33
TORSDOF 5
ENDMDL
MODEL 2
REMARK VINA RESULT: -9.703538511      0.295      1.294
REMARK  5 active torsions:
REMARK  status: ('A' for Active; 'I' for Inactive)
REMARK    1  A    between atoms: N2_6  and  C3_7 
REMARK    2  A    between atoms: C6_10  and  N3_11 
REMARK    3  A    between atoms: C9_19  and  N5_20 
REMARK    4  A    between atoms: C14_28  and  N7_29 
REMARK    5  A    between atoms: C17_32  and  N8_33 
ROOT
HETATM    1  N1  UNL     1      16.615  38.510  27.566  1.00  0.00    -0.388 N 
ATOM      2  H11 UNL     1      17.163  37.798  27.082  1.00  0.00     0.157 HD
ATOM      3  H12 UNL     1      16.616  38.470  28.586  1.00  0.00     0.157 HD
HETATM    4  C1  UNL     1      15.960  39.401  26.943  1.00  0.00     0.093 C 
HETATM    5  C2  UNL     1      15.168  40.432  27.644  1.00  0.00     0.201 C 
HETATM    6  N2  UNL     1      13.830  40.362  27.066  1.00  0.00    -0.353 N 
HETATM    7  C8  UNL     1      13.732  40.469  25.646  1.00  0.00     0.150 A 
HETATM    8  N4  UNL     1      12.648  41.006  25.058  1.00  0.00    -0.174 N 
ATOM      9  H4  UNL     1      11.872  41.337  25.631  1.00  0.00     0.186 HD
HETATM   10  C9  UNL     1      12.584  41.109  23.731  1.00  0.00     0.683 A 
HETATM   11  N6  UNL     1      13.612  40.668  23.002  1.00  0.00    -0.174 N 
ATOM     12  H6  UNL     1      13.543  40.755  21.988  1.00  0.00     0.186 HD
HETATM   13  C14 UNL     1      14.736  40.117  23.505  1.00  0.00     0.150 A 
HETATM   14  C20 UNL     1      14.807  40.010  24.876  1.00  0.00     0.123 A 
HETATM   15  N9  UNL     1      15.958  39.458  25.524  1.00  0.00    -0.339 N 
ATOM     16  H9  UNL     1      16.753  39.116  24.984  1.00  0.00     0.167 HD
ENDROOT
BRANCH  13  17
HETATM   17  N7  UNL     1      15.779  39.650  22.663  1.00  0.00    -0.365 N 
HETATM   18  C15 UNL     1      15.427  38.971  21.440  1.00  0.00     0.126 C 
HETATM   19  C16 UNL     1      16.567  38.091  20.974  1.00  0.00     0.052 C 
HETATM   20  C17 UNL     1      17.701  39.062  20.616  1.00  0.00     0.186 C 
HETATM   21  C18 UNL     1      18.063  39.946  21.765  1.00  0.00     0.052 C 
HETATM   22  C19 UNL     1      17.181  39.815  22.966  1.00  0.00     0.126 C 
BRANCH  20  23
HETATM   23  N8  UNL     1      18.797  38.252  20.131  1.00  0.00    -0.075 N 
ATOM     24  H83 UNL     1      19.060  37.503  20.770  1.00  0.00     0.274 HD
ATOM     25  H82 UNL     1      18.543  37.660  19.339  1.00  0.00     0.274 HD
ATOM     26  H81 UNL     1      19.563  38.894  19.925  1.00  0.00     0.274 HD
ENDBRANCH  20  23
ENDBRANCH  13  17
BRANCH  10  27
HETATM   27  N5  UNL     1      11.457  41.671  23.075  1.00  0.00    -0.213 N 
HETATM   28  C10 UNL     1      11.588  42.711  22.081  1.00  0.00     0.167 C 
HETATM   29  C11 UNL     1      10.303  43.522  22.128  1.00  0.00     0.188 C 
HETATM   30  O1  UNL     1       9.184  42.792  21.817  1.00  0.00    -0.388 OA
HETATM   31  C12 UNL     1       9.234  41.468  22.176  1.00  0.00     0.188 C 
HETATM   32  C13 UNL     1      10.124  41.210  23.387  1.00  0.00     0.167 C 
ENDBRANCH  10  27
BRANCH   6  33
HETATM   33  C3  UNL     1      12.663  40.204  27.865  1.00  0.00     0.088 C 
HETATM   34  C4  UNL     1      13.089  39.937  29.307  1.00  0.00     0.027 C 
HETATM   35  C5  UNL     1      11.902  39.232  29.942  1.00  0.00     0.035 C 
HETATM   36  C6  UNL     1      10.948  38.939  28.835  1.00  0.00     0.185 C 
HETATM   37  C7  UNL     1      11.754  39.073  27.515  1.00  0.00     0.058 C 
BRANCH  36  38
HETATM   38  N3  UNL     1      10.442  37.585  28.837  1.00  0.00    -0.075 N 
ATOM     39  H33 UNL     1      10.739  37.089  27.997  1.00  0.00     0.274 HD
ATOM     40  H32 UNL     1      10.918  37.025  29.544  1.00  0.00     0.274 HD
ATOM     41  H31 UNL     1       9.430  37.520  28.952  1.00  0.00     0.274 HD
ENDBRANCH  36  38
ENDBRANCH   6  33
TORSDOF 5
ENDMDL
MODEL 3
REMARK VINA RESULT: -9.638907350      0.567      1.051
REMARK  5 active torsions:
REMARK  status: ('A' for Active; 'I' for Inactive)
REMARK    1  A    between atoms: N2_6  and  C3_7 
REMARK    2  A    between atoms: C6_10  and  N3_11 
REMARK    3  A    between atoms: C9_19  and  N5_20 
REMARK    4  A    between atoms: C14_28  and  N7_29 
REMARK    5  A    between atoms: C17_32  and  N8_33 
ROOT
HETATM    1  N1  UNL     1      16.553  38.885  28.316  1.00  0.00    -0.388 N 
ATOM      2  H11 UNL     1      17.206  38.242  27.867  1.00  0.00     0.157 HD
ATOM      3  H12 UNL     1      16.519  38.861  29.335  1.00  0.00     0.157 HD
HETATM    4  C1  UNL     1      15.817  39.677  27.651  1.00  0.00     0.093 C 
HETATM    5  C2  UNL     1      14.873  40.609  28.301  1.00  0.00     0.201 C 
HETATM    6  N2  UNL     1      13.579  40.361  27.674  1.00  0.00    -0.353 N 
HETATM    7  C8  UNL     1      13.525  40.433  26.249  1.00  0.00     0.150 A 
HETATM    8  N4  UNL     1      12.407  40.820  25.611  1.00  0.00    -0.174 N 
ATOM      9  H4  UNL     1      11.572  41.058  26.147  1.00  0.00     0.186 HD
HETATM   10  C9  UNL     1      12.383  40.895  24.280  1.00  0.00     0.683 A 
HETATM   11  N6  UNL     1      13.487  40.577  23.600  1.00  0.00    -0.174 N 
ATOM     12  H6  UNL     1      13.448  40.639  22.583  1.00  0.00     0.186 HD
HETATM   13  C14 UNL     1      14.650  40.180  24.156  1.00  0.00     0.150 A 
HETATM   14  C20 UNL     1      14.679  40.104  25.530  1.00  0.00     0.123 A 
HETATM   15  N9  UNL     1      15.865  39.712  26.232  1.00  0.00    -0.339 N 
ATOM     16  H9  UNL     1      16.717  39.466  25.729  1.00  0.00     0.167 HD
ENDROOT
BRANCH  13  17
HETATM   17  N7  UNL     1      15.776  39.837  23.363  1.00  0.00    -0.365 N 
HETATM   18  C15 UNL     1      15.573  39.544  21.965  1.00  0.00     0.126 C 
HETATM   19  C16 UNL     1      16.708  38.697  21.430  1.00  0.00     0.052 C 
HETATM   20  C17 UNL     1      17.950  39.596  21.506  1.00  0.00     0.186 C 
HETATM   21  C18 UNL     1      18.189  40.103  22.890  1.00  0.00     0.052 C 
HETATM   22  C19 UNL     1      17.122  39.762  23.881  1.00  0.00     0.126 C 
BRANCH  20  23
HETATM   23  N8  UNL     1      19.048  38.825  20.965  1.00  0.00    -0.075 N 
ATOM     24  H83 UNL     1      18.773  37.893  20.654  1.00  0.00     0.274 HD
ATOM     25  H82 UNL     1      19.377  39.168  20.062  1.00  0.00     0.274 HD
ATOM     26  H81 UNL     1      19.774  38.813  21.681  1.00  0.00     0.274 HD
ENDBRANCH  20  23
ENDBRANCH  13  17
BRANCH  10  27
HETATM   27  N5  UNL     1      11.222  41.299  23.572  1.00  0.00    -0.213 N 
HETATM   28  C10 UNL     1       9.912  40.769  23.880  1.00  0.00     0.167 C 
HETATM   29  C11 UNL     1       9.106  40.827  22.592  1.00  0.00     0.188 C 
HETATM   30  O1  UNL     1       8.934  42.100  22.111  1.00  0.00    -0.388 OA
HETATM   31  C12 UNL     1       9.965  42.967  22.374  1.00  0.00     0.188 C 
HETATM   32  C13 UNL     1      11.315  42.268  22.504  1.00  0.00     0.167 C 
ENDBRANCH  10  27
BRANCH   6  33
HETATM   33  C3  UNL     1      12.410  40.068  28.432  1.00  0.00     0.088 C 
HETATM   34  C4  UNL     1      12.831  39.634  29.834  1.00  0.00     0.027 C 
HETATM   35  C5  UNL     1      11.662  38.818  30.360  1.00  0.00     0.035 C 
HETATM   36  C6  UNL     1      10.728  38.639  29.211  1.00  0.00     0.185 C 
HETATM   37  C7  UNL     1      11.541  38.963  27.930  1.00  0.00     0.058 C 
BRANCH  36  38
HETATM   38  N3  UNL     1      10.265  37.280  29.037  1.00  0.00    -0.075 N 
ATOM     39  H33 UNL     1       9.960  37.126  28.076  1.00  0.00     0.274 HD
ATOM     40  H32 UNL     1      11.047  36.627  29.075  1.00  0.00     0.274 HD
ATOM     41  H31 UNL     1       9.535  37.003  29.693  1.00  0.00     0.274 HD
ENDBRANCH  36  38
ENDBRANCH   6  33
TORSDOF 5
ENDMDL
MODEL 4
REMARK VINA RESULT: -9.275823648      1.939      2.703
REMARK  5 active torsions:
REMARK  status: ('A' for Active; 'I' for Inactive)
REMARK    1  A    between atoms: N2_6  and  C3_7 
REMARK    2  A    between atoms: C6_10  and  N3_11 
REMARK    3  A    between atoms: C9_19  and  N5_20 
REMARK    4  A    between atoms: C14_28  and  N7_29 
REMARK    5  A    between atoms: C17_32  and  N8_33 
ROOT
HETATM    1  N1  UNL     1      17.377  38.205  30.050  1.00  0.00    -0.388 N 
ATOM      2  H11 UNL     1      18.023  37.459  29.790  1.00  0.00     0.157 HD
ATOM      3  H12 UNL     1      17.129  38.268  31.037  1.00  0.00     0.157 HD
HETATM    4  C1  UNL     1      16.899  39.015  29.198  1.00  0.00     0.093 C 
HETATM    5  C2  UNL     1      15.965  40.096  29.575  1.00  0.00     0.201 C 
HETATM    6  N2  UNL     1      14.809  39.941  28.699  1.00  0.00    -0.353 N 
HETATM    7  C8  UNL     1      15.061  39.901  27.294  1.00  0.00     0.150 A 
HETATM    8  N4  UNL     1      14.157  40.355  26.408  1.00  0.00    -0.174 N 
ATOM      9  H4  UNL     1      13.266  40.726  26.737  1.00  0.00     0.186 HD
HETATM   10  C9  UNL     1      14.420  40.322  25.102  1.00  0.00     0.683 A 
HETATM   11  N6  UNL     1      15.592  39.830  24.695  1.00  0.00    -0.174 N 
ATOM     12  H6  UNL     1      15.773  39.812  23.691  1.00  0.00     0.186 HD
HETATM   13  C14 UNL     1      16.556  39.355  25.510  1.00  0.00     0.150 A 
HETATM   14  C20 UNL     1      16.289  39.388  26.860  1.00  0.00     0.123 A 
HETATM   15  N9  UNL     1      17.245  38.928  27.823  1.00  0.00    -0.339 N 
ATOM     16  H9  UNL     1      18.146  38.550  27.531  1.00  0.00     0.167 HD
ENDROOT
BRANCH  13  17
HETATM   17  N7  UNL     1      17.770  38.826  25.000  1.00  0.00    -0.365 N 
HETATM   18  C15 UNL     1      18.511  37.890  25.811  1.00  0.00     0.126 C 
HETATM   19  C16 UNL     1      19.967  37.865  25.397  1.00  0.00     0.052 C 
HETATM   20  C17 UNL     1      19.968  37.295  23.972  1.00  0.00     0.186 C 
HETATM   21  C18 UNL     1      19.102  38.090  23.051  1.00  0.00     0.052 C 
HETATM   22  C19 UNL     1      18.311  39.176  23.707  1.00  0.00     0.126 C 
BRANCH  20  23
HETATM   23  N8  UNL     1      21.353  37.223  23.559  1.00  0.00    -0.075 N 
ATOM     24  H83 UNL     1      21.965  36.822  24.269  1.00  0.00     0.274 HD
ATOM     25  H82 UNL     1      21.523  36.525  22.835  1.00  0.00     0.274 HD
ATOM     26  H81 UNL     1      21.621  38.167  23.282  1.00  0.00     0.274 HD
ENDBRANCH  20  23
ENDBRANCH  13  17
BRANCH  10  27
HETATM   27  N5  UNL     1      13.490  40.791  24.137  1.00  0.00    -0.213 N 
HETATM   28  C10 UNL     1      13.813  40.859  22.730  1.00  0.00     0.167 C 
HETATM   29  C11 UNL     1      12.974  41.983  22.145  1.00  0.00     0.188 C 
HETATM   30  O1  UNL     1      11.623  41.769  22.249  1.00  0.00    -0.388 OA
HETATM   31  C12 UNL     1      11.230  41.053  23.352  1.00  0.00     0.188 C 
HETATM   32  C13 UNL     1      12.171  41.221  24.540  1.00  0.00     0.167 C 
ENDBRANCH  10  27
BRANCH   6  33
HETATM   33  C3  UNL     1      13.481  39.841  29.201  1.00  0.00     0.088 C 
HETATM   34  C4  UNL     1      13.486  38.919  30.418  1.00  0.00     0.027 C 
HETATM   35  C5  UNL     1      12.058  38.412  30.532  1.00  0.00     0.035 C 
HETATM   36  C6  UNL     1      11.352  38.875  29.303  1.00  0.00     0.185 C 
HETATM   37  C7  UNL     1      12.454  39.265  28.284  1.00  0.00     0.058 C 
BRANCH  36  38
HETATM   38  N3  UNL     1      10.573  37.847  28.650  1.00  0.00    -0.075 N 
ATOM     39  H33 UNL     1      10.590  37.973  27.638  1.00  0.00     0.274 HD
ATOM     40  H32 UNL     1      11.042  36.944  28.718  1.00  0.00     0.274 HD
ATOM     41  H31 UNL     1       9.613  37.776  28.986  1.00  0.00     0.274 HD
ENDBRANCH  36  38
ENDBRANCH   6  33
TORSDOF 5
ENDMDL
MODEL 5
REMARK VINA RESULT: -9.173441057      2.660      6.123
REMARK  5 active torsions:
REMARK  status: ('A' for Active; 'I' for Inactive)
REMARK    1  A    between atoms: N2_6  and  C3_7 
REMARK    2  A    between atoms: C6_10  and  N3_11 
REMARK    3  A    between atoms: C9_19  and  N5_20 
REMARK    4  A    between atoms: C14_28  and  N7_29 
REMARK    5  A    between atoms: C17_32  and  N8_33 
ROOT
HETATM    1  N1  UNL     1      11.847  42.081  27.328  1.00  0.00    -0.388 N 
ATOM      2  H11 UNL     1      11.270  42.847  26.978  1.00  0.00     0.157 HD
ATOM      3  H12 UNL     1      11.954  42.017  28.341  1.00  0.00     0.157 HD
HETATM    4  C1  UNL     1      12.409  41.247  26.553  1.00  0.00     0.093 C 
HETATM    5  C2  UNL     1      13.244  40.139  27.059  1.00  0.00     0.201 C 
HETATM    6  N2  UNL     1      14.515  40.247  26.351  1.00  0.00    -0.353 N 
HETATM    7  C8  UNL     1      14.461  40.283  24.925  1.00  0.00     0.150 A 
HETATM    8  N4  UNL     1      15.462  39.791  24.174  1.00  0.00    -0.174 N 
ATOM      9  H4  UNL     1      16.286  39.393  24.625  1.00  0.00     0.186 HD
HETATM   10  C9  UNL     1      15.384  39.823  22.844  1.00  0.00     0.683 A 
HETATM   11  N6  UNL     1      14.297  40.351  22.277  1.00  0.00    -0.174 N 
ATOM     12  H6  UNL     1      14.257  40.367  21.258  1.00  0.00     0.186 HD
HETATM   13  C14 UNL     1      13.247  40.866  22.950  1.00  0.00     0.150 A 
HETATM   14  C20 UNL     1      13.323  40.834  24.324  1.00  0.00     0.123 A 
HETATM   15  N9  UNL     1      12.261  41.335  25.143  1.00  0.00    -0.339 N 
ATOM     16  H9  UNL     1      11.423  41.742  24.728  1.00  0.00     0.167 HD
ENDROOT
BRANCH  13  17
HETATM   17  N7  UNL     1      12.135  41.432  22.275  1.00  0.00    -0.365 N 
HETATM   18  C15 UNL     1      11.027  40.575  21.931  1.00  0.00     0.126 C 
HETATM   19  C16 UNL     1      10.232  41.168  20.787  1.00  0.00     0.052 C 
HETATM   20  C17 UNL     1       9.619  42.457  21.351  1.00  0.00     0.186 C 
HETATM   21  C18 UNL     1      10.661  43.381  21.892  1.00  0.00     0.052 C 
HETATM   22  C19 UNL     1      12.050  42.826  21.907  1.00  0.00     0.126 C 
BRANCH  20  23
HETATM   23  N8  UNL     1       8.821  43.031  20.290  1.00  0.00    -0.075 N 
ATOM     24  H83 UNL     1       9.296  43.043  19.388  1.00  0.00     0.274 HD
ATOM     25  H82 UNL     1       8.035  42.442  20.011  1.00  0.00     0.274 HD
ATOM     26  H81 UNL     1       8.537  43.957  20.609  1.00  0.00     0.274 HD
ENDBRANCH  20  23
ENDBRANCH  13  17
BRANCH  10  27
HETATM   27  N5  UNL     1      16.421  39.314  22.019  1.00  0.00    -0.213 N 
HETATM   28  C10 UNL     1      17.790  39.761  22.145  1.00  0.00     0.167 C 
HETATM   29  C11 UNL     1      18.426  39.601  20.773  1.00  0.00     0.188 C 
HETATM   30  O1  UNL     1      18.454  38.303  20.330  1.00  0.00    -0.388 OA
HETATM   31  C12 UNL     1      17.409  37.521  20.753  1.00  0.00     0.188 C 
HETATM   32  C13 UNL     1      16.134  38.316  21.014  1.00  0.00     0.167 C 
ENDBRANCH  10  27
BRANCH   6  33
HETATM   33  C3  UNL     1      15.763  40.305  27.033  1.00  0.00     0.088 C 
HETATM   34  C4  UNL     1      16.179  38.886  27.413  1.00  0.00     0.027 C 
HETATM   35  C5  UNL     1      17.142  39.058  28.577  1.00  0.00     0.035 C 
HETATM   36  C6  UNL     1      17.091  40.501  28.950  1.00  0.00     0.185 C 
HETATM   37  C7  UNL     1      15.798  41.074  28.312  1.00  0.00     0.058 C 
BRANCH  36  38
HETATM   38  N3  UNL     1      16.952  40.735  30.370  1.00  0.00    -0.075 N 
ATOM     39  H33 UNL     1      17.529  41.525  30.661  1.00  0.00     0.274 HD
ATOM     40  H32 UNL     1      16.028  41.111  30.583  1.00  0.00     0.274 HD
ATOM     41  H31 UNL     1      17.147  39.918  30.948  1.00  0.00     0.274 HD
ENDBRANCH  36  38
ENDBRANCH   6  33
TORSDOF 5
ENDMDL
