MODEL 1
REMARK VINA RESULT: -7.844449517      0.000      0.000
REMARK  10 active torsions:
REMARK  status: ('A' for Active; 'I' for Inactive)
REMARK    1  A    between atoms: O1_2  and  C2_3 
REMARK    2  A    between atoms: C2_3  and  C3_5 
REMARK    3  A    between atoms: C7_10  and  N1_11 
REMARK    4  A    between atoms: N1_11  and  N2_13 
REMARK       I    between atoms: N2_13  and  C8_15 
REMARK    5  A    between atoms: C8_15  and  C9_17 
REMARK    6  A    between atoms: C9_17  and  C10_18 
REMARK    7  A    between atoms: C9_17  and  N3_22 
REMARK    8  A    between atoms: C10_18  and  C11_19 
REMARK    9  A    between atoms: C11_19  and  S2_20 
REMARK       I    between atoms: N3_22  and  C13_24 
REMARK   10  A    between atoms: C13_24  and  C14_26 
ROOT
HETATM    1  N1  UNL     1      16.009  35.871  15.517  1.00  0.00    -0.282 N 
ATOM      2  H1  UNL     1      16.835  36.403  15.244  1.00  0.00     0.188 HD
ENDROOT
BRANCH   1   3
HETATM    3  C7  UNL     1      16.057  35.071  16.522  1.00  0.00     0.123 A 
HETATM    4  C6  UNL     1      14.999  34.211  16.752  1.00  0.00     0.080 A 
HETATM    5  C5  UNL     1      15.049  33.356  17.828  1.00  0.00     0.052 A 
HETATM    6  C4  UNL     1      16.160  33.388  18.640  1.00  0.00     0.066 A 
HETATM    7  N5  UNL     1      13.987  32.451  18.128  1.00  0.00    -0.383 N 
HETATM    8  S1  UNL     1      16.199  32.257  20.018  1.00  0.00    -0.107 SA
HETATM    9  C20 UNL     1      17.185  34.260  18.370  1.00  0.00     0.124 A 
HETATM   10  C3  UNL     1      14.485  31.957  20.515  1.00  0.00     0.174 C 
HETATM   11  C21 UNL     1      13.508  32.111  19.418  1.00  0.00     0.101 C 
HETATM   12  C22 UNL     1      12.530  33.224  19.831  1.00  0.00     0.034 C 
HETATM   13  N4  UNL     1      17.134  35.095  17.318  1.00  0.00    -0.331 N 
HETATM   14 CL2  UNL     1      18.566  34.247  19.443  1.00  0.00    -0.063 Cl
ATOM     15  H4  UNL     1      17.904  35.737  17.130  1.00  0.00     0.168 HD
ATOM     16  H5  UNL     1      13.526  32.005  17.336  1.00  0.00     0.160 HD
BRANCH  10  17
HETATM   17  C2  UNL     1      14.376  30.602  21.169  1.00  0.00     0.274 C 
HETATM   18  O2  UNL     1      14.825  30.388  22.329  1.00  0.00    -0.264 OA
BRANCH  17  19
HETATM   19  O1  UNL     1      13.780  29.533  20.520  1.00  0.00    -0.326 OA
HETATM   20  C1  UNL     1      14.528  28.616  19.742  1.00  0.00     0.213 C 
ENDBRANCH  17  19
ENDBRANCH  10  17
ENDBRANCH   1   3
BRANCH   1  21
HETATM   21  N2  UNL     1      14.803  36.005  14.793  1.00  0.00    -0.263 N 
HETATM   22  C8  UNL     1      14.744  36.930  13.753  1.00  0.00     0.282 C 
HETATM   23  O3  UNL     1      15.815  37.603  13.510  1.00  0.00    -0.265 OA
ATOM     24  H2  UNL     1      13.991  35.435  15.028  1.00  0.00     0.190 HD
BRANCH  22  25
HETATM   25  C9  UNL     1      13.620  37.257  12.865  1.00  0.00     0.082 C 
BRANCH  25  26
HETATM   26  C10 UNL     1      13.192  36.253  11.871  1.00  0.00     0.073 C 
BRANCH  26  27
HETATM   27  C11 UNL     1      14.299  35.502  11.179  1.00  0.00     0.080 C 
BRANCH  27  28
HETATM   28  S2  UNL     1      13.873  35.340   9.419  1.00  0.00    -0.173 SA
HETATM   29  C12 UNL     1      12.132  35.743   9.128  1.00  0.00     0.089 C 
ENDBRANCH  27  28
ENDBRANCH  26  27
ENDBRANCH  25  26
BRANCH  25  30
HETATM   30  N3  UNL     1      13.651  38.620  12.418  1.00  0.00    -0.322 N 
HETATM   31  C13 UNL     1      13.049  39.716  13.072  1.00  0.00     0.257 C 
HETATM   32  O4  UNL     1      12.409  39.542  14.159  1.00  0.00    -0.267 OA
ATOM     33  H3  UNL     1      14.151  38.814  11.551  1.00  0.00     0.169 HD
BRANCH  31  34
HETATM   34  C14 UNL     1      13.128  41.070  12.549  1.00  0.00     0.054 A 
HETATM   35  C15 UNL     1      12.127  41.469  11.660  1.00  0.00     0.019 A 
HETATM   36  C16 UNL     1      12.189  42.747  11.158  1.00  0.00     0.001 A 
HETATM   37  C17 UNL     1      13.207  43.606  11.520  1.00  0.00     0.002 A 
HETATM   38  C18 UNL     1      14.192  43.210  12.396  1.00  0.00     0.025 A 
HETATM   39  C19 UNL     1      14.138  41.933  12.904  1.00  0.00     0.049 A 
HETATM   40 CL1  UNL     1      15.395  41.433  14.019  1.00  0.00    -0.083 Cl
ENDBRANCH  31  34
ENDBRANCH  25  30
ENDBRANCH  22  25
ENDBRANCH   1  21
TORSDOF 10
ENDMDL
MODEL 2
REMARK VINA RESULT: -7.746449778      2.278      3.277
REMARK  10 active torsions:
REMARK  status: ('A' for Active; 'I' for Inactive)
REMARK    1  A    between atoms: O1_2  and  C2_3 
REMARK    2  A    between atoms: C2_3  and  C3_5 
REMARK    3  A    between atoms: C7_10  and  N1_11 
REMARK    4  A    between atoms: N1_11  and  N2_13 
REMARK       I    between atoms: N2_13  and  C8_15 
REMARK    5  A    between atoms: C8_15  and  C9_17 
REMARK    6  A    between atoms: C9_17  and  C10_18 
REMARK    7  A    between atoms: C9_17  and  N3_22 
REMARK    8  A    between atoms: C10_18  and  C11_19 
REMARK    9  A    between atoms: C11_19  and  S2_20 
REMARK       I    between atoms: N3_22  and  C13_24 
REMARK   10  A    between atoms: C13_24  and  C14_26 
ROOT
HETATM    1  N1  UNL     1      16.029  35.739  15.220  1.00  0.00    -0.282 N 
ATOM      2  H1  UNL     1      16.856  35.981  14.673  1.00  0.00     0.188 HD
ENDROOT
BRANCH   1   3
HETATM    3  C7  UNL     1      16.155  35.190  16.375  1.00  0.00     0.123 A 
HETATM    4  C6  UNL     1      16.745  35.904  17.402  1.00  0.00     0.080 A 
HETATM    5  C5  UNL     1      16.880  35.317  18.637  1.00  0.00     0.052 A 
HETATM    6  C4  UNL     1      16.417  34.032  18.808  1.00  0.00     0.066 A 
HETATM    7  N5  UNL     1      17.490  35.995  19.737  1.00  0.00    -0.383 N 
HETATM    8  S1  UNL     1      16.596  33.306  20.427  1.00  0.00    -0.107 SA
HETATM    9  C20 UNL     1      15.839  33.365  17.758  1.00  0.00     0.124 A 
HETATM   10  C3  UNL     1      18.051  34.060  21.196  1.00  0.00     0.174 C 
HETATM   11  C21 UNL     1      18.347  35.423  20.709  1.00  0.00     0.101 C 
HETATM   12  C22 UNL     1      19.754  35.391  20.091  1.00  0.00     0.034 C 
HETATM   13  N4  UNL     1      15.708  33.939  16.550  1.00  0.00    -0.331 N 
HETATM   14 CL2  UNL     1      15.274  31.735  18.045  1.00  0.00    -0.063 Cl
ATOM     15  H4  UNL     1      15.275  33.431  15.779  1.00  0.00     0.168 HD
ATOM     16  H5  UNL     1      17.289  36.990  19.831  1.00  0.00     0.160 HD
BRANCH  10  17
HETATM   17  C2  UNL     1      17.906  34.025  22.697  1.00  0.00     0.274 C 
HETATM   18  O2  UNL     1      16.939  33.437  23.255  1.00  0.00    -0.264 OA
BRANCH  17  19
HETATM   19  O1  UNL     1      18.830  34.641  23.526  1.00  0.00    -0.326 OA
HETATM   20  C1  UNL     1      18.440  35.550  24.539  1.00  0.00     0.213 C 
ENDBRANCH  17  19
ENDBRANCH  10  17
ENDBRANCH   1   3
BRANCH   1  21
HETATM   21  N2  UNL     1      14.737  36.003  14.713  1.00  0.00    -0.263 N 
HETATM   22  C8  UNL     1      14.586  36.988  13.740  1.00  0.00     0.282 C 
HETATM   23  O3  UNL     1      15.655  37.594  13.354  1.00  0.00    -0.265 OA
ATOM     24  H2  UNL     1      13.929  35.482  15.053  1.00  0.00     0.190 HD
BRANCH  22  25
HETATM   25  C9  UNL     1      13.364  37.449  13.067  1.00  0.00     0.082 C 
BRANCH  25  26
HETATM   26  C10 UNL     1      12.631  36.496  12.209  1.00  0.00     0.073 C 
BRANCH  26  27
HETATM   27  C11 UNL     1      13.424  35.877  11.088  1.00  0.00     0.080 C 
BRANCH  27  28
HETATM   28  S2  UNL     1      12.357  35.758   9.622  1.00  0.00    -0.173 SA
HETATM   29  C12 UNL     1      13.320  35.350   8.144  1.00  0.00     0.089 C 
ENDBRANCH  27  28
ENDBRANCH  26  27
ENDBRANCH  25  26
BRANCH  25  30
HETATM   30  N3  UNL     1      13.480  38.790  12.571  1.00  0.00    -0.322 N 
HETATM   31  C13 UNL     1      12.982  39.949  13.203  1.00  0.00     0.257 C 
HETATM   32  O4  UNL     1      12.366  39.859  14.314  1.00  0.00    -0.267 OA
ATOM     33  H3  UNL     1      13.964  38.917  11.682  1.00  0.00     0.169 HD
BRANCH  31  34
HETATM   34  C14 UNL     1      13.143  41.275  12.630  1.00  0.00     0.054 A 
HETATM   35  C15 UNL     1      12.184  41.688  11.702  1.00  0.00     0.019 A 
HETATM   36  C16 UNL     1      12.324  42.940  11.152  1.00  0.00     0.001 A 
HETATM   37  C17 UNL     1      13.376  43.760  11.506  1.00  0.00     0.002 A 
HETATM   38  C18 UNL     1      14.319  43.350  12.421  1.00  0.00     0.025 A 
HETATM   39  C19 UNL     1      14.188  42.098  12.977  1.00  0.00     0.049 A 
HETATM   40 CL1  UNL     1      15.391  41.580  14.141  1.00  0.00    -0.083 Cl
ENDBRANCH  31  34
ENDBRANCH  25  30
ENDBRANCH  22  25
ENDBRANCH   1  21
TORSDOF 10
ENDMDL
MODEL 3
REMARK VINA RESULT: -7.670694394      2.208      2.670
REMARK  10 active torsions:
REMARK  status: ('A' for Active; 'I' for Inactive)
REMARK    1  A    between atoms: O1_2  and  C2_3 
REMARK    2  A    between atoms: C2_3  and  C3_5 
REMARK    3  A    between atoms: C7_10  and  N1_11 
REMARK    4  A    between atoms: N1_11  and  N2_13 
REMARK       I    between atoms: N2_13  and  C8_15 
REMARK    5  A    between atoms: C8_15  and  C9_17 
REMARK    6  A    between atoms: C9_17  and  C10_18 
REMARK    7  A    between atoms: C9_17  and  N3_22 
REMARK    8  A    between atoms: C10_18  and  C11_19 
REMARK    9  A    between atoms: C11_19  and  S2_20 
REMARK       I    between atoms: N3_22  and  C13_24 
REMARK   10  A    between atoms: C13_24  and  C14_26 
ROOT
HETATM    1  N1  UNL     1      15.979  35.628  15.219  1.00  0.00    -0.282 N 
ATOM      2  H1  UNL     1      16.802  35.482  14.634  1.00  0.00     0.188 HD
ENDROOT
BRANCH   1   3
HETATM    3  C7  UNL     1      16.085  35.620  16.500  1.00  0.00     0.123 A 
HETATM    4  C6  UNL     1      16.730  34.564  17.118  1.00  0.00     0.080 A 
HETATM    5  C5  UNL     1      16.843  34.555  18.488  1.00  0.00     0.052 A 
HETATM    6  C4  UNL     1      16.307  35.605  19.198  1.00  0.00     0.066 A 
HETATM    7  N5  UNL     1      17.487  33.490  19.189  1.00  0.00    -0.383 N 
HETATM    8  S1  UNL     1      16.483  35.568  20.972  1.00  0.00    -0.107 SA
HETATM    9  C20 UNL     1      15.676  36.629  18.539  1.00  0.00     0.124 A 
HETATM   10  C3  UNL     1      16.551  33.828  21.469  1.00  0.00     0.174 C 
HETATM   11  C21 UNL     1      17.082  32.929  20.425  1.00  0.00     0.101 C 
HETATM   12  C22 UNL     1      15.983  31.903  20.103  1.00  0.00     0.034 C 
HETATM   13  N4  UNL     1      15.566  36.638  17.200  1.00  0.00    -0.331 N 
HETATM   14 CL2  UNL     1      15.017  37.932  19.504  1.00  0.00    -0.063 Cl
ATOM     15  H4  UNL     1      15.094  37.407  16.724  1.00  0.00     0.168 HD
ATOM     16  H5  UNL     1      18.321  33.095  18.756  1.00  0.00     0.160 HD
BRANCH  10  17
HETATM   17  C2  UNL     1      17.322  33.699  22.759  1.00  0.00     0.274 C 
HETATM   18  O2  UNL     1      18.577  33.829  22.796  1.00  0.00    -0.264 OA
BRANCH  17  19
HETATM   19  O1  UNL     1      16.682  33.430  23.958  1.00  0.00    -0.326 OA
HETATM   20  C1  UNL     1      15.399  32.833  24.006  1.00  0.00     0.213 C 
ENDBRANCH  17  19
ENDBRANCH  10  17
ENDBRANCH   1   3
BRANCH   1  21
HETATM   21  N2  UNL     1      14.713  35.840  14.629  1.00  0.00    -0.263 N 
HETATM   22  C8  UNL     1      14.586  36.823  13.648  1.00  0.00     0.282 C 
HETATM   23  O3  UNL     1      15.652  37.474  13.335  1.00  0.00    -0.265 OA
ATOM     24  H2  UNL     1      13.907  35.285  14.914  1.00  0.00     0.190 HD
BRANCH  22  25
HETATM   25  C9  UNL     1      13.393  37.235  12.897  1.00  0.00     0.082 C 
BRANCH  25  26
HETATM   26  C10 UNL     1      12.775  36.265  11.970  1.00  0.00     0.073 C 
BRANCH  26  27
HETATM   27  C11 UNL     1      12.043  36.855  10.794  1.00  0.00     0.080 C 
BRANCH  27  28
HETATM   28  S2  UNL     1      12.278  35.763   9.360  1.00  0.00    -0.173 SA
HETATM   29  C12 UNL     1      13.988  35.175   9.260  1.00  0.00     0.089 C 
ENDBRANCH  27  28
ENDBRANCH  26  27
ENDBRANCH  25  26
BRANCH  25  30
HETATM   30  N3  UNL     1      13.473  38.591  12.436  1.00  0.00    -0.322 N 
HETATM   31  C13 UNL     1      13.008  39.727  13.132  1.00  0.00     0.257 C 
HETATM   32  O4  UNL     1      12.459  39.600  14.273  1.00  0.00    -0.267 OA
ATOM     33  H3  UNL     1      13.904  38.748  11.525  1.00  0.00     0.169 HD
BRANCH  31  34
HETATM   34  C14 UNL     1      13.129  41.071  12.590  1.00  0.00     0.054 A 
HETATM   35  C15 UNL     1      12.142  41.488  11.694  1.00  0.00     0.019 A 
HETATM   36  C16 UNL     1      12.243  42.757  11.175  1.00  0.00     0.001 A 
HETATM   37  C17 UNL     1      13.286  43.589  11.528  1.00  0.00     0.002 A 
HETATM   38  C18 UNL     1      14.257  43.175  12.411  1.00  0.00     0.025 A 
HETATM   39  C19 UNL     1      14.164  41.906  12.936  1.00  0.00     0.049 A 
HETATM   40 CL1  UNL     1      15.404  41.384  14.060  1.00  0.00    -0.083 Cl
ENDBRANCH  31  34
ENDBRANCH  25  30
ENDBRANCH  22  25
ENDBRANCH   1  21
TORSDOF 10
ENDMDL
MODEL 4
REMARK VINA RESULT: -7.630377227      3.695      5.547
REMARK  10 active torsions:
REMARK  status: ('A' for Active; 'I' for Inactive)
REMARK    1  A    between atoms: O1_2  and  C2_3 
REMARK    2  A    between atoms: C2_3  and  C3_5 
REMARK    3  A    between atoms: C7_10  and  N1_11 
REMARK    4  A    between atoms: N1_11  and  N2_13 
REMARK       I    between atoms: N2_13  and  C8_15 
REMARK    5  A    between atoms: C8_15  and  C9_17 
REMARK    6  A    between atoms: C9_17  and  C10_18 
REMARK    7  A    between atoms: C9_17  and  N3_22 
REMARK    8  A    between atoms: C10_18  and  C11_19 
REMARK    9  A    between atoms: C11_19  and  S2_20 
REMARK       I    between atoms: N3_22  and  C13_24 
REMARK   10  A    between atoms: C13_24  and  C14_26 
ROOT
HETATM    1  N1  UNL     1      16.401  33.637  16.674  1.00  0.00    -0.282 N 
ATOM      2  H1  UNL     1      17.033  33.121  16.063  1.00  0.00     0.188 HD
ENDROOT
BRANCH   1   3
HETATM    3  C7  UNL     1      16.566  33.610  17.948  1.00  0.00     0.123 A 
HETATM    4  C6  UNL     1      17.016  34.747  18.595  1.00  0.00     0.080 A 
HETATM    5  C5  UNL     1      17.194  34.718  19.958  1.00  0.00     0.052 A 
HETATM    6  C4  UNL     1      16.914  33.552  20.633  1.00  0.00     0.066 A 
HETATM    7  N5  UNL     1      17.667  35.853  20.685  1.00  0.00    -0.383 N 
HETATM    8  S1  UNL     1      17.142  33.554  22.401  1.00  0.00    -0.107 SA
HETATM    9  C20 UNL     1      16.469  32.451  19.946  1.00  0.00     0.124 A 
HETATM   10  C3  UNL     1      18.451  34.749  22.772  1.00  0.00     0.174 C 
HETATM   11  C21 UNL     1      18.565  35.837  21.781  1.00  0.00     0.101 C 
HETATM   12  C22 UNL     1      19.981  35.768  21.187  1.00  0.00     0.034 C 
HETATM   13  N4  UNL     1      16.296  32.479  18.614  1.00  0.00    -0.331 N 
HETATM   14 CL2  UNL     1      16.133  31.001  20.866  1.00  0.00    -0.063 Cl
ATOM     15  H4  UNL     1      15.964  31.652  18.117  1.00  0.00     0.168 HD
ATOM     16  H5  UNL     1      17.323  36.765  20.386  1.00  0.00     0.160 HD
BRANCH  10  17
HETATM   17  C2  UNL     1      18.265  35.286  24.169  1.00  0.00     0.274 C 
HETATM   18  O2  UNL     1      18.990  34.902  25.128  1.00  0.00    -0.264 OA
BRANCH  17  19
HETATM   19  O1  UNL     1      17.287  36.225  24.458  1.00  0.00    -0.326 OA
HETATM   20  C1  UNL     1      16.218  35.945  25.343  1.00  0.00     0.213 C 
ENDBRANCH  17  19
ENDBRANCH  10  17
ENDBRANCH   1   3
BRANCH   1  21
HETATM   21  N2  UNL     1      15.335  34.386  16.128  1.00  0.00    -0.263 N 
HETATM   22  C8  UNL     1      15.620  35.590  15.486  1.00  0.00     0.282 C 
HETATM   23  O3  UNL     1      16.859  35.937  15.424  1.00  0.00    -0.265 OA
ATOM     24  H2  UNL     1      14.374  34.053  16.201  1.00  0.00     0.190 HD
BRANCH  22  25
HETATM   25  C9  UNL     1      14.701  36.543  14.850  1.00  0.00     0.082 C 
BRANCH  25  26
HETATM   26  C10 UNL     1      13.696  37.221  15.693  1.00  0.00     0.073 C 
BRANCH  26  27
HETATM   27  C11 UNL     1      13.702  38.726  15.640  1.00  0.00     0.080 C 
BRANCH  27  28
HETATM   28  S2  UNL     1      15.396  39.307  15.953  1.00  0.00    -0.173 SA
HETATM   29  C12 UNL     1      15.930  40.479  14.680  1.00  0.00     0.089 C 
ENDBRANCH  27  28
ENDBRANCH  26  27
ENDBRANCH  25  26
BRANCH  25  30
HETATM   30  N3  UNL     1      14.253  36.099  13.561  1.00  0.00    -0.322 N 
HETATM   31  C13 UNL     1      14.271  36.863  12.374  1.00  0.00     0.257 C 
HETATM   32  O4  UNL     1      14.711  38.057  12.387  1.00  0.00    -0.267 OA
ATOM     33  H3  UNL     1      13.890  35.148  13.496  1.00  0.00     0.169 HD
BRANCH  31  34
HETATM   34  C14 UNL     1      13.797  36.335  11.106  1.00  0.00     0.054 A 
HETATM   35  C15 UNL     1      14.734  35.696  10.291  1.00  0.00     0.019 A 
HETATM   36  C16 UNL     1      14.299  35.191   9.089  1.00  0.00     0.001 A 
HETATM   37  C17 UNL     1      12.980  35.313   8.701  1.00  0.00     0.002 A 
HETATM   38  C18 UNL     1      12.058  35.944   9.506  1.00  0.00     0.025 A 
HETATM   39  C19 UNL     1      12.485  36.453  10.711  1.00  0.00     0.049 A 
HETATM   40 CL1  UNL     1      11.308  37.256  11.732  1.00  0.00    -0.083 Cl
ENDBRANCH  31  34
ENDBRANCH  25  30
ENDBRANCH  22  25
ENDBRANCH   1  21
TORSDOF 10
ENDMDL
MODEL 5
REMARK VINA RESULT: -7.559824038      2.568      3.444
REMARK  10 active torsions:
REMARK  status: ('A' for Active; 'I' for Inactive)
REMARK    1  A    between atoms: O1_2  and  C2_3 
REMARK    2  A    between atoms: C2_3  and  C3_5 
REMARK    3  A    between atoms: C7_10  and  N1_11 
REMARK    4  A    between atoms: N1_11  and  N2_13 
REMARK       I    between atoms: N2_13  and  C8_15 
REMARK    5  A    between atoms: C8_15  and  C9_17 
REMARK    6  A    between atoms: C9_17  and  C10_18 
REMARK    7  A    between atoms: C9_17  and  N3_22 
REMARK    8  A    between atoms: C10_18  and  C11_19 
REMARK    9  A    between atoms: C11_19  and  S2_20 
REMARK       I    between atoms: N3_22  and  C13_24 
REMARK   10  A    between atoms: C13_24  and  C14_26 
ROOT
HETATM    1  N1  UNL     1      15.394  35.575  14.800  1.00  0.00    -0.282 N 
ATOM      2  H1  UNL     1      15.800  34.873  14.181  1.00  0.00     0.188 HD
ENDROOT
BRANCH   1   3
HETATM    3  C7  UNL     1      15.881  35.761  15.975  1.00  0.00     0.123 A 
HETATM    4  C6  UNL     1      16.472  34.701  16.638  1.00  0.00     0.080 A 
HETATM    5  C5  UNL     1      16.992  34.899  17.895  1.00  0.00     0.052 A 
HETATM    6  C4  UNL     1      16.905  36.156  18.450  1.00  0.00     0.066 A 
HETATM    7  N5  UNL     1      17.605  33.845  18.637  1.00  0.00    -0.383 N 
HETATM    8  S1  UNL     1      17.601  36.382  20.076  1.00  0.00    -0.107 SA
HETATM    9  C20 UNL     1      16.308  37.176  17.753  1.00  0.00     0.124 A 
HETATM   10  C3  UNL     1      17.487  34.792  20.935  1.00  0.00     0.174 C 
HETATM   11  C21 UNL     1      17.497  33.623  20.032  1.00  0.00     0.101 C 
HETATM   12  C22 UNL     1      16.179  32.863  20.255  1.00  0.00     0.034 C 
HETATM   13  N4  UNL     1      15.800  36.981  16.524  1.00  0.00    -0.331 N 
HETATM   14 CL2  UNL     1      16.231  38.746  18.519  1.00  0.00    -0.063 Cl
ATOM     15  H4  UNL     1      15.360  37.749  16.018  1.00  0.00     0.168 HD
ATOM     16  H5  UNL     1      18.179  33.187  18.111  1.00  0.00     0.160 HD
BRANCH  10  17
HETATM   17  C2  UNL     1      18.575  34.700  21.976  1.00  0.00     0.274 C 
HETATM   18  O2  UNL     1      18.766  33.644  22.641  1.00  0.00    -0.264 OA
BRANCH  17  19
HETATM   19  O1  UNL     1      19.408  35.772  22.246  1.00  0.00    -0.326 OA
HETATM   20  C1  UNL     1      19.459  36.379  23.525  1.00  0.00     0.213 C 
ENDBRANCH  17  19
ENDBRANCH  10  17
ENDBRANCH   1   3
BRANCH   1  21
HETATM   21  N2  UNL     1      14.293  36.351  14.374  1.00  0.00    -0.263 N 
HETATM   22  C8  UNL     1      14.454  37.202  13.282  1.00  0.00     0.282 C 
HETATM   23  O3  UNL     1      15.613  37.215  12.720  1.00  0.00    -0.265 OA
ATOM     24  H2  UNL     1      13.397  36.289  14.855  1.00  0.00     0.190 HD
BRANCH  22  25
HETATM   25  C9  UNL     1      13.478  38.104  12.657  1.00  0.00     0.082 C 
BRANCH  25  26
HETATM   26  C10 UNL     1      12.739  37.628  11.471  1.00  0.00     0.073 C 
BRANCH  26  27
HETATM   27  C11 UNL     1      12.600  36.134  11.339  1.00  0.00     0.080 C 
BRANCH  27  28
HETATM   28  S2  UNL     1      12.304  35.734   9.591  1.00  0.00    -0.173 SA
HETATM   29  C12 UNL     1      13.830  35.199   8.775  1.00  0.00     0.089 C 
ENDBRANCH  27  28
ENDBRANCH  26  27
ENDBRANCH  25  26
BRANCH  25  30
HETATM   30  N3  UNL     1      13.931  39.465  12.619  1.00  0.00    -0.322 N 
HETATM   31  C13 UNL     1      13.148  40.603  12.907  1.00  0.00     0.257 C 
HETATM   32  O4  UNL     1      11.925  40.473  13.235  1.00  0.00    -0.267 OA
ATOM     33  H3  UNL     1      14.905  39.624  12.360  1.00  0.00     0.169 HD
BRANCH  31  34
HETATM   34  C14 UNL     1      13.687  41.951  12.843  1.00  0.00     0.054 A 
HETATM   35  C15 UNL     1      13.399  42.699  11.700  1.00  0.00     0.019 A 
HETATM   36  C16 UNL     1      13.902  43.977  11.627  1.00  0.00     0.001 A 
HETATM   37  C17 UNL     1      14.666  44.501  12.650  1.00  0.00     0.002 A 
HETATM   38  C18 UNL     1      14.948  43.761  13.776  1.00  0.00     0.025 A 
HETATM   39  C19 UNL     1      14.449  42.481  13.857  1.00  0.00     0.049 A 
HETATM   40 CL1  UNL     1      14.812  41.543  15.293  1.00  0.00    -0.083 Cl
ENDBRANCH  31  34
ENDBRANCH  25  30
ENDBRANCH  22  25
ENDBRANCH   1  21
TORSDOF 10
ENDMDL
