MODEL 1
REMARK VINA RESULT: -6.339707881      0.000      0.000
REMARK  8 active torsions:
REMARK  status: ('A' for Active; 'I' for Inactive)
REMARK    1  A    between atoms: C1_2  and  C2_3 
REMARK       I    between atoms: C1_2  and  N1_17 
REMARK    2  A    between atoms: C3_4  and  C4_5 
REMARK    3  A    between atoms: C5_6  and  C6_7 
REMARK    4  A    between atoms: C7_10  and  C8_12 
REMARK    5  A    between atoms: C8_12  and  C9_13 
REMARK    6  A    between atoms: C10_14  and  C11_15 
REMARK    7  A    between atoms: N1_17  and  C12_19 
REMARK    8  A    between atoms: C12_19  and  C13_20 
ROOT
HETATM    1  C2  UNL     1      13.785  24.902  22.409  1.00  0.00     0.070 C 
HETATM    2  C3  UNL     1      14.439  25.562  21.499  1.00  0.00    -0.014 C 
ENDROOT
BRANCH   1   3
HETATM    3  C1  UNL     1      12.403  24.506  22.396  1.00  0.00     0.240 C 
HETATM    4  O1  UNL     1      11.493  25.340  22.613  1.00  0.00    -0.269 OA
HETATM    5  N1  UNL     1      12.053  23.143  22.133  1.00  0.00    -0.357 N 
ATOM      6  H1  UNL     1      12.785  22.455  21.956  1.00  0.00     0.162 HD
BRANCH   5   7
HETATM    7  C12 UNL     1      10.674  22.740  22.119  1.00  0.00     0.137 C 
BRANCH   7   8
HETATM    8  C13 UNL     1      10.498  21.660  21.086  1.00  0.00     0.097 C 
HETATM    9  C14 UNL     1       9.126  21.696  20.469  1.00  0.00     0.035 C 
HETATM   10  C15 UNL     1       8.741  20.260  20.234  1.00  0.00     0.123 C 
HETATM   11  N2  UNL     1       9.645  19.497  21.068  1.00  0.00    -0.361 N 
HETATM   12  C16 UNL     1      10.521  20.355  21.786  1.00  0.00     0.223 C 
ATOM     13  H2  UNL     1       9.652  18.479  21.131  1.00  0.00     0.162 HD
HETATM   14  O4  UNL     1      11.185  20.039  22.825  1.00  0.00    -0.273 OA
ENDBRANCH   7   8
ENDBRANCH   5   7
ENDBRANCH   1   3
BRANCH   2  15
HETATM   15  C4  UNL     1      13.864  26.047  20.230  1.00  0.00     0.050 A 
HETATM   16  C5  UNL     1      14.083  25.163  19.000  1.00  0.00     0.121 A 
HETATM   17  C7  UNL     1      14.671  26.560  19.123  1.00  0.00     0.069 A 
HETATM   18 CL1  UNL     1      13.912  27.825  18.087  1.00  0.00    -0.117 Cl
BRANCH  16  19
HETATM   19  C6  UNL     1      13.026  25.013  18.000  1.00  0.00     0.179 C 
HETATM   20  O2  UNL     1      13.349  24.792  16.798  1.00  0.00    -0.648 OA
HETATM   21  O3  UNL     1      11.679  25.095  18.278  1.00  0.00    -0.648 OA
ENDBRANCH  16  19
BRANCH  17  22
HETATM   22  C8  UNL     1      16.157  26.629  19.111  1.00  0.00     0.121 C 
BRANCH  22  23
HETATM   23  C9  UNL     1      16.653  25.813  18.006  1.00  0.00    -0.104 C 
HETATM   24  C10 UNL     1      17.059  25.108  17.094  1.00  0.00    -0.096 C 
BRANCH  24  25
HETATM   25  C11 UNL     1      17.553  24.245  16.018  1.00  0.00     0.178 C 
HETATM   26 BR1  UNL     1      18.901  25.182  14.960  1.00  0.00    -0.083 Br
ENDBRANCH  24  25
ENDBRANCH  22  23
ENDBRANCH  17  22
ENDBRANCH   2  15
TORSDOF 8
ENDMDL
MODEL 2
REMARK VINA RESULT: -6.291895868      2.536      4.011
REMARK  8 active torsions:
REMARK  status: ('A' for Active; 'I' for Inactive)
REMARK    1  A    between atoms: C1_2  and  C2_3 
REMARK       I    between atoms: C1_2  and  N1_17 
REMARK    2  A    between atoms: C3_4  and  C4_5 
REMARK    3  A    between atoms: C5_6  and  C6_7 
REMARK    4  A    between atoms: C7_10  and  C8_12 
REMARK    5  A    between atoms: C8_12  and  C9_13 
REMARK    6  A    between atoms: C10_14  and  C11_15 
REMARK    7  A    between atoms: N1_17  and  C12_19 
REMARK    8  A    between atoms: C12_19  and  C13_20 
ROOT
HETATM    1  C2  UNL     1       9.731  24.740  19.204  1.00  0.00     0.070 C 
HETATM    2  C3  UNL     1      10.762  25.285  19.779  1.00  0.00    -0.014 C 
ENDROOT
BRANCH   1   3
HETATM    3  C1  UNL     1       9.137  23.460  19.477  1.00  0.00     0.240 C 
HETATM    4  O1  UNL     1       8.447  22.873  18.611  1.00  0.00    -0.269 OA
HETATM    5  N1  UNL     1       9.330  22.841  20.754  1.00  0.00    -0.357 N 
ATOM      6  H1  UNL     1       9.889  23.309  21.467  1.00  0.00     0.162 HD
BRANCH   5   7
HETATM    7  C12 UNL     1       8.739  21.561  21.034  1.00  0.00     0.137 C 
BRANCH   7   8
HETATM    8  C13 UNL     1       9.664  20.483  20.536  1.00  0.00     0.097 C 
HETATM    9  C14 UNL     1       8.976  19.561  19.566  1.00  0.00     0.035 C 
HETATM   10  C15 UNL     1       9.533  18.189  19.834  1.00  0.00     0.123 C 
HETATM   11  N2  UNL     1      10.143  18.291  21.142  1.00  0.00    -0.361 N 
HETATM   12  C16 UNL     1       9.984  19.597  21.678  1.00  0.00     0.223 C 
ATOM     13  H2  UNL     1      10.624  17.526  21.617  1.00  0.00     0.162 HD
HETATM   14  O4  UNL     1      10.098  19.916  22.905  1.00  0.00    -0.273 OA
ENDBRANCH   7   8
ENDBRANCH   5   7
ENDBRANCH   1   3
BRANCH   2  15
HETATM   15  C4  UNL     1      11.549  24.668  20.864  1.00  0.00     0.050 A 
HETATM   16  C5  UNL     1      11.336  25.235  22.269  1.00  0.00     0.121 A 
HETATM   17  C7  UNL     1      12.663  25.338  21.534  1.00  0.00     0.069 A 
HETATM   18 CL1  UNL     1      13.987  24.283  22.155  1.00  0.00    -0.117 Cl
BRANCH  16  19
HETATM   19  C6  UNL     1      11.329  24.348  23.432  1.00  0.00     0.179 C 
HETATM   20  O2  UNL     1      11.410  24.854  24.588  1.00  0.00    -0.648 OA
HETATM   21  O3  UNL     1      11.238  22.976  23.359  1.00  0.00    -0.648 OA
ENDBRANCH  16  19
BRANCH  17  22
HETATM   22  C8  UNL     1      13.126  26.722  21.244  1.00  0.00     0.121 C 
BRANCH  22  23
HETATM   23  C9  UNL     1      14.272  26.651  20.342  1.00  0.00    -0.104 C 
HETATM   24  C10 UNL     1      15.214  26.588  19.566  1.00  0.00    -0.096 C 
BRANCH  24  25
HETATM   25  C11 UNL     1      16.332  26.496  18.623  1.00  0.00     0.178 C 
HETATM   26 BR1  UNL     1      16.150  24.905  17.505  1.00  0.00    -0.083 Br
ENDBRANCH  24  25
ENDBRANCH  22  23
ENDBRANCH  17  22
ENDBRANCH   2  15
TORSDOF 8
ENDMDL
MODEL 3
REMARK VINA RESULT: -6.263237784      3.115      4.676
REMARK  8 active torsions:
REMARK  status: ('A' for Active; 'I' for Inactive)
REMARK    1  A    between atoms: C1_2  and  C2_3 
REMARK       I    between atoms: C1_2  and  N1_17 
REMARK    2  A    between atoms: C3_4  and  C4_5 
REMARK    3  A    between atoms: C5_6  and  C6_7 
REMARK    4  A    between atoms: C7_10  and  C8_12 
REMARK    5  A    between atoms: C8_12  and  C9_13 
REMARK    6  A    between atoms: C10_14  and  C11_15 
REMARK    7  A    between atoms: N1_17  and  C12_19 
REMARK    8  A    between atoms: C12_19  and  C13_20 
ROOT
HETATM    1  C2  UNL     1       8.536  25.012  19.789  1.00  0.00     0.070 C 
HETATM    2  C3  UNL     1       9.442  25.498  20.585  1.00  0.00    -0.014 C 
ENDROOT
BRANCH   1   3
HETATM    3  C1  UNL     1       8.133  23.641  19.637  1.00  0.00     0.240 C 
HETATM    4  O1  UNL     1       6.923  23.316  19.682  1.00  0.00    -0.269 OA
HETATM    5  N1  UNL     1       9.121  22.625  19.430  1.00  0.00    -0.357 N 
ATOM      6  H1  UNL     1      10.108  22.877  19.391  1.00  0.00     0.162 HD
BRANCH   5   7
HETATM    7  C12 UNL     1       8.726  21.252  19.277  1.00  0.00     0.137 C 
BRANCH   7   8
HETATM    8  C13 UNL     1       8.940  20.539  20.585  1.00  0.00     0.097 C 
HETATM    9  C14 UNL     1      10.075  21.140  21.368  1.00  0.00     0.035 C 
HETATM   10  C15 UNL     1      10.760  19.987  22.052  1.00  0.00     0.123 C 
HETATM   11  N2  UNL     1      10.304  18.814  21.337  1.00  0.00    -0.361 N 
HETATM   12  C16 UNL     1       9.421  19.172  20.283  1.00  0.00     0.223 C 
ATOM     13  H2  UNL     1      10.580  17.858  21.560  1.00  0.00     0.162 HD
HETATM   14  O4  UNL     1       9.120  18.441  19.285  1.00  0.00    -0.273 OA
ENDBRANCH   7   8
ENDBRANCH   5   7
ENDBRANCH   1   3
BRANCH   2  15
HETATM   15  C4  UNL     1      10.259  24.703  21.521  1.00  0.00     0.050 A 
HETATM   16  C5  UNL     1      10.657  25.388  22.831  1.00  0.00     0.121 A 
HETATM   17  C7  UNL     1      11.674  24.967  21.781  1.00  0.00     0.069 A 
HETATM   18 CL1  UNL     1      12.698  23.546  22.206  1.00  0.00    -0.117 Cl
BRANCH  16  19
HETATM   19  C6  UNL     1      10.695  24.628  24.081  1.00  0.00     0.179 C 
HETATM   20  O2  UNL     1      11.423  25.044  25.027  1.00  0.00    -0.648 OA
HETATM   21  O3  UNL     1       9.980  23.473  24.306  1.00  0.00    -0.648 OA
ENDBRANCH  16  19
BRANCH  17  22
HETATM   22  C8  UNL     1      12.461  26.075  21.175  1.00  0.00     0.121 C 
BRANCH  22  23
HETATM   23  C9  UNL     1      13.012  25.615  19.903  1.00  0.00    -0.104 C 
HETATM   24  C10 UNL     1      13.488  25.253  18.838  1.00  0.00    -0.096 C 
BRANCH  24  25
HETATM   25  C11 UNL     1      14.059  24.841  17.553  1.00  0.00     0.178 C 
HETATM   26 BR1  UNL     1      16.008  24.956  17.606  1.00  0.00    -0.083 Br
ENDBRANCH  24  25
ENDBRANCH  22  23
ENDBRANCH  17  22
ENDBRANCH   2  15
TORSDOF 8
ENDMDL
MODEL 4
REMARK VINA RESULT: -6.219325384      5.555      7.280
REMARK  8 active torsions:
REMARK  status: ('A' for Active; 'I' for Inactive)
REMARK    1  A    between atoms: C1_2  and  C2_3 
REMARK       I    between atoms: C1_2  and  N1_17 
REMARK    2  A    between atoms: C3_4  and  C4_5 
REMARK    3  A    between atoms: C5_6  and  C6_7 
REMARK    4  A    between atoms: C7_10  and  C8_12 
REMARK    5  A    between atoms: C8_12  and  C9_13 
REMARK    6  A    between atoms: C10_14  and  C11_15 
REMARK    7  A    between atoms: N1_17  and  C12_19 
REMARK    8  A    between atoms: C12_19  and  C13_20 
ROOT
HETATM    1  C2  UNL     1      10.445  24.873  22.706  1.00  0.00     0.070 C 
HETATM    2  C3  UNL     1      10.160  25.464  23.829  1.00  0.00    -0.014 C 
ENDROOT
BRANCH   1   3
HETATM    3  C1  UNL     1      10.960  23.545  22.509  1.00  0.00     0.240 C 
HETATM    4  O1  UNL     1      12.142  23.262  22.813  1.00  0.00    -0.269 OA
HETATM    5  N1  UNL     1      10.118  22.527  21.958  1.00  0.00    -0.357 N 
ATOM      6  H1  UNL     1       9.154  22.745  21.707  1.00  0.00     0.162 HD
BRANCH   5   7
HETATM    7  C12 UNL     1      10.625  21.197  21.758  1.00  0.00     0.137 C 
BRANCH   7   8
HETATM    8  C13 UNL     1       9.514  20.330  21.231  1.00  0.00     0.097 C 
HETATM    9  C14 UNL     1       9.936  18.891  21.118  1.00  0.00     0.035 C 
HETATM   10  C15 UNL     1       9.261  18.359  19.881  1.00  0.00     0.123 C 
HETATM   11  N2  UNL     1       8.867  19.540  19.143  1.00  0.00    -0.361 N 
HETATM   12  C16 UNL     1       9.261  20.722  19.826  1.00  0.00     0.223 C 
ATOM     13  H2  UNL     1       8.372  19.525  18.252  1.00  0.00     0.162 HD
HETATM   14  O4  UNL     1       9.367  21.880  19.308  1.00  0.00    -0.273 OA
ENDBRANCH   7   8
ENDBRANCH   5   7
ENDBRANCH   1   3
BRANCH   2  15
HETATM   15  C4  UNL     1      10.316  24.860  25.165  1.00  0.00     0.050 A 
HETATM   16  C5  UNL     1       9.225  25.177  26.190  1.00  0.00     0.121 A 
HETATM   17  C7  UNL     1      10.668  25.626  26.361  1.00  0.00     0.069 A 
HETATM   18 CL1  UNL     1      11.613  24.761  27.628  1.00  0.00    -0.117 Cl
BRANCH  16  19
HETATM   19  C6  UNL     1       8.771  24.152  27.129  1.00  0.00     0.179 C 
HETATM   20  O2  UNL     1       8.037  24.493  28.100  1.00  0.00    -0.648 OA
HETATM   21  O3  UNL     1       9.090  22.815  27.030  1.00  0.00    -0.648 OA
ENDBRANCH  16  19
BRANCH  17  22
HETATM   22  C8  UNL     1      10.877  27.099  26.400  1.00  0.00     0.121 C 
BRANCH  22  23
HETATM   23  C9  UNL     1      12.275  27.379  26.085  1.00  0.00    -0.104 C 
HETATM   24  C10 UNL     1      13.442  27.639  25.832  1.00  0.00    -0.096 C 
BRANCH  24  25
HETATM   25  C11 UNL     1      14.834  27.974  25.521  1.00  0.00     0.178 C 
HETATM   26 BR1  UNL     1      15.451  29.442  26.652  1.00  0.00    -0.083 Br
ENDBRANCH  24  25
ENDBRANCH  22  23
ENDBRANCH  17  22
ENDBRANCH   2  15
TORSDOF 8
ENDMDL
MODEL 5
REMARK VINA RESULT: -6.137731405      6.313      8.732
REMARK  8 active torsions:
REMARK  status: ('A' for Active; 'I' for Inactive)
REMARK    1  A    between atoms: C1_2  and  C2_3 
REMARK       I    between atoms: C1_2  and  N1_17 
REMARK    2  A    between atoms: C3_4  and  C4_5 
REMARK    3  A    between atoms: C5_6  and  C6_7 
REMARK    4  A    between atoms: C7_10  and  C8_12 
REMARK    5  A    between atoms: C8_12  and  C9_13 
REMARK    6  A    between atoms: C10_14  and  C11_15 
REMARK    7  A    between atoms: N1_17  and  C12_19 
REMARK    8  A    between atoms: C12_19  and  C13_20 
ROOT
HETATM    1  C2  UNL     1      10.400  24.920  22.865  1.00  0.00     0.070 C 
HETATM    2  C3  UNL     1      10.121  25.567  23.958  1.00  0.00    -0.014 C 
ENDROOT
BRANCH   1   3
HETATM    3  C1  UNL     1      10.864  23.566  22.730  1.00  0.00     0.240 C 
HETATM    4  O1  UNL     1      11.954  23.206  23.234  1.00  0.00    -0.269 OA
HETATM    5  N1  UNL     1      10.076  22.610  22.013  1.00  0.00    -0.357 N 
ATOM      6  H1  UNL     1       9.187  22.891  21.599  1.00  0.00     0.162 HD
BRANCH   5   7
HETATM    7  C12 UNL     1      10.532  21.254  21.874  1.00  0.00     0.137 C 
BRANCH   7   8
HETATM    8  C13 UNL     1       9.423  20.429  21.279  1.00  0.00     0.097 C 
HETATM    9  C14 UNL     1       9.790  18.973  21.203  1.00  0.00     0.035 C 
HETATM   10  C15 UNL     1       9.178  18.459  19.927  1.00  0.00     0.123 C 
HETATM   11  N2  UNL     1       8.884  19.649  19.157  1.00  0.00    -0.361 N 
HETATM   12  C16 UNL     1       9.281  20.819  19.858  1.00  0.00     0.223 C 
ATOM     13  H2  UNL     1       8.449  19.647  18.235  1.00  0.00     0.162 HD
HETATM   14  O4  UNL     1       9.470  21.967  19.341  1.00  0.00    -0.273 OA
ENDBRANCH   7   8
ENDBRANCH   5   7
ENDBRANCH   1   3
BRANCH   2  15
HETATM   15  C4  UNL     1      10.230  25.011  25.320  1.00  0.00     0.050 A 
HETATM   16  C5  UNL     1       8.961  25.048  26.176  1.00  0.00     0.121 A 
HETATM   17  C7  UNL     1      10.214  25.833  26.531  1.00  0.00     0.069 A 
HETATM   18 CL1  UNL     1      11.153  25.216  27.940  1.00  0.00    -0.117 Cl
BRANCH  16  19
HETATM   19  C6  UNL     1       8.641  23.937  27.072  1.00  0.00     0.179 C 
HETATM   20  O2  UNL     1       7.755  24.103  27.959  1.00  0.00    -0.648 OA
HETATM   21  O3  UNL     1       9.245  22.701  27.020  1.00  0.00    -0.648 OA
ENDBRANCH  16  19
BRANCH  17  22
HETATM   22  C8  UNL     1      10.054  27.312  26.556  1.00  0.00     0.121 C 
BRANCH  22  23
HETATM   23  C9  UNL     1       8.713  27.628  27.041  1.00  0.00    -0.104 C 
HETATM   24  C10 UNL     1       7.583  27.868  27.438  1.00  0.00    -0.096 C 
BRANCH  24  25
HETATM   25  C11 UNL     1       6.218  28.145  27.894  1.00  0.00     0.178 C 
HETATM   26 BR1  UNL     1       5.082  26.578  27.634  1.00  0.00    -0.083 Br
ENDBRANCH  24  25
ENDBRANCH  22  23
ENDBRANCH  17  22
ENDBRANCH   2  15
TORSDOF 8
ENDMDL
