MODEL 1
REMARK VINA RESULT: -6.429657818      0.000      0.000
REMARK  6 active torsions:
REMARK  status: ('A' for Active; 'I' for Inactive)
REMARK    1  A    between atoms: C3_3  and  N1_4 
REMARK       I    between atoms: N1_4  and  C4_6 
REMARK    2  A    between atoms: C4_6  and  C5_8 
REMARK    3  A    between atoms: C5_8  and  N2_9 
REMARK    4  A    between atoms: C5_8  and  C13_24 
REMARK       I    between atoms: N2_9  and  C6_11 
REMARK    5  A    between atoms: C6_11  and  C7_13 
REMARK    6  A    between atoms: C9_15  and  C10_16 
ROOT
HETATM    1  C1  UNL     1       9.413  17.990  18.720  1.00  0.00     0.014 C 
HETATM    2  C2  UNL     1       9.497  18.350  19.872  1.00  0.00    -0.098 C 
HETATM    3  C3  UNL     1       9.586  18.811  21.268  1.00  0.00     0.216 C 
ENDROOT
BRANCH   3   4
HETATM    4  N1  UNL     1      10.265  20.082  21.348  1.00  0.00    -0.349 N 
HETATM    5  C4  UNL     1       9.607  21.323  21.246  1.00  0.00     0.241 C 
HETATM    6  O1  UNL     1       8.382  21.377  21.077  1.00  0.00    -0.271 OA
ATOM      7  H1  UNL     1      11.275  20.082  21.486  1.00  0.00     0.163 HD
BRANCH   5   8
HETATM    8  C5  UNL     1      10.392  22.562  21.346  1.00  0.00     0.180 C 
BRANCH   8   9
HETATM    9  N2  UNL     1      10.046  23.394  22.480  1.00  0.00    -0.346 N 
HETATM   10  C6  UNL     1      11.016  23.934  23.308  1.00  0.00     0.241 C 
HETATM   11  O2  UNL     1      12.246  23.686  23.047  1.00  0.00    -0.271 OA
ATOM     12  H2  UNL     1       9.063  23.586  22.674  1.00  0.00     0.163 HD
BRANCH  10  13
HETATM   13  C7  UNL     1      10.828  24.794  24.501  1.00  0.00     0.174 C 
HETATM   14  C8  UNL     1       9.432  25.181  24.796  1.00  0.00     0.051 C 
HETATM   15  C9  UNL     1       9.404  25.889  26.138  1.00  0.00     0.108 C 
HETATM   16  C11 UNL     1      10.736  26.313  26.648  1.00  0.00     0.110 C 
HETATM   17 BR1  UNL     1      11.482  25.075  27.947  1.00  0.00    -0.085 Br
HETATM   18  C12 UNL     1      11.746  26.704  25.634  1.00  0.00     0.073 C 
HETATM   19  N3  UNL     1      11.695  25.924  24.469  1.00  0.00    -0.388 N 
ATOM     20  H3  UNL     1      12.249  26.153  23.644  1.00  0.00     0.159 HD
BRANCH  15  21
HETATM   21  C10 UNL     1       8.789  25.027  27.183  1.00  0.00     0.178 C 
HETATM   22  O3  UNL     1       8.259  25.577  28.172  1.00  0.00    -0.648 OA
HETATM   23  O4  UNL     1       8.773  23.645  27.118  1.00  0.00    -0.648 OA
ENDBRANCH  15  21
ENDBRANCH  10  13
ENDBRANCH   8   9
BRANCH   8  24
HETATM   24  C13 UNL     1      10.226  23.319  20.039  1.00  0.00     0.009 C 
HETATM   25  C14 UNL     1       9.183  24.396  20.093  1.00  0.00     0.012 C 
HETATM   26  C15 UNL     1      11.570  23.825  19.532  1.00  0.00     0.012 C 
ENDBRANCH   8  24
ENDBRANCH   5   8
ENDBRANCH   3   4
TORSDOF 6
ENDMDL
MODEL 2
REMARK VINA RESULT: -6.385902033      2.042      2.377
REMARK  6 active torsions:
REMARK  status: ('A' for Active; 'I' for Inactive)
REMARK    1  A    between atoms: C3_3  and  N1_4 
REMARK       I    between atoms: N1_4  and  C4_6 
REMARK    2  A    between atoms: C4_6  and  C5_8 
REMARK    3  A    between atoms: C5_8  and  N2_9 
REMARK    4  A    between atoms: C5_8  and  C13_24 
REMARK       I    between atoms: N2_9  and  C6_11 
REMARK    5  A    between atoms: C6_11  and  C7_13 
REMARK    6  A    between atoms: C9_15  and  C10_16 
ROOT
HETATM    1  C1  UNL     1       9.422  17.875  18.503  1.00  0.00     0.014 C 
HETATM    2  C2  UNL     1       9.488  18.224  19.660  1.00  0.00    -0.098 C 
HETATM    3  C3  UNL     1       9.547  18.666  21.064  1.00  0.00     0.216 C 
ENDROOT
BRANCH   3   4
HETATM    4  N1  UNL     1       9.715  20.096  21.147  1.00  0.00    -0.349 N 
HETATM    5  C4  UNL     1      10.567  20.727  22.074  1.00  0.00     0.241 C 
HETATM    6  O1  UNL     1      11.226  20.060  22.881  1.00  0.00    -0.271 OA
ATOM      7  H1  UNL     1       9.189  20.683  20.499  1.00  0.00     0.163 HD
BRANCH   5   8
HETATM    8  C5  UNL     1      10.671  22.193  22.072  1.00  0.00     0.180 C 
BRANCH   8   9
HETATM    9  N2  UNL     1       9.967  22.839  23.160  1.00  0.00    -0.346 N 
HETATM   10  C6  UNL     1      10.565  23.825  23.929  1.00  0.00     0.241 C 
HETATM   11  O2  UNL     1      11.770  24.164  23.654  1.00  0.00    -0.271 OA
ATOM     12  H2  UNL     1       9.007  22.563  23.364  1.00  0.00     0.163 HD
BRANCH  10  13
HETATM   13  C7  UNL     1       9.986  24.574  25.069  1.00  0.00     0.174 C 
HETATM   14  C8  UNL     1      10.803  25.697  25.577  1.00  0.00     0.051 C 
HETATM   15  C9  UNL     1       9.985  26.461  26.601  1.00  0.00     0.108 C 
HETATM   16  C11 UNL     1       8.768  25.752  27.084  1.00  0.00     0.110 C 
HETATM   17 BR1  UNL     1       7.145  26.328  26.183  1.00  0.00    -0.085 Br
HETATM   18  C12 UNL     1       8.846  24.273  27.163  1.00  0.00     0.073 C 
HETATM   19  N3  UNL     1       9.582  23.697  26.117  1.00  0.00    -0.388 N 
ATOM     20  H3  UNL     1       9.817  22.705  26.106  1.00  0.00     0.159 HD
BRANCH  15  21
HETATM   21  C10 UNL     1       9.540  27.773  26.058  1.00  0.00     0.178 C 
HETATM   22  O3  UNL     1       9.210  28.669  26.862  1.00  0.00    -0.648 OA
HETATM   23  O4  UNL     1       9.472  28.053  24.704  1.00  0.00    -0.648 OA
ENDBRANCH  15  21
ENDBRANCH  10  13
ENDBRANCH   8   9
BRANCH   8  24
HETATM   24  C13 UNL     1      10.175  22.688  20.724  1.00  0.00     0.009 C 
HETATM   25  C14 UNL     1       8.885  23.451  20.799  1.00  0.00     0.012 C 
HETATM   26  C15 UNL     1      11.270  23.453  19.991  1.00  0.00     0.012 C 
ENDBRANCH   8  24
ENDBRANCH   5   8
ENDBRANCH   3   4
TORSDOF 6
ENDMDL
MODEL 3
REMARK VINA RESULT: -6.253603799      1.842      2.192
REMARK  6 active torsions:
REMARK  status: ('A' for Active; 'I' for Inactive)
REMARK    1  A    between atoms: C3_3  and  N1_4 
REMARK       I    between atoms: N1_4  and  C4_6 
REMARK    2  A    between atoms: C4_6  and  C5_8 
REMARK    3  A    between atoms: C5_8  and  N2_9 
REMARK    4  A    between atoms: C5_8  and  C13_24 
REMARK       I    between atoms: N2_9  and  C6_11 
REMARK    5  A    between atoms: C6_11  and  C7_13 
REMARK    6  A    between atoms: C9_15  and  C10_16 
ROOT
HETATM    1  C1  UNL     1       9.422  18.039  18.863  1.00  0.00     0.014 C 
HETATM    2  C2  UNL     1       9.563  18.361  20.021  1.00  0.00    -0.098 C 
HETATM    3  C3  UNL     1       9.719  18.774  21.426  1.00  0.00     0.216 C 
ENDROOT
BRANCH   3   4
HETATM    4  N1  UNL     1      10.249  20.113  21.514  1.00  0.00    -0.349 N 
HETATM    5  C4  UNL     1       9.479  21.271  21.294  1.00  0.00     0.241 C 
HETATM    6  O1  UNL     1       8.278  21.186  21.008  1.00  0.00    -0.271 OA
ATOM      7  H1  UNL     1      11.235  20.227  21.747  1.00  0.00     0.163 HD
BRANCH   5   8
HETATM    8  C5  UNL     1      10.115  22.590  21.414  1.00  0.00     0.180 C 
BRANCH   8   9
HETATM    9  N2  UNL     1       9.614  23.395  22.508  1.00  0.00    -0.346 N 
HETATM   10  C6  UNL     1      10.410  23.723  23.594  1.00  0.00     0.241 C 
HETATM   11  O2  UNL     1      11.620  23.299  23.611  1.00  0.00    -0.271 OA
ATOM     12  H2  UNL     1       8.650  23.728  22.479  1.00  0.00     0.163 HD
BRANCH  10  13
HETATM   13  C7  UNL     1      10.048  24.527  24.786  1.00  0.00     0.174 C 
HETATM   14  C8  UNL     1      11.073  25.490  25.241  1.00  0.00     0.051 C 
HETATM   15  C9  UNL     1      10.470  26.351  26.336  1.00  0.00     0.108 C 
HETATM   16  C11 UNL     1       9.195  25.834  26.905  1.00  0.00     0.110 C 
HETATM   17 BR1  UNL     1       7.622  26.685  26.143  1.00  0.00    -0.085 Br
HETATM   18  C12 UNL     1       9.038  24.360  26.960  1.00  0.00     0.073 C 
HETATM   19  N3  UNL     1       9.590  23.700  25.851  1.00  0.00    -0.388 N 
ATOM     20  H3  UNL     1       9.659  22.683  25.810  1.00  0.00     0.159 HD
BRANCH  15  21
HETATM   21  C10 UNL     1      10.203  27.730  25.846  1.00  0.00     0.178 C 
HETATM   22  O3  UNL     1      10.088  28.648  26.685  1.00  0.00    -0.648 OA
HETATM   23  O4  UNL     1      10.074  28.050  24.506  1.00  0.00    -0.648 OA
ENDBRANCH  15  21
ENDBRANCH  10  13
ENDBRANCH   8   9
BRANCH   8  24
HETATM   24  C13 UNL     1       9.946  23.305  20.083  1.00  0.00     0.009 C 
HETATM   25  C14 UNL     1       8.915  24.396  20.111  1.00  0.00     0.012 C 
HETATM   26  C15 UNL     1      11.290  23.779  19.548  1.00  0.00     0.012 C 
ENDBRANCH   8  24
ENDBRANCH   5   8
ENDBRANCH   3   4
TORSDOF 6
ENDMDL
MODEL 4
REMARK VINA RESULT: -5.919156716      2.022      2.299
REMARK  6 active torsions:
REMARK  status: ('A' for Active; 'I' for Inactive)
REMARK    1  A    between atoms: C3_3  and  N1_4 
REMARK       I    between atoms: N1_4  and  C4_6 
REMARK    2  A    between atoms: C4_6  and  C5_8 
REMARK    3  A    between atoms: C5_8  and  N2_9 
REMARK    4  A    between atoms: C5_8  and  C13_24 
REMARK       I    between atoms: N2_9  and  C6_11 
REMARK    5  A    between atoms: C6_11  and  C7_13 
REMARK    6  A    between atoms: C9_15  and  C10_16 
ROOT
HETATM    1  C1  UNL     1       9.475  17.696  18.786  1.00  0.00     0.014 C 
HETATM    2  C2  UNL     1       9.650  18.177  19.882  1.00  0.00    -0.098 C 
HETATM    3  C3  UNL     1       9.844  18.781  21.212  1.00  0.00     0.216 C 
ENDROOT
BRANCH   3   4
HETATM    4  N1  UNL     1      10.189  20.177  21.098  1.00  0.00    -0.349 N 
HETATM    5  C4  UNL     1      10.157  21.078  22.180  1.00  0.00     0.241 C 
HETATM    6  O1  UNL     1       9.821  20.697  23.309  1.00  0.00    -0.271 OA
ATOM      7  H1  UNL     1      10.471  20.532  20.184  1.00  0.00     0.163 HD
BRANCH   5   8
HETATM    8  C5  UNL     1      10.533  22.481  21.958  1.00  0.00     0.180 C 
BRANCH   8   9
HETATM    9  N2  UNL     1       9.981  23.404  22.928  1.00  0.00    -0.346 N 
HETATM   10  C6  UNL     1      10.783  24.299  23.618  1.00  0.00     0.241 C 
HETATM   11  O2  UNL     1      12.042  24.301  23.375  1.00  0.00    -0.271 OA
ATOM     12  H2  UNL     1       8.977  23.395  23.108  1.00  0.00     0.163 HD
BRANCH  10  13
HETATM   13  C7  UNL     1      10.376  25.297  24.636  1.00  0.00     0.174 C 
HETATM   14  C8  UNL     1      10.931  25.089  25.991  1.00  0.00     0.051 C 
HETATM   15  C9  UNL     1      10.573  26.291  26.845  1.00  0.00     0.108 C 
HETATM   16  C11 UNL     1       9.524  27.176  26.270  1.00  0.00     0.110 C 
HETATM   17 BR1  UNL     1      10.254  28.736  25.370  1.00  0.00    -0.085 Br
HETATM   18  C12 UNL     1       8.475  26.521  25.449  1.00  0.00     0.073 C 
HETATM   19  N3  UNL     1       8.963  25.466  24.663  1.00  0.00    -0.388 N 
ATOM     20  H3  UNL     1       8.338  24.852  24.140  1.00  0.00     0.159 HD
BRANCH  15  21
HETATM   21  C10 UNL     1      11.768  27.139  27.101  1.00  0.00     0.178 C 
HETATM   22  O3  UNL     1      11.729  27.953  28.048  1.00  0.00    -0.648 OA
HETATM   23  O4  UNL     1      12.924  27.075  26.343  1.00  0.00    -0.648 OA
ENDBRANCH  15  21
ENDBRANCH  10  13
ENDBRANCH   8   9
BRANCH   8  24
HETATM   24  C13 UNL     1      10.114  22.853  20.545  1.00  0.00     0.009 C 
HETATM   25  C14 UNL     1       8.755  23.485  20.466  1.00  0.00     0.012 C 
HETATM   26  C15 UNL     1      11.191  23.684  19.861  1.00  0.00     0.012 C 
ENDBRANCH   8  24
ENDBRANCH   5   8
ENDBRANCH   3   4
TORSDOF 6
ENDMDL
MODEL 5
REMARK VINA RESULT: -5.907067805      1.696      1.870
REMARK  6 active torsions:
REMARK  status: ('A' for Active; 'I' for Inactive)
REMARK    1  A    between atoms: C3_3  and  N1_4 
REMARK       I    between atoms: N1_4  and  C4_6 
REMARK    2  A    between atoms: C4_6  and  C5_8 
REMARK    3  A    between atoms: C5_8  and  N2_9 
REMARK    4  A    between atoms: C5_8  and  C13_24 
REMARK       I    between atoms: N2_9  and  C6_11 
REMARK    5  A    between atoms: C6_11  and  C7_13 
REMARK    6  A    between atoms: C9_15  and  C10_16 
ROOT
HETATM    1  C1  UNL     1       9.099  18.762  19.235  1.00  0.00     0.014 C 
HETATM    2  C2  UNL     1       9.435  19.106  20.345  1.00  0.00    -0.098 C 
HETATM    3  C3  UNL     1       9.825  19.544  21.697  1.00  0.00     0.216 C 
ENDROOT
BRANCH   3   4
HETATM    4  N1  UNL     1      10.145  20.951  21.710  1.00  0.00    -0.349 N 
HETATM    5  C4  UNL     1       9.220  21.963  21.390  1.00  0.00     0.241 C 
HETATM    6  O1  UNL     1       8.057  21.679  21.074  1.00  0.00    -0.271 OA
ATOM      7  H1  UNL     1      11.093  21.228  21.964  1.00  0.00     0.163 HD
BRANCH   5   8
HETATM    8  C5  UNL     1       9.647  23.369  21.439  1.00  0.00     0.180 C 
BRANCH   8   9
HETATM    9  N2  UNL     1       9.311  24.048  22.673  1.00  0.00    -0.346 N 
HETATM   10  C6  UNL     1      10.132  23.980  23.787  1.00  0.00     0.241 C 
HETATM   11  O2  UNL     1      11.214  23.297  23.705  1.00  0.00    -0.271 OA
ATOM     12  H2  UNL     1       8.449  24.591  22.723  1.00  0.00     0.163 HD
BRANCH  10  13
HETATM   13  C7  UNL     1       9.930  24.609  25.114  1.00  0.00     0.174 C 
HETATM   14  C8  UNL     1       9.971  26.087  25.133  1.00  0.00     0.051 C 
HETATM   15  C9  UNL     1       9.560  26.561  26.515  1.00  0.00     0.108 C 
HETATM   16  C11 UNL     1       9.552  25.502  27.561  1.00  0.00     0.110 C 
HETATM   17 BR1  UNL     1       7.780  24.777  27.895  1.00  0.00    -0.085 Br
HETATM   18  C12 UNL     1      10.560  24.422  27.425  1.00  0.00     0.073 C 
HETATM   19  N3  UNL     1      10.794  24.044  26.095  1.00  0.00    -0.388 N 
ATOM     20  H3  UNL     1      11.543  23.398  25.843  1.00  0.00     0.159 HD
BRANCH  15  21
HETATM   21  C10 UNL     1       8.200  27.162  26.491  1.00  0.00     0.178 C 
HETATM   22  O3  UNL     1       7.853  27.888  27.447  1.00  0.00    -0.648 OA
HETATM   23  O4  UNL     1       7.295  26.960  25.463  1.00  0.00    -0.648 OA
ENDBRANCH  15  21
ENDBRANCH  10  13
ENDBRANCH   8   9
BRANCH   8  24
HETATM   24  C13 UNL     1       9.040  24.076  20.239  1.00  0.00     0.009 C 
HETATM   25  C14 UNL     1       9.039  25.572  20.358  1.00  0.00     0.012 C 
HETATM   26  C15 UNL     1       9.675  23.588  18.944  1.00  0.00     0.012 C 
ENDBRANCH   8  24
ENDBRANCH   5   8
ENDBRANCH   3   4
TORSDOF 6
ENDMDL
