MODEL 1
REMARK VINA RESULT: -7.586719685      0.000      0.000
REMARK  5 active torsions:
REMARK  status: ('A' for Active; 'I' for Inactive)
REMARK    1  A    between atoms: C2_2  and  C4_4 
REMARK    2  A    between atoms: C4_4  and  C5_5 
REMARK       I    between atoms: N3_15  and  C10_16 
REMARK    3  A    between atoms: C10_16  and  C11_18 
REMARK    4  A    between atoms: C18_26  and  C19_27 
REMARK    5  A    between atoms: C19_27  and  C20_28 
ROOT
HETATM    1  C5  UNL     1      28.156   3.042  60.955  1.00  0.00     0.075 C 
HETATM    2  N1  UNL     1      28.945   3.621  59.971  1.00  0.00    -0.360 N 
ATOM      3  H1  UNL     1      29.890   3.262  59.836  1.00  0.00     0.161 HD
HETATM    4  C6  UNL     1      28.512   4.674  59.155  1.00  0.00     0.307 C 
HETATM    5  N2  UNL     1      29.412   5.828  59.330  1.00  0.00    -0.052 N 
ATOM      6  H21 UNL     1      29.515   6.110  60.306  1.00  0.00     0.279 HD
ATOM      7  H22 UNL     1      29.014   6.700  58.983  1.00  0.00     0.279 HD
HETATM    8  C7  UNL     1      30.646   5.497  58.714  1.00  0.00     0.237 C 
HETATM    9  C8  UNL     1      30.285   4.501  57.621  1.00  0.00     0.057 C 
HETATM   10  C9  UNL     1      28.796   4.344  57.695  1.00  0.00     0.147 C 
HETATM   11  N3  UNL     1      28.432   2.987  57.361  1.00  0.00    -0.278 N 
HETATM   12  C10 UNL     1      29.162   2.358  56.299  1.00  0.00     0.231 C 
HETATM   13  O1  UNL     1      30.041   2.986  55.673  1.00  0.00    -0.273 OA
HETATM   14  C17 UNL     1      27.372   2.272  58.010  1.00  0.00     0.249 C 
HETATM   15  O2  UNL     1      27.612   1.087  58.341  1.00  0.00    -0.271 OA
HETATM   16  C18 UNL     1      26.018   2.813  58.322  1.00  0.00     0.178 C 
HETATM   17  N4  UNL     1      25.917   3.320  59.659  1.00  0.00    -0.343 N 
ATOM     18  H4  UNL     1      25.186   4.013  59.815  1.00  0.00     0.163 HD
HETATM   19  C26 UNL     1      26.694   2.987  60.783  1.00  0.00     0.264 C 
HETATM   20  O3  UNL     1      26.059   2.574  61.822  1.00  0.00    -0.266 OA
ENDROOT
BRANCH  12  21
HETATM   21  C11 UNL     1      28.954   0.958  55.856  1.00  0.00     0.078 C 
HETATM   22  C12 UNL     1      28.012   0.961  54.690  1.00  0.00     0.014 C 
HETATM   23  C13 UNL     1      28.615   0.328  53.445  1.00  0.00     0.001 C 
HETATM   24  C14 UNL     1      29.136  -1.055  53.777  1.00  0.00     0.000 C 
HETATM   25  C15 UNL     1      30.098  -1.007  54.926  1.00  0.00     0.001 C 
HETATM   26  C16 UNL     1      30.277   0.431  55.342  1.00  0.00     0.014 C 
ENDBRANCH  12  21
BRANCH  16  27
HETATM   27  C19 UNL     1      25.014   1.758  58.021  1.00  0.00     0.039 C 
BRANCH  27  28
HETATM   28  C20 UNL     1      23.592   1.941  58.358  1.00  0.00    -0.012 C 
HETATM   29  C21 UNL     1      23.092   3.026  57.361  1.00  0.00     0.005 C 
HETATM   30  C22 UNL     1      22.769   2.421  56.017  1.00  0.00     0.000 C 
HETATM   31  C23 UNL     1      21.508   1.557  56.105  1.00  0.00     0.000 C 
HETATM   32  C24 UNL     1      21.379   1.205  57.569  1.00  0.00     0.000 C 
HETATM   33  C25 UNL     1      22.767   0.740  58.023  1.00  0.00     0.005 C 
ENDBRANCH  27  28
ENDBRANCH  16  27
BRANCH   1  34
HETATM   34  C4  UNL     1      28.425   3.419  62.393  1.00  0.00     0.066 C 
BRANCH  34  35
HETATM   35  C2  UNL     1      29.292   2.456  63.142  1.00  0.00    -0.017 C 
HETATM   36  C1  UNL     1      28.688   2.220  64.519  1.00  0.00     0.010 C 
HETATM   37  C3  UNL     1      30.734   2.855  63.239  1.00  0.00     0.010 C 
ENDBRANCH  34  35
ENDBRANCH   1  34
TORSDOF 5
ENDMDL
MODEL 2
REMARK VINA RESULT: -7.193805394      2.762      5.743
REMARK  5 active torsions:
REMARK  status: ('A' for Active; 'I' for Inactive)
REMARK    1  A    between atoms: C2_2  and  C4_4 
REMARK    2  A    between atoms: C4_4  and  C5_5 
REMARK       I    between atoms: N3_15  and  C10_16 
REMARK    3  A    between atoms: C10_16  and  C11_18 
REMARK    4  A    between atoms: C18_26  and  C19_27 
REMARK    5  A    between atoms: C19_27  and  C20_28 
ROOT
HETATM    1  C5  UNL     1      26.891   2.831  59.684  1.00  0.00     0.075 C 
HETATM    2  N1  UNL     1      25.718   2.768  58.945  1.00  0.00    -0.360 N 
ATOM      3  H1  UNL     1      25.121   3.594  58.915  1.00  0.00     0.161 HD
HETATM    4  C6  UNL     1      25.310   1.628  58.240  1.00  0.00     0.307 C 
HETATM    5  N2  UNL     1      23.993   1.193  58.738  1.00  0.00    -0.052 N 
ATOM      6  H21 UNL     1      23.974   1.053  59.749  1.00  0.00     0.279 HD
ATOM      7  H22 UNL     1      23.760   0.237  58.469  1.00  0.00     0.279 HD
HETATM    8  C7  UNL     1      23.040   2.144  58.292  1.00  0.00     0.237 C 
HETATM    9  C8  UNL     1      23.630   2.723  57.013  1.00  0.00     0.057 C 
HETATM   10  C9  UNL     1      24.934   2.011  56.815  1.00  0.00     0.147 C 
HETATM   11  N3  UNL     1      25.895   2.911  56.220  1.00  0.00    -0.278 N 
HETATM   12  C10 UNL     1      25.411   3.807  55.210  1.00  0.00     0.231 C 
HETATM   13  O1  UNL     1      24.218   3.766  54.843  1.00  0.00    -0.273 OA
HETATM   14  C17 UNL     1      27.286   2.921  56.567  1.00  0.00     0.249 C 
HETATM   15  O2  UNL     1      27.813   4.044  56.747  1.00  0.00    -0.271 OA
HETATM   16  C18 UNL     1      28.154   1.719  56.729  1.00  0.00     0.178 C 
HETATM   17  N4  UNL     1      28.258   1.290  58.093  1.00  0.00    -0.343 N 
ATOM     18  H4  UNL     1      28.504   0.311  58.231  1.00  0.00     0.163 HD
HETATM   19  C26 UNL     1      28.063   2.043  59.266  1.00  0.00     0.264 C 
HETATM   20  O3  UNL     1      29.034   2.058  60.109  1.00  0.00    -0.266 OA
ENDROOT
BRANCH  12  21
HETATM   21  C11 UNL     1      26.245   4.826  54.528  1.00  0.00     0.078 C 
HETATM   22  C12 UNL     1      26.856   4.205  53.309  1.00  0.00     0.014 C 
HETATM   23  C13 UNL     1      26.487   4.938  52.028  1.00  0.00     0.001 C 
HETATM   24  C14 UNL     1      26.817   6.409  52.168  1.00  0.00     0.000 C 
HETATM   25  C15 UNL     1      26.158   6.997  53.380  1.00  0.00     0.001 C 
HETATM   26  C16 UNL     1      25.325   5.926  54.040  1.00  0.00     0.014 C 
ENDBRANCH  12  21
BRANCH  16  27
HETATM   27  C19 UNL     1      29.472   2.010  56.107  1.00  0.00     0.039 C 
BRANCH  27  28
HETATM   28  C20 UNL     1      29.758   1.628  54.714  1.00  0.00    -0.012 C 
HETATM   29  C21 UNL     1      30.845   0.519  54.830  1.00  0.00     0.005 C 
HETATM   30  C22 UNL     1      30.224  -0.819  55.144  1.00  0.00     0.000 C 
HETATM   31  C23 UNL     1      29.449  -1.350  53.936  1.00  0.00     0.000 C 
HETATM   32  C24 UNL     1      29.148  -0.128  53.099  1.00  0.00     0.000 C 
HETATM   33  C25 UNL     1      28.605   0.932  54.065  1.00  0.00     0.005 C 
ENDBRANCH  27  28
ENDBRANCH  16  27
BRANCH   1  34
HETATM   34  C4  UNL     1      26.790   2.722  61.188  1.00  0.00     0.066 C 
BRANCH  34  35
HETATM   35  C2  UNL     1      26.229   3.932  61.868  1.00  0.00    -0.017 C 
HETATM   36  C1  UNL     1      27.345   4.949  62.057  1.00  0.00     0.010 C 
HETATM   37  C3  UNL     1      25.520   3.652  63.158  1.00  0.00     0.010 C 
ENDBRANCH  34  35
ENDBRANCH   1  34
TORSDOF 5
ENDMDL
MODEL 3
REMARK VINA RESULT: -7.086132761      2.255      6.236
REMARK  5 active torsions:
REMARK  status: ('A' for Active; 'I' for Inactive)
REMARK    1  A    between atoms: C2_2  and  C4_4 
REMARK    2  A    between atoms: C4_4  and  C5_5 
REMARK       I    between atoms: N3_15  and  C10_16 
REMARK    3  A    between atoms: C10_16  and  C11_18 
REMARK    4  A    between atoms: C18_26  and  C19_27 
REMARK    5  A    between atoms: C19_27  and  C20_28 
ROOT
HETATM    1  C5  UNL     1      29.395   2.650  54.787  1.00  0.00     0.075 C 
HETATM    2  N1  UNL     1      29.818   1.942  55.903  1.00  0.00    -0.360 N 
ATOM      3  H1  UNL     1      30.534   2.360  56.498  1.00  0.00     0.161 HD
HETATM    4  C6  UNL     1      29.315   0.683  56.255  1.00  0.00     0.307 C 
HETATM    5  N2  UNL     1      30.423  -0.289  56.299  1.00  0.00    -0.052 N 
ATOM      6  H21 UNL     1      30.967  -0.314  55.436  1.00  0.00     0.279 HD
ATOM      7  H22 UNL     1      30.105  -1.257  56.283  1.00  0.00     0.279 HD
HETATM    8  C7  UNL     1      31.208   0.019  57.440  1.00  0.00     0.237 C 
HETATM    9  C8  UNL     1      30.241   0.677  58.416  1.00  0.00     0.057 C 
HETATM   10  C9  UNL     1      28.912   0.681  57.723  1.00  0.00     0.147 C 
HETATM   11  N3  UNL     1      28.176   1.869  58.089  1.00  0.00    -0.278 N 
HETATM   12  C10 UNL     1      28.270   2.301  59.453  1.00  0.00     0.231 C 
HETATM   13  O1  UNL     1      28.929   1.643  60.284  1.00  0.00    -0.273 OA
HETATM   14  C17 UNL     1      27.349   2.597  57.172  1.00  0.00     0.249 C 
HETATM   15  O2  UNL     1      27.456   3.847  57.186  1.00  0.00    -0.271 OA
HETATM   16  C18 UNL     1      26.377   2.001  56.211  1.00  0.00     0.178 C 
HETATM   17  N4  UNL     1      26.930   1.822  54.901  1.00  0.00    -0.343 N 
ATOM     18  H4  UNL     1      26.482   1.111  54.325  1.00  0.00     0.163 HD
HETATM   19  C26 UNL     1      28.011   2.501  54.307  1.00  0.00     0.264 C 
HETATM   20  O3  UNL     1      27.781   3.077  53.181  1.00  0.00    -0.266 OA
ENDROOT
BRANCH  12  21
HETATM   21  C11 UNL     1      27.621   3.522  59.990  1.00  0.00     0.078 C 
HETATM   22  C12 UNL     1      26.287   3.143  60.556  1.00  0.00     0.014 C 
HETATM   23  C13 UNL     1      26.150   3.497  62.029  1.00  0.00     0.001 C 
HETATM   24  C14 UNL     1      26.483   4.960  62.235  1.00  0.00     0.000 C 
HETATM   25  C15 UNL     1      27.839   5.288  61.684  1.00  0.00     0.001 C 
HETATM   26  C16 UNL     1      28.458   4.021  61.150  1.00  0.00     0.014 C 
ENDBRANCH  12  21
BRANCH  16  27
HETATM   27  C19 UNL     1      25.146   2.835  56.216  1.00  0.00     0.039 C 
BRANCH  27  28
HETATM   28  C20 UNL     1      24.253   2.870  57.386  1.00  0.00    -0.012 C 
HETATM   29  C21 UNL     1      22.861   3.249  56.802  1.00  0.00     0.005 C 
HETATM   30  C22 UNL     1      22.169   2.041  56.221  1.00  0.00     0.000 C 
HETATM   31  C23 UNL     1      21.726   1.087  57.332  1.00  0.00     0.000 C 
HETATM   32  C24 UNL     1      22.602   1.434  58.514  1.00  0.00     0.000 C 
HETATM   33  C25 UNL     1      24.035   1.514  57.978  1.00  0.00     0.005 C 
ENDBRANCH  27  28
ENDBRANCH  16  27
BRANCH   1  34
HETATM   34  C4  UNL     1      30.293   2.662  53.572  1.00  0.00     0.066 C 
BRANCH  34  35
HETATM   35  C2  UNL     1      30.699   1.307  53.079  1.00  0.00    -0.017 C 
HETATM   36  C1  UNL     1      32.199   1.145  53.272  1.00  0.00     0.010 C 
HETATM   37  C3  UNL     1      30.293   1.007  51.668  1.00  0.00     0.010 C 
ENDBRANCH  34  35
ENDBRANCH   1  34
TORSDOF 5
ENDMDL
MODEL 4
REMARK VINA RESULT: -6.985355984      3.793      7.336
REMARK  5 active torsions:
REMARK  status: ('A' for Active; 'I' for Inactive)
REMARK    1  A    between atoms: C2_2  and  C4_4 
REMARK    2  A    between atoms: C4_4  and  C5_5 
REMARK       I    between atoms: N3_15  and  C10_16 
REMARK    3  A    between atoms: C10_16  and  C11_18 
REMARK    4  A    between atoms: C18_26  and  C19_27 
REMARK    5  A    between atoms: C19_27  and  C20_28 
ROOT
HETATM    1  C5  UNL     1      33.896   0.696  56.896  1.00  0.00     0.075 C 
HETATM    2  N1  UNL     1      33.101   0.587  58.028  1.00  0.00    -0.360 N 
ATOM      3  H1  UNL     1      32.940   1.425  58.587  1.00  0.00     0.161 HD
HETATM    4  C6  UNL     1      32.507  -0.612  58.441  1.00  0.00     0.307 C 
HETATM    5  N2  UNL     1      32.972  -0.940  59.802  1.00  0.00    -0.052 N 
ATOM      6  H21 UNL     1      33.988  -0.961  59.883  1.00  0.00     0.279 HD
ATOM      7  H22 UNL     1      32.800  -1.912  60.058  1.00  0.00     0.279 HD
HETATM    8  C7  UNL     1      32.362  -0.016  60.688  1.00  0.00     0.237 C 
HETATM    9  C8  UNL     1      31.064   0.389  60.004  1.00  0.00     0.057 C 
HETATM   10  C9  UNL     1      31.028  -0.386  58.721  1.00  0.00     0.147 C 
HETATM   11  N3  UNL     1      30.392   0.405  57.692  1.00  0.00    -0.278 N 
HETATM   12  C10 UNL     1      29.259   1.192  58.081  1.00  0.00     0.231 C 
HETATM   13  O1  UNL     1      28.827   1.150  59.252  1.00  0.00    -0.273 OA
HETATM   14  C17 UNL     1      30.819   0.408  56.324  1.00  0.00     0.249 C 
HETATM   15  O2  UNL     1      30.901   1.525  55.761  1.00  0.00    -0.271 OA
HETATM   16  C18 UNL     1      31.171  -0.796  55.517  1.00  0.00     0.178 C 
HETATM   17  N4  UNL     1      32.578  -1.066  55.507  1.00  0.00    -0.343 N 
ATOM     18  H4  UNL     1      32.842  -2.031  55.309  1.00  0.00     0.163 HD
HETATM   19  C26 UNL     1      33.643  -0.175  55.736  1.00  0.00     0.264 C 
HETATM   20  O3  UNL     1      34.536  -0.095  54.814  1.00  0.00    -0.266 OA
ENDROOT
BRANCH  12  21
HETATM   21  C11 UNL     1      28.516   2.096  57.169  1.00  0.00     0.078 C 
HETATM   22  C12 UNL     1      27.434   1.309  56.495  1.00  0.00     0.014 C 
HETATM   23  C13 UNL     1      26.047   1.879  56.750  1.00  0.00     0.001 C 
HETATM   24  C14 UNL     1      26.023   3.348  56.383  1.00  0.00     0.000 C 
HETATM   25  C15 UNL     1      27.099   4.102  57.105  1.00  0.00     0.001 C 
HETATM   26  C16 UNL     1      27.826   3.145  58.016  1.00  0.00     0.014 C 
ENDBRANCH  12  21
BRANCH  16  27
HETATM   27  C19 UNL     1      30.600  -0.626  54.154  1.00  0.00     0.039 C 
BRANCH  27  28
HETATM   28  C20 UNL     1      29.640  -1.597  53.603  1.00  0.00    -0.012 C 
HETATM   29  C21 UNL     1      29.639  -1.318  52.072  1.00  0.00     0.005 C 
HETATM   30  C22 UNL     1      30.812  -1.988  51.398  1.00  0.00     0.000 C 
HETATM   31  C23 UNL     1      30.626  -3.507  51.379  1.00  0.00     0.000 C 
HETATM   32  C24 UNL     1      29.640  -3.792  52.488  1.00  0.00     0.000 C 
HETATM   33  C25 UNL     1      30.128  -3.006  53.710  1.00  0.00     0.005 C 
ENDBRANCH  27  28
ENDBRANCH  16  27
BRANCH   1  34
HETATM   34  C4  UNL     1      35.394   0.767  57.085  1.00  0.00     0.066 C 
BRANCH  34  35
HETATM   35  C2  UNL     1      35.842   0.848  58.512  1.00  0.00    -0.017 C 
HETATM   36  C1  UNL     1      36.715   2.082  58.683  1.00  0.00     0.010 C 
HETATM   37  C3  UNL     1      36.528  -0.383  59.023  1.00  0.00     0.010 C 
ENDBRANCH  34  35
ENDBRANCH   1  34
TORSDOF 5
ENDMDL
MODEL 5
REMARK VINA RESULT: -6.970340059      3.589      8.575
REMARK  5 active torsions:
REMARK  status: ('A' for Active; 'I' for Inactive)
REMARK    1  A    between atoms: C2_2  and  C4_4 
REMARK    2  A    between atoms: C4_4  and  C5_5 
REMARK       I    between atoms: N3_15  and  C10_16 
REMARK    3  A    between atoms: C10_16  and  C11_18 
REMARK    4  A    between atoms: C18_26  and  C19_27 
REMARK    5  A    between atoms: C19_27  and  C20_28 
ROOT
HETATM    1  C5  UNL     1      28.168   0.709  51.263  1.00  0.00     0.075 C 
HETATM    2  N1  UNL     1      27.722   1.996  51.527  1.00  0.00    -0.360 N 
ATOM      3  H1  UNL     1      26.717   2.170  51.520  1.00  0.00     0.161 HD
HETATM    4  C6  UNL     1      28.580   3.069  51.802  1.00  0.00     0.307 C 
HETATM    5  N2  UNL     1      28.360   4.135  50.807  1.00  0.00    -0.052 N 
ATOM      6  H21 UNL     1      28.445   3.806  49.844  1.00  0.00     0.279 HD
ATOM      7  H22 UNL     1      29.118   4.817  50.779  1.00  0.00     0.279 HD
HETATM    8  C7  UNL     1      27.098   4.718  51.086  1.00  0.00     0.237 C 
HETATM    9  C8  UNL     1      26.887   4.504  52.579  1.00  0.00     0.057 C 
HETATM   10  C9  UNL     1      28.115   3.791  53.060  1.00  0.00     0.147 C 
HETATM   11  N3  UNL     1      27.762   2.873  54.118  1.00  0.00    -0.278 N 
HETATM   12  C10 UNL     1      26.778   3.313  55.063  1.00  0.00     0.231 C 
HETATM   13  O1  UNL     1      26.290   4.460  54.985  1.00  0.00    -0.273 OA
HETATM   14  C17 UNL     1      28.366   1.582  54.275  1.00  0.00     0.249 C 
HETATM   15  O2  UNL     1      27.594   0.625  54.520  1.00  0.00    -0.271 OA
HETATM   16  C18 UNL     1      29.824   1.283  54.176  1.00  0.00     0.178 C 
HETATM   17  N4  UNL     1      30.210   0.829  52.873  1.00  0.00    -0.343 N 
ATOM     18  H4  UNL     1      31.190   0.963  52.629  1.00  0.00     0.163 HD
HETATM   19  C26 UNL     1      29.412   0.223  51.884  1.00  0.00     0.264 C 
HETATM   20  O3  UNL     1      29.807  -0.919  51.445  1.00  0.00    -0.266 OA
ENDROOT
BRANCH  12  21
HETATM   21  C11 UNL     1      26.264   2.486  56.181  1.00  0.00     0.078 C 
HETATM   22  C12 UNL     1      26.795   3.040  57.468  1.00  0.00     0.014 C 
HETATM   23  C13 UNL     1      25.692   3.445  58.434  1.00  0.00     0.001 C 
HETATM   24  C14 UNL     1      24.743   2.284  58.641  1.00  0.00     0.000 C 
HETATM   25  C15 UNL     1      24.210   1.783  57.331  1.00  0.00     0.001 C 
HETATM   26  C16 UNL     1      24.759   2.651  56.227  1.00  0.00     0.014 C 
ENDBRANCH  12  21
BRANCH  16  27
HETATM   27  C19 UNL     1      30.177   0.324  55.256  1.00  0.00     0.039 C 
BRANCH  27  28
HETATM   28  C20 UNL     1      31.119   0.694  56.326  1.00  0.00    -0.012 C 
HETATM   29  C21 UNL     1      30.249   1.471  57.357  1.00  0.00     0.005 C 
HETATM   30  C22 UNL     1      29.493   0.523  58.254  1.00  0.00     0.000 C 
HETATM   31  C23 UNL     1      30.449  -0.189  59.214  1.00  0.00     0.000 C 
HETATM   32  C24 UNL     1      31.806  -0.087  58.557  1.00  0.00     0.000 C 
HETATM   33  C25 UNL     1      31.607  -0.493  57.093  1.00  0.00     0.005 C 
ENDBRANCH  27  28
ENDBRANCH  16  27
BRANCH   1  34
HETATM   34  C4  UNL     1      28.172   0.241  49.826  1.00  0.00     0.066 C 
BRANCH  34  35
HETATM   35  C2  UNL     1      27.843   1.300  48.820  1.00  0.00    -0.017 C 
HETATM   36  C1  UNL     1      26.849   0.733  47.818  1.00  0.00     0.010 C 
HETATM   37  C3  UNL     1      29.031   1.901  48.132  1.00  0.00     0.010 C 
ENDBRANCH  34  35
ENDBRANCH   1  34
TORSDOF 5
ENDMDL
