MODEL 1
REMARK VINA RESULT: -7.785772309      0.000      0.000
REMARK  10 active torsions:
REMARK  status: ('A' for Active; 'I' for Inactive)
REMARK    1  A    between atoms: N1_2  and  C2_5 
REMARK    2  A    between atoms: C2_5  and  C4_7 
REMARK       I    between atoms: C4_7  and  N2_9 
REMARK    3  A    between atoms: N2_9  and  C5_11 
REMARK    4  A    between atoms: C18_24  and  C19_25 
REMARK    5  A    between atoms: C19_25  and  C20_26 
REMARK    6  A    between atoms: C20_26  and  N3_27 
REMARK    7  A    between atoms: C21_31  and  C22_32 
REMARK       I    between atoms: C22_32  and  N4_34 
REMARK    8  A    between atoms: N4_34  and  C23_36 
REMARK    9  A    between atoms: C23_36  and  C24_37 
REMARK   10  A    between atoms: N5_40  and  C27_41 
ROOT
HETATM    1  C5  UNL     1     -12.625  13.627  34.300  1.00  0.00     0.176 C 
HETATM    2  C6  UNL     1     -12.931  13.322  35.768  1.00  0.00     0.035 C 
HETATM    3  C7  UNL     1     -11.665  12.825  36.367  1.00  0.00     0.002 C 
HETATM    4  C8  UNL     1     -11.682  12.403  37.781  1.00  0.00     0.000 C 
HETATM    5  C9  UNL     1     -12.848  11.654  38.282  1.00  0.00     0.000 C 
HETATM    6  C10 UNL     1     -12.601  10.152  38.474  1.00  0.00     0.000 C 
HETATM    7  C11 UNL     1     -12.353   9.417  37.206  1.00  0.00     0.000 C 
HETATM    8  C12 UNL     1     -13.109   8.174  36.998  1.00  0.00     0.000 C 
HETATM    9  C13 UNL     1     -14.427   8.268  36.334  1.00  0.00     0.000 C 
HETATM   10  C14 UNL     1     -14.587   9.328  35.308  1.00  0.00     0.000 C 
HETATM   11  C15 UNL     1     -13.884   9.127  34.016  1.00  0.00     0.002 C 
HETATM   12  C16 UNL     1     -13.393  10.451  33.387  1.00  0.00     0.026 C 
HETATM   13  C17 UNL     1     -14.598  11.351  33.331  1.00  0.00     0.095 C 
HETATM   14  C18 UNL     1     -15.421  11.016  32.139  1.00  0.00     0.042 C 
HETATM   15  C21 UNL     1     -14.972  12.288  31.463  1.00  0.00     0.185 C 
HETATM   16  N6  UNL     1     -14.390  12.649  32.756  1.00  0.00    -0.331 N 
HETATM   17  C32 UNL     1     -13.825  13.736  33.457  1.00  0.00     0.243 C 
HETATM   18  O3  UNL     1     -14.350  14.911  33.390  1.00  0.00    -0.271 OA
ENDROOT
BRANCH  15  19
HETATM   19  C22 UNL     1     -14.085  12.081  30.325  1.00  0.00     0.241 C 
HETATM   20  O2  UNL     1     -13.926  10.888  29.901  1.00  0.00    -0.271 OA
HETATM   21  N4  UNL     1     -13.436  13.181  29.733  1.00  0.00    -0.359 N 
ATOM     22  H4  UNL     1     -13.574  14.129  30.084  1.00  0.00     0.162 HD
BRANCH  21  23
HETATM   23  C23 UNL     1     -12.562  12.919  28.604  1.00  0.00     0.127 C 
BRANCH  23  24
HETATM   24  C24 UNL     1     -12.269  14.193  27.887  1.00  0.00     0.006 C 
HETATM   25  C25 UNL     1     -12.651  15.426  28.625  1.00  0.00     0.026 C 
HETATM   26  C26 UNL     1     -11.529  16.332  28.991  1.00  0.00     0.117 C 
HETATM   27  N5  UNL     1     -10.522  16.496  28.006  1.00  0.00    -0.409 N 
HETATM   28  C30 UNL     1     -10.634  15.657  26.859  1.00  0.00     0.117 C 
HETATM   29  C31 UNL     1     -10.828  14.227  27.384  1.00  0.00     0.026 C 
BRANCH  27  30
HETATM   30  C27 UNL     1     -10.101  17.835  27.757  1.00  0.00     0.070 C 
HETATM   31  C28 UNL     1     -10.139  18.050  26.241  1.00  0.00     0.031 C 
HETATM   32  C29 UNL     1      -8.662  18.041  28.213  1.00  0.00     0.031 C 
ENDBRANCH  27  30
ENDBRANCH  23  24
ENDBRANCH  21  23
ENDBRANCH  15  19
BRANCH  14  33
HETATM   33  C19 UNL     1     -16.888  10.857  32.295  1.00  0.00     0.036 C 
BRANCH  33  34
HETATM   34  C20 UNL     1     -17.454  10.862  33.662  1.00  0.00     0.230 C 
BRANCH  34  35
HETATM   35  N3  UNL     1     -18.032   9.659  34.148  1.00  0.00    -0.079 N 
ATOM     36  H33 UNL     1     -18.746   9.886  34.840  1.00  0.00     0.274 HD
ATOM     37  H32 UNL     1     -18.603   9.241  33.412  1.00  0.00     0.274 HD
ATOM     38  H31 UNL     1     -17.408   8.949  34.531  1.00  0.00     0.274 HD
ENDBRANCH  34  35
ENDBRANCH  33  34
ENDBRANCH  14  33
BRANCH   1  39
HETATM   39  N2  UNL     1     -11.950  14.944  34.349  1.00  0.00    -0.346 N 
HETATM   40  C4  UNL     1     -10.664  15.177  33.869  1.00  0.00     0.248 C 
HETATM   41  O1  UNL     1      -9.986  14.260  33.355  1.00  0.00    -0.271 OA
ATOM     42  H2  UNL     1     -12.457  15.728  34.758  1.00  0.00     0.163 HD
BRANCH  40  43
HETATM   43  C2  UNL     1     -10.067  16.528  33.958  1.00  0.00     0.272 C 
HETATM   44  C3  UNL     1      -9.685  16.906  35.374  1.00  0.00     0.050 C 
BRANCH  43  45
HETATM   45  N1  UNL     1      -8.867  16.645  33.148  1.00  0.00    -0.067 N 
HETATM   46  C1  UNL     1      -9.271  17.087  31.829  1.00  0.00     0.267 C 
ATOM     47  H12 UNL     1      -8.316  15.787  33.128  1.00  0.00     0.277 HD
ATOM     48  H11 UNL     1      -8.161  17.248  33.571  1.00  0.00     0.277 HD
ENDBRANCH  43  45
ENDBRANCH  40  43
ENDBRANCH   1  39
TORSDOF 10
ENDMDL
MODEL 2
REMARK VINA RESULT: -7.784583525      8.107     15.786
REMARK  10 active torsions:
REMARK  status: ('A' for Active; 'I' for Inactive)
REMARK    1  A    between atoms: N1_2  and  C2_5 
REMARK    2  A    between atoms: C2_5  and  C4_7 
REMARK       I    between atoms: C4_7  and  N2_9 
REMARK    3  A    between atoms: N2_9  and  C5_11 
REMARK    4  A    between atoms: C18_24  and  C19_25 
REMARK    5  A    between atoms: C19_25  and  C20_26 
REMARK    6  A    between atoms: C20_26  and  N3_27 
REMARK    7  A    between atoms: C21_31  and  C22_32 
REMARK       I    between atoms: C22_32  and  N4_34 
REMARK    8  A    between atoms: N4_34  and  C23_36 
REMARK    9  A    between atoms: C23_36  and  C24_37 
REMARK   10  A    between atoms: N5_40  and  C27_41 
ROOT
HETATM    1  C5  UNL     1      -5.516  17.872  21.303  1.00  0.00     0.176 C 
HETATM    2  C6  UNL     1      -5.083  18.235  19.881  1.00  0.00     0.035 C 
HETATM    3  C7  UNL     1      -5.199  16.990  19.076  1.00  0.00     0.002 C 
HETATM    4  C8  UNL     1      -4.793  17.038  17.659  1.00  0.00     0.000 C 
HETATM    5  C9  UNL     1      -3.591  17.809  17.292  1.00  0.00     0.000 C 
HETATM    6  C10 UNL     1      -2.358  16.951  16.981  1.00  0.00     0.000 C 
HETATM    7  C11 UNL     1      -1.833  16.207  18.156  1.00  0.00     0.000 C 
HETATM    8  C12 UNL     1      -0.386  16.285  18.403  1.00  0.00     0.000 C 
HETATM    9  C13 UNL     1       0.112  17.385  19.257  1.00  0.00     0.000 C 
HETATM   10  C14 UNL     1      -0.779  17.839  20.353  1.00  0.00     0.000 C 
HETATM   11  C15 UNL     1      -0.936  16.928  21.515  1.00  0.00     0.002 C 
HETATM   12  C16 UNL     1      -2.349  16.989  22.138  1.00  0.00     0.026 C 
HETATM   13  C17 UNL     1      -2.612  18.443  22.421  1.00  0.00     0.095 C 
HETATM   14  C18 UNL     1      -1.962  18.833  23.700  1.00  0.00     0.042 C 
HETATM   15  C21 UNL     1      -3.310  18.900  24.373  1.00  0.00     0.185 C 
HETATM   16  N6  UNL     1      -3.874  18.750  23.032  1.00  0.00    -0.331 N 
HETATM   17  C32 UNL     1      -5.087  18.847  22.318  1.00  0.00     0.243 C 
HETATM   18  O3  UNL     1      -5.902  19.823  22.527  1.00  0.00    -0.271 OA
ENDROOT
BRANCH  15  19
HETATM   19  C22 UNL     1      -3.542  17.848  25.355  1.00  0.00     0.241 C 
HETATM   20  O2  UNL     1      -2.820  16.798  25.288  1.00  0.00    -0.271 OA
HETATM   21  N4  UNL     1      -4.539  18.011  26.336  1.00  0.00    -0.359 N 
ATOM     22  H4  UNL     1      -5.108  18.857  26.375  1.00  0.00     0.162 HD
BRANCH  21  23
HETATM   23  C23 UNL     1      -4.730  16.933  27.288  1.00  0.00     0.127 C 
BRANCH  23  24
HETATM   24  C24 UNL     1      -5.892  17.239  28.170  1.00  0.00     0.006 C 
HETATM   25  C25 UNL     1      -6.568  18.532  27.884  1.00  0.00     0.026 C 
HETATM   26  C26 UNL     1      -7.985  18.433  27.436  1.00  0.00     0.117 C 
HETATM   27  N5  UNL     1      -8.776  17.463  28.101  1.00  0.00    -0.409 N 
HETATM   28  C30 UNL     1      -8.079  16.605  29.000  1.00  0.00     0.117 C 
HETATM   29  C31 UNL     1      -6.864  16.063  28.232  1.00  0.00     0.026 C 
BRANCH  27  30
HETATM   30  C27 UNL     1     -10.067  17.892  28.527  1.00  0.00     0.070 C 
HETATM   31  C28 UNL     1     -10.038  17.977  30.056  1.00  0.00     0.031 C 
HETATM   32  C29 UNL     1     -11.128  16.868  28.146  1.00  0.00     0.031 C 
ENDBRANCH  27  30
ENDBRANCH  23  24
ENDBRANCH  21  23
ENDBRANCH  15  19
BRANCH  14  33
HETATM   33  C19 UNL     1      -1.157  20.079  23.751  1.00  0.00     0.036 C 
BRANCH  33  34
HETATM   34  C20 UNL     1       0.313  19.962  23.873  1.00  0.00     0.230 C 
BRANCH  34  35
HETATM   35  N3  UNL     1       0.851  19.615  25.140  1.00  0.00    -0.079 N 
ATOM     36  H33 UNL     1       0.475  18.711  25.428  1.00  0.00     0.274 HD
ATOM     37  H32 UNL     1       1.840  19.387  25.033  1.00  0.00     0.274 HD
ATOM     38  H31 UNL     1       0.742  20.281  25.905  1.00  0.00     0.274 HD
ENDBRANCH  34  35
ENDBRANCH  33  34
ENDBRANCH  14  33
BRANCH   1  39
HETATM   39  N2  UNL     1      -6.996  17.872  21.230  1.00  0.00    -0.346 N 
HETATM   40  C4  UNL     1      -7.788  16.761  21.503  1.00  0.00     0.248 C 
HETATM   41  O1  UNL     1      -7.281  15.666  21.833  1.00  0.00    -0.271 OA
ATOM     42  H2  UNL     1      -7.462  18.739  20.964  1.00  0.00     0.163 HD
BRANCH  40  43
HETATM   43  C2  UNL     1      -9.262  16.852  21.406  1.00  0.00     0.272 C 
HETATM   44  C3  UNL     1      -9.766  16.675  19.988  1.00  0.00     0.050 C 
BRANCH  43  45
HETATM   45  N1  UNL     1      -9.922  15.849  22.221  1.00  0.00    -0.067 N 
HETATM   46  C1  UNL     1     -10.148  16.427  23.529  1.00  0.00     0.267 C 
ATOM     47  H12 UNL     1      -9.410  14.968  22.259  1.00  0.00     0.277 HD
ATOM     48  H11 UNL     1     -10.775  15.488  21.793  1.00  0.00     0.277 HD
ENDBRANCH  43  45
ENDBRANCH  40  43
ENDBRANCH   1  39
TORSDOF 10
ENDMDL
MODEL 3
REMARK VINA RESULT: -7.740653781      1.633      1.962
REMARK  10 active torsions:
REMARK  status: ('A' for Active; 'I' for Inactive)
REMARK    1  A    between atoms: N1_2  and  C2_5 
REMARK    2  A    between atoms: C2_5  and  C4_7 
REMARK       I    between atoms: C4_7  and  N2_9 
REMARK    3  A    between atoms: N2_9  and  C5_11 
REMARK    4  A    between atoms: C18_24  and  C19_25 
REMARK    5  A    between atoms: C19_25  and  C20_26 
REMARK    6  A    between atoms: C20_26  and  N3_27 
REMARK    7  A    between atoms: C21_31  and  C22_32 
REMARK       I    between atoms: C22_32  and  N4_34 
REMARK    8  A    between atoms: N4_34  and  C23_36 
REMARK    9  A    between atoms: C23_36  and  C24_37 
REMARK   10  A    between atoms: N5_40  and  C27_41 
ROOT
HETATM    1  C5  UNL     1     -13.426  12.251  34.792  1.00  0.00     0.176 C 
HETATM    2  C6  UNL     1     -13.994  11.622  36.067  1.00  0.00     0.035 C 
HETATM    3  C7  UNL     1     -12.826  11.212  36.890  1.00  0.00     0.002 C 
HETATM    4  C8  UNL     1     -13.083  10.524  38.169  1.00  0.00     0.000 C 
HETATM    5  C9  UNL     1     -14.165   9.525  38.231  1.00  0.00     0.000 C 
HETATM    6  C10 UNL     1     -13.683   8.069  38.249  1.00  0.00     0.000 C 
HETATM    7  C11 UNL     1     -13.015   7.642  36.991  1.00  0.00     0.000 C 
HETATM    8  C12 UNL     1     -13.448   6.365  36.406  1.00  0.00     0.000 C 
HETATM    9  C13 UNL     1     -14.573   6.389  35.447  1.00  0.00     0.000 C 
HETATM   10  C14 UNL     1     -14.697   7.594  34.589  1.00  0.00     0.000 C 
HETATM   11  C15 UNL     1     -13.693   7.757  33.507  1.00  0.00     0.002 C 
HETATM   12  C16 UNL     1     -13.337   9.237  33.237  1.00  0.00     0.026 C 
HETATM   13  C17 UNL     1     -14.648   9.940  33.009  1.00  0.00     0.095 C 
HETATM   14  C18 UNL     1     -15.097   9.726  31.609  1.00  0.00     0.042 C 
HETATM   15  C21 UNL     1     -14.761  11.158  31.274  1.00  0.00     0.185 C 
HETATM   16  N6  UNL     1     -14.570  11.342  32.713  1.00  0.00    -0.331 N 
HETATM   17  C32 UNL     1     -14.401  12.342  33.694  1.00  0.00     0.243 C 
HETATM   18  O3  UNL     1     -15.113  13.416  33.674  1.00  0.00    -0.271 OA
ENDROOT
BRANCH  15  19
HETATM   19  C22 UNL     1     -13.615  11.313  30.388  1.00  0.00     0.241 C 
HETATM   20  O2  UNL     1     -12.629  10.517  30.540  1.00  0.00    -0.271 OA
HETATM   21  N4  UNL     1     -13.621  12.319  29.402  1.00  0.00    -0.359 N 
ATOM     22  H4  UNL     1     -14.417  12.947  29.293  1.00  0.00     0.162 HD
BRANCH  21  23
HETATM   23  C23 UNL     1     -12.454  12.430  28.547  1.00  0.00     0.127 C 
BRANCH  23  24
HETATM   24  C24 UNL     1     -12.249  13.855  28.157  1.00  0.00     0.006 C 
HETATM   25  C25 UNL     1     -13.038  14.837  28.947  1.00  0.00     0.026 C 
HETATM   26  C26 UNL     1     -12.242  15.801  29.755  1.00  0.00     0.117 C 
HETATM   27  N5  UNL     1     -11.075  16.312  29.133  1.00  0.00    -0.409 N 
HETATM   28  C30 UNL     1     -10.732  15.724  27.881  1.00  0.00     0.117 C 
HETATM   29  C31 UNL     1     -10.764  14.203  28.092  1.00  0.00     0.026 C 
BRANCH  27  30
HETATM   30  C27 UNL     1     -10.878  17.721  29.233  1.00  0.00     0.070 C 
HETATM   31  C28 UNL     1     -10.363  18.206  27.874  1.00  0.00     0.031 C 
HETATM   32  C29 UNL     1      -9.808  18.043  30.268  1.00  0.00     0.031 C 
ENDBRANCH  27  30
ENDBRANCH  23  24
ENDBRANCH  21  23
ENDBRANCH  15  19
BRANCH  14  33
HETATM   33  C19 UNL     1     -16.502   9.321  31.354  1.00  0.00     0.036 C 
BRANCH  33  34
HETATM   34  C20 UNL     1     -16.781   7.899  31.057  1.00  0.00     0.230 C 
BRANCH  34  35
HETATM   35  N3  UNL     1     -17.813   7.602  30.128  1.00  0.00    -0.079 N 
ATOM     36  H33 UNL     1     -17.857   8.343  29.429  1.00  0.00     0.274 HD
ATOM     37  H32 UNL     1     -17.529   6.810  29.552  1.00  0.00     0.274 HD
ATOM     38  H31 UNL     1     -18.750   7.431  30.494  1.00  0.00     0.274 HD
ENDBRANCH  34  35
ENDBRANCH  33  34
ENDBRANCH  14  33
BRANCH   1  39
HETATM   39  N2  UNL     1     -13.047  13.619  35.215  1.00  0.00    -0.346 N 
HETATM   40  C4  UNL     1     -11.751  14.123  35.149  1.00  0.00     0.248 C 
HETATM   41  O1  UNL     1     -10.805  13.428  34.717  1.00  0.00    -0.271 OA
ATOM     42  H2  UNL     1     -13.780  14.229  35.576  1.00  0.00     0.163 HD
BRANCH  40  43
HETATM   43  C2  UNL     1     -11.463  15.504  35.593  1.00  0.00     0.272 C 
HETATM   44  C3  UNL     1     -10.469  15.556  36.735  1.00  0.00     0.050 C 
BRANCH  43  45
HETATM   45  N1  UNL     1     -10.921  16.317  34.519  1.00  0.00    -0.067 N 
HETATM   46  C1  UNL     1      -9.720  16.956  35.018  1.00  0.00     0.267 C 
ATOM     47  H12 UNL     1     -11.597  16.982  34.143  1.00  0.00     0.277 HD
ATOM     48  H11 UNL     1     -10.762  15.788  33.662  1.00  0.00     0.277 HD
ENDBRANCH  43  45
ENDBRANCH  40  43
ENDBRANCH   1  39
TORSDOF 10
ENDMDL
MODEL 4
REMARK VINA RESULT: -7.583640467      2.581      4.776
REMARK  10 active torsions:
REMARK  status: ('A' for Active; 'I' for Inactive)
REMARK    1  A    between atoms: N1_2  and  C2_5 
REMARK    2  A    between atoms: C2_5  and  C4_7 
REMARK       I    between atoms: C4_7  and  N2_9 
REMARK    3  A    between atoms: N2_9  and  C5_11 
REMARK    4  A    between atoms: C18_24  and  C19_25 
REMARK    5  A    between atoms: C19_25  and  C20_26 
REMARK    6  A    between atoms: C20_26  and  N3_27 
REMARK    7  A    between atoms: C21_31  and  C22_32 
REMARK       I    between atoms: C22_32  and  N4_34 
REMARK    8  A    between atoms: N4_34  and  C23_36 
REMARK    9  A    between atoms: C23_36  and  C24_37 
REMARK   10  A    between atoms: N5_40  and  C27_41 
ROOT
HETATM    1  C5  UNL     1     -13.219  13.294  34.618  1.00  0.00     0.176 C 
HETATM    2  C6  UNL     1     -14.597  12.661  34.825  1.00  0.00     0.035 C 
HETATM    3  C7  UNL     1     -14.357  11.303  35.379  1.00  0.00     0.002 C 
HETATM    4  C8  UNL     1     -15.526  10.438  35.633  1.00  0.00     0.000 C 
HETATM    5  C9  UNL     1     -16.630  10.436  34.657  1.00  0.00     0.000 C 
HETATM    6  C10 UNL     1     -16.679   9.196  33.756  1.00  0.00     0.000 C 
HETATM    7  C11 UNL     1     -15.522   9.081  32.830  1.00  0.00     0.000 C 
HETATM    8  C12 UNL     1     -15.822   8.794  31.420  1.00  0.00     0.000 C 
HETATM    9  C13 UNL     1     -16.049   9.940  30.514  1.00  0.00     0.000 C 
HETATM   10  C14 UNL     1     -15.284  11.180  30.795  1.00  0.00     0.000 C 
HETATM   11  C15 UNL     1     -13.829  11.156  30.498  1.00  0.00     0.002 C 
HETATM   12  C16 UNL     1     -13.001  12.010  31.486  1.00  0.00     0.026 C 
HETATM   13  C17 UNL     1     -13.636  13.374  31.483  1.00  0.00     0.095 C 
HETATM   14  C18 UNL     1     -13.155  14.150  30.310  1.00  0.00     0.042 C 
HETATM   15  C21 UNL     1     -12.315  15.014  31.217  1.00  0.00     0.185 C 
HETATM   16  N6  UNL     1     -13.017  14.361  32.321  1.00  0.00    -0.331 N 
HETATM   17  C32 UNL     1     -13.231  14.453  33.713  1.00  0.00     0.243 C 
HETATM   18  O3  UNL     1     -13.454  15.591  34.275  1.00  0.00    -0.271 OA
ENDROOT
BRANCH  15  19
HETATM   19  C22 UNL     1     -10.878  14.809  31.077  1.00  0.00     0.241 C 
HETATM   20  O2  UNL     1     -10.242  14.339  32.079  1.00  0.00    -0.271 OA
HETATM   21  N4  UNL     1     -10.238  15.129  29.864  1.00  0.00    -0.359 N 
ATOM     22  H4  UNL     1     -10.762  15.503  29.073  1.00  0.00     0.162 HD
BRANCH  21  23
HETATM   23  C23 UNL     1      -8.807  14.906  29.780  1.00  0.00     0.127 C 
BRANCH  23  24
HETATM   24  C24 UNL     1      -8.385  14.877  28.350  1.00  0.00     0.006 C 
HETATM   25  C25 UNL     1      -9.464  14.526  27.389  1.00  0.00     0.026 C 
HETATM   26  C26 UNL     1      -9.822  15.586  26.407  1.00  0.00     0.117 C 
HETATM   27  N5  UNL     1      -8.736  16.320  25.867  1.00  0.00    -0.409 N 
HETATM   28  C30 UNL     1      -7.460  16.053  26.445  1.00  0.00     0.117 C 
HETATM   29  C31 UNL     1      -7.642  16.154  27.966  1.00  0.00     0.026 C 
BRANCH  27  30
HETATM   30  C27 UNL     1      -8.751  16.512  24.454  1.00  0.00     0.070 C 
HETATM   31  C28 UNL     1     -10.208  16.403  23.996  1.00  0.00     0.031 C 
HETATM   32  C29 UNL     1      -7.967  15.410  23.753  1.00  0.00     0.031 C 
ENDBRANCH  27  30
ENDBRANCH  23  24
ENDBRANCH  21  23
ENDBRANCH  15  19
BRANCH  14  33
HETATM   33  C19 UNL     1     -14.142  14.874  29.469  1.00  0.00     0.036 C 
BRANCH  33  34
HETATM   34  C20 UNL     1     -13.646  15.627  28.295  1.00  0.00     0.230 C 
BRANCH  34  35
HETATM   35  N3  UNL     1     -13.159  16.944  28.506  1.00  0.00    -0.079 N 
ATOM     36  H33 UNL     1     -13.225  17.170  29.499  1.00  0.00     0.274 HD
ATOM     37  H32 UNL     1     -12.148  16.952  28.373  1.00  0.00     0.274 HD
ATOM     38  H31 UNL     1     -13.575  17.701  27.963  1.00  0.00     0.274 HD
ENDBRANCH  34  35
ENDBRANCH  33  34
ENDBRANCH  14  33
BRANCH   1  39
HETATM   39  N2  UNL     1     -12.834  13.746  35.975  1.00  0.00    -0.346 N 
HETATM   40  C4  UNL     1     -11.856  13.130  36.752  1.00  0.00     0.248 C 
HETATM   41  O1  UNL     1     -11.230  12.130  36.336  1.00  0.00    -0.271 OA
ATOM     42  H2  UNL     1     -13.313  14.558  36.364  1.00  0.00     0.163 HD
BRANCH  40  43
HETATM   43  C2  UNL     1     -11.534  13.651  38.099  1.00  0.00     0.272 C 
HETATM   44  C3  UNL     1     -10.428  14.686  38.075  1.00  0.00     0.050 C 
BRANCH  43  45
HETATM   45  N1  UNL     1     -12.685  14.272  38.729  1.00  0.00    -0.067 N 
HETATM   46  C1  UNL     1     -13.389  13.243  39.465  1.00  0.00     0.267 C 
ATOM     47  H12 UNL     1     -13.283  14.766  38.067  1.00  0.00     0.277 HD
ATOM     48  H11 UNL     1     -12.435  15.075  39.308  1.00  0.00     0.277 HD
ENDBRANCH  43  45
ENDBRANCH  40  43
ENDBRANCH   1  39
TORSDOF 10
ENDMDL
MODEL 5
REMARK VINA RESULT: -7.489370681      9.719     14.095
REMARK  10 active torsions:
REMARK  status: ('A' for Active; 'I' for Inactive)
REMARK    1  A    between atoms: N1_2  and  C2_5 
REMARK    2  A    between atoms: C2_5  and  C4_7 
REMARK       I    between atoms: C4_7  and  N2_9 
REMARK    3  A    between atoms: N2_9  and  C5_11 
REMARK    4  A    between atoms: C18_24  and  C19_25 
REMARK    5  A    between atoms: C19_25  and  C20_26 
REMARK    6  A    between atoms: C20_26  and  N3_27 
REMARK    7  A    between atoms: C21_31  and  C22_32 
REMARK       I    between atoms: C22_32  and  N4_34 
REMARK    8  A    between atoms: N4_34  and  C23_36 
REMARK    9  A    between atoms: C23_36  and  C24_37 
REMARK   10  A    between atoms: N5_40  and  C27_41 
ROOT
HETATM    1  C5  UNL     1      -4.423  18.028  24.394  1.00  0.00     0.176 C 
HETATM    2  C6  UNL     1      -5.223  18.320  25.666  1.00  0.00     0.035 C 
HETATM    3  C7  UNL     1      -4.792  17.315  26.674  1.00  0.00     0.002 C 
HETATM    4  C8  UNL     1      -5.446  17.331  27.996  1.00  0.00     0.000 C 
HETATM    5  C9  UNL     1      -6.898  17.578  28.065  1.00  0.00     0.000 C 
HETATM    6  C10 UNL     1      -7.741  16.327  28.345  1.00  0.00     0.000 C 
HETATM    7  C11 UNL     1      -7.706  15.322  27.250  1.00  0.00     0.000 C 
HETATM    8  C12 UNL     1      -8.996  14.780  26.801  1.00  0.00     0.000 C 
HETATM    9  C13 UNL     1      -9.707  15.492  25.718  1.00  0.00     0.000 C 
HETATM   10  C14 UNL     1      -8.870  16.161  24.691  1.00  0.00     0.000 C 
HETATM   11  C15 UNL     1      -8.158  15.284  23.728  1.00  0.00     0.002 C 
HETATM   12  C16 UNL     1      -6.786  15.854  23.299  1.00  0.00     0.026 C 
HETATM   13  C17 UNL     1      -7.055  17.254  22.817  1.00  0.00     0.095 C 
HETATM   14  C18 UNL     1      -7.550  17.218  21.416  1.00  0.00     0.042 C 
HETATM   15  C21 UNL     1      -6.230  17.762  20.928  1.00  0.00     0.185 C 
HETATM   16  N6  UNL     1      -5.918  17.987  22.340  1.00  0.00    -0.331 N 
HETATM   17  C32 UNL     1      -4.994  18.639  23.184  1.00  0.00     0.243 C 
HETATM   18  O3  UNL     1      -4.594  19.837  22.928  1.00  0.00    -0.271 OA
ENDROOT
BRANCH  15  19
HETATM   19  C22 UNL     1      -5.430  16.806  20.174  1.00  0.00     0.241 C 
HETATM   20  O2  UNL     1      -5.533  15.571  20.477  1.00  0.00    -0.271 OA
HETATM   21  N4  UNL     1      -4.577  17.259  19.149  1.00  0.00    -0.359 N 
ATOM     22  H4  UNL     1      -4.507  18.250  18.919  1.00  0.00     0.162 HD
BRANCH  21  23
HETATM   23  C23 UNL     1      -3.802  16.265  18.430  1.00  0.00     0.127 C 
BRANCH  23  24
HETATM   24  C24 UNL     1      -3.745  16.619  16.983  1.00  0.00     0.006 C 
HETATM   25  C25 UNL     1      -3.920  15.472  16.053  1.00  0.00     0.026 C 
HETATM   26  C26 UNL     1      -5.121  15.531  15.176  1.00  0.00     0.117 C 
HETATM   27  N5  UNL     1      -5.432  16.806  14.641  1.00  0.00    -0.409 N 
HETATM   28  C30 UNL     1      -4.650  17.892  15.131  1.00  0.00     0.117 C 
HETATM   29  C31 UNL     1      -4.673  17.788  16.662  1.00  0.00     0.026 C 
BRANCH  27  30
HETATM   30  C27 UNL     1      -5.744  16.842  13.249  1.00  0.00     0.070 C 
HETATM   31  C28 UNL     1      -6.096  18.291  12.899  1.00  0.00     0.031 C 
HETATM   32  C29 UNL     1      -6.968  15.988  12.949  1.00  0.00     0.031 C 
ENDBRANCH  27  30
ENDBRANCH  23  24
ENDBRANCH  21  23
ENDBRANCH  15  19
BRANCH  14  33
HETATM   33  C19 UNL     1      -8.747  18.017  21.051  1.00  0.00     0.036 C 
BRANCH  33  34
HETATM   34  C20 UNL     1     -10.029  17.308  20.844  1.00  0.00     0.230 C 
BRANCH  34  35
HETATM   35  N3  UNL     1     -10.149  16.471  19.703  1.00  0.00    -0.079 N 
ATOM     36  H33 UNL     1     -10.862  15.764  19.880  1.00  0.00     0.274 HD
ATOM     37  H32 UNL     1     -10.585  16.999  18.946  1.00  0.00     0.274 HD
ATOM     38  H31 UNL     1      -9.307  16.016  19.352  1.00  0.00     0.274 HD
ENDBRANCH  34  35
ENDBRANCH  33  34
ENDBRANCH  14  33
BRANCH   1  39
HETATM   39  N2  UNL     1      -3.101  18.638  24.664  1.00  0.00    -0.346 N 
HETATM   40  C4  UNL     1      -1.896  18.127  24.188  1.00  0.00     0.248 C 
HETATM   41  O1  UNL     1      -1.862  17.093  23.486  1.00  0.00    -0.271 OA
ATOM     42  H2  UNL     1      -3.071  19.483  25.234  1.00  0.00     0.163 HD
BRANCH  40  43
HETATM   43  C2  UNL     1      -0.620  18.804  24.507  1.00  0.00     0.272 C 
HETATM   44  C3  UNL     1       0.590  17.985  24.108  1.00  0.00     0.050 C 
BRANCH  43  45
HETATM   45  N1  UNL     1      -0.505  20.087  23.840  1.00  0.00    -0.067 N 
HETATM   46  C1  UNL     1       0.094  19.854  22.542  1.00  0.00     0.267 C 
ATOM     47  H12 UNL     1       0.002  20.779  24.392  1.00  0.00     0.277 HD
ATOM     48  H11 UNL     1      -1.393  20.586  23.784  1.00  0.00     0.277 HD
ENDBRANCH  43  45
ENDBRANCH  40  43
ENDBRANCH   1  39
TORSDOF 10
ENDMDL
