MODEL 1
REMARK VINA RESULT: -4.649695423      0.000      0.000
REMARK  4 active torsions:
REMARK  status: ('A' for Active; 'I' for Inactive)
REMARK    1  A    between atoms: N1_2  and  C2_5 
REMARK    2  A    between atoms: C2_5  and  C3_6 
REMARK    3  A    between atoms: C3_6  and  C4_7 
REMARK    4  A    between atoms: C7_14  and  N4_15 
ROOT
HETATM    1  C4  UNL     1       8.726  -1.791  18.358  1.00  0.00     0.054 A 
HETATM    2  N2  UNL     1       7.474  -1.882  18.870  1.00  0.00    -0.365 N 
ATOM      3  H2  UNL     1       6.806  -2.547  18.482  1.00  0.00     0.165 HD
HETATM    4  C5  UNL     1       7.119  -1.075  19.907  1.00  0.00     0.105 A 
HETATM    5  C6  UNL     1       7.997  -0.162  20.463  1.00  0.00     0.106 A 
HETATM    6  N3  UNL     1       9.236  -0.075  19.953  1.00  0.00    -0.350 N 
ATOM      7  H3  UNL     1       9.908   0.589  20.337  1.00  0.00     0.166 HD
HETATM    8  C7  UNL     1       9.584  -0.890  18.910  1.00  0.00     0.121 A 
ENDROOT
BRANCH   1   9
HETATM    9  C3  UNL     1       9.182  -2.655  17.259  1.00  0.00     0.088 C 
BRANCH   9  10
HETATM   10  C2  UNL     1       8.752  -2.182  15.891  1.00  0.00     0.238 C 
BRANCH  10  11
HETATM   11  N1  UNL     1       9.940  -1.556  15.282  1.00  0.00    -0.079 N 
HETATM   12  C1  UNL     1       9.413  -0.981  14.033  1.00  0.00     0.267 C 
ATOM     13  H12 UNL     1      10.734  -2.184  15.159  1.00  0.00     0.276 HD
ATOM     14  H11 UNL     1      10.425  -0.891  15.883  1.00  0.00     0.276 HD
ENDBRANCH  10  11
ENDBRANCH   9  10
ENDBRANCH   1   9
BRANCH   8  15
HETATM   15  N4  UNL     1      10.796  -0.742  18.485  1.00  0.00    -0.384 N 
ATOM     16  H42 UNL     1      11.469  -1.408  18.867  1.00  0.00     0.157 HD
ATOM     17  H41 UNL     1      11.053  -0.015  17.818  1.00  0.00     0.157 HD
ENDBRANCH   8  15
TORSDOF 4
ENDMDL
MODEL 2
REMARK VINA RESULT: -4.436118082      1.254      1.586
REMARK  4 active torsions:
REMARK  status: ('A' for Active; 'I' for Inactive)
REMARK    1  A    between atoms: N1_2  and  C2_5 
REMARK    2  A    between atoms: C2_5  and  C3_6 
REMARK    3  A    between atoms: C3_6  and  C4_7 
REMARK    4  A    between atoms: C7_14  and  N4_15 
ROOT
HETATM    1  C4  UNL     1       8.203  -1.168  19.226  1.00  0.00     0.054 A 
HETATM    2  N2  UNL     1       7.021  -1.741  19.559  1.00  0.00    -0.365 N 
ATOM      3  H2  UNL     1       6.624  -2.479  18.978  1.00  0.00     0.165 HD
HETATM    4  C5  UNL     1       6.369  -1.320  20.678  1.00  0.00     0.105 A 
HETATM    5  C6  UNL     1       6.875  -0.325  21.493  1.00  0.00     0.106 A 
HETATM    6  N3  UNL     1       8.047   0.241  21.161  1.00  0.00    -0.350 N 
ATOM      7  H3  UNL     1       8.447   0.980  21.739  1.00  0.00     0.166 HD
HETATM    8  C7  UNL     1       8.694  -0.188  20.034  1.00  0.00     0.121 A 
ENDROOT
BRANCH   1   9
HETATM    9  C3  UNL     1       8.972  -1.597  18.048  1.00  0.00     0.088 C 
BRANCH   9  10
HETATM   10  C2  UNL     1       8.558  -2.944  17.507  1.00  0.00     0.238 C 
BRANCH  10  11
HETATM   11  N1  UNL     1       9.385  -3.176  16.309  1.00  0.00    -0.079 N 
HETATM   12  C1  UNL     1       8.868  -2.188  15.347  1.00  0.00     0.267 C 
ATOM     13  H12 UNL     1       9.383  -4.139  15.972  1.00  0.00     0.276 HD
ATOM     14  H11 UNL     1      10.391  -3.124  16.471  1.00  0.00     0.276 HD
ENDBRANCH  10  11
ENDBRANCH   9  10
ENDBRANCH   1   9
BRANCH   8  15
HETATM   15  N4  UNL     1       9.817   0.407  19.791  1.00  0.00    -0.384 N 
ATOM     16  H42 UNL     1      10.388  -0.031  19.068  1.00  0.00     0.157 HD
ATOM     17  H41 UNL     1      10.102   1.251  20.287  1.00  0.00     0.157 HD
ENDBRANCH   8  15
TORSDOF 4
ENDMDL
MODEL 3
REMARK VINA RESULT: -4.333052374      1.541      4.673
REMARK  4 active torsions:
REMARK  status: ('A' for Active; 'I' for Inactive)
REMARK    1  A    between atoms: N1_2  and  C2_5 
REMARK    2  A    between atoms: C2_5  and  C3_6 
REMARK    3  A    between atoms: C3_6  and  C4_7 
REMARK    4  A    between atoms: C7_14  and  N4_15 
ROOT
HETATM    1  C4  UNL     1       8.679  -0.929  19.060  1.00  0.00     0.054 A 
HETATM    2  N2  UNL     1       7.576  -1.589  18.629  1.00  0.00    -0.365 N 
ATOM      3  H2  UNL     1       6.685  -1.475  19.112  1.00  0.00     0.165 HD
HETATM    4  C5  UNL     1       7.670  -2.406  17.544  1.00  0.00     0.105 A 
HETATM    5  C6  UNL     1       8.859  -2.586  16.860  1.00  0.00     0.106 A 
HETATM    6  N3  UNL     1       9.949  -1.931  17.289  1.00  0.00    -0.350 N 
ATOM      7  H3  UNL     1      10.842  -2.042  16.809  1.00  0.00     0.166 HD
HETATM    8  C7  UNL     1       9.845  -1.112  18.380  1.00  0.00     0.121 A 
ENDROOT
BRANCH   1   9
HETATM    9  C3  UNL     1       8.637  -0.009  20.205  1.00  0.00     0.088 C 
BRANCH   9  10
HETATM   10  C2  UNL     1       7.499  -0.273  21.160  1.00  0.00     0.238 C 
BRANCH  10  11
HETATM   11  N1  UNL     1       7.702   0.637  22.302  1.00  0.00    -0.079 N 
HETATM   12  C1  UNL     1       7.774  -0.280  23.453  1.00  0.00     0.267 C 
ATOM     13  H12 UNL     1       7.001   1.372  22.389  1.00  0.00     0.276 HD
ATOM     14  H11 UNL     1       8.500   1.264  22.209  1.00  0.00     0.276 HD
ENDBRANCH  10  11
ENDBRANCH   9  10
ENDBRANCH   1   9
BRANCH   8  15
HETATM   15  N4  UNL     1      10.942  -0.517  18.722  1.00  0.00    -0.384 N 
ATOM     16  H42 UNL     1      11.125  -0.498  19.725  1.00  0.00     0.157 HD
ATOM     17  H41 UNL     1      11.571  -0.103  18.035  1.00  0.00     0.157 HD
ENDBRANCH   8  15
TORSDOF 4
ENDMDL
MODEL 4
REMARK VINA RESULT: -4.100436238      0.939      2.007
REMARK  4 active torsions:
REMARK  status: ('A' for Active; 'I' for Inactive)
REMARK    1  A    between atoms: N1_2  and  C2_5 
REMARK    2  A    between atoms: C2_5  and  C3_6 
REMARK    3  A    between atoms: C3_6  and  C4_7 
REMARK    4  A    between atoms: C7_14  and  N4_15 
ROOT
HETATM    1  C4  UNL     1       9.125  -1.882  17.909  1.00  0.00     0.054 A 
HETATM    2  N2  UNL     1      10.229  -1.190  18.281  1.00  0.00    -0.365 N 
ATOM      3  H2  UNL     1      11.122  -1.357  17.818  1.00  0.00     0.165 HD
HETATM    4  C5  UNL     1      10.133  -0.268  19.278  1.00  0.00     0.105 A 
HETATM    5  C6  UNL     1       8.940  -0.009  19.928  1.00  0.00     0.106 A 
HETATM    6  N3  UNL     1       7.848  -0.696  19.558  1.00  0.00    -0.350 N 
ATOM      7  H3  UNL     1       6.952  -0.532  20.017  1.00  0.00     0.166 HD
HETATM    8  C7  UNL     1       7.954  -1.621  18.554  1.00  0.00     0.121 A 
ENDROOT
BRANCH   1   9
HETATM    9  C3  UNL     1       9.154  -2.868  16.820  1.00  0.00     0.088 C 
BRANCH   9  10
HETATM   10  C2  UNL     1       8.829  -2.291  15.464  1.00  0.00     0.238 C 
BRANCH  10  11
HETATM   11  N1  UNL     1       9.977  -1.445  15.091  1.00  0.00    -0.079 N 
HETATM   12  C1  UNL     1       9.507  -0.754  13.879  1.00  0.00     0.267 C 
ATOM     13  H12 UNL     1      10.856  -1.950  14.979  1.00  0.00     0.276 HD
ATOM     14  H11 UNL     1      10.306  -0.826  15.832  1.00  0.00     0.276 HD
ENDBRANCH  10  11
ENDBRANCH   9  10
ENDBRANCH   1   9
BRANCH   8  15
HETATM   15  N4  UNL     1       6.854  -2.233  18.259  1.00  0.00    -0.384 N 
ATOM     16  H42 UNL     1       6.969  -3.077  17.697  1.00  0.00     0.157 HD
ATOM     17  H41 UNL     1       5.944  -1.894  18.570  1.00  0.00     0.157 HD
ENDBRANCH   8  15
TORSDOF 4
ENDMDL
MODEL 5
REMARK VINA RESULT: -4.075833190      3.009      5.820
REMARK  4 active torsions:
REMARK  status: ('A' for Active; 'I' for Inactive)
REMARK    1  A    between atoms: N1_2  and  C2_5 
REMARK    2  A    between atoms: C2_5  and  C3_6 
REMARK    3  A    between atoms: C3_6  and  C4_7 
REMARK    4  A    between atoms: C7_14  and  N4_15 
ROOT
HETATM    1  C4  UNL     1       6.707  -0.866  21.197  1.00  0.00     0.054 A 
HETATM    2  N2  UNL     1       6.806  -1.578  20.047  1.00  0.00    -0.365 N 
ATOM      3  H2  UNL     1       6.106  -2.282  19.815  1.00  0.00     0.165 HD
HETATM    4  C5  UNL     1       7.850  -1.342  19.206  1.00  0.00     0.105 A 
HETATM    5  C6  UNL     1       8.818  -0.394  19.483  1.00  0.00     0.106 A 
HETATM    6  N3  UNL     1       8.717   0.310  20.623  1.00  0.00    -0.350 N 
ATOM      7  H3  UNL     1       9.414   1.016  20.859  1.00  0.00     0.166 HD
HETATM    8  C7  UNL     1       7.663   0.066  21.462  1.00  0.00     0.121 A 
ENDROOT
BRANCH   1   9
HETATM    9  C3  UNL     1       5.587  -1.050  22.132  1.00  0.00     0.088 C 
BRANCH   9  10
HETATM   10  C2  UNL     1       5.608  -2.375  22.856  1.00  0.00     0.238 C 
BRANCH  10  11
HETATM   11  N1  UNL     1       6.643  -2.257  23.898  1.00  0.00    -0.079 N 
HETATM   12  C1  UNL     1       5.984  -1.449  24.937  1.00  0.00     0.267 C 
ATOM     13  H12 UNL     1       7.534  -1.883  23.571  1.00  0.00     0.276 HD
ATOM     14  H11 UNL     1       7.018  -3.146  24.226  1.00  0.00     0.276 HD
ENDBRANCH  10  11
ENDBRANCH   9  10
ENDBRANCH   1   9
BRANCH   8  15
HETATM   15  N4  UNL     1       7.642   0.791  22.533  1.00  0.00    -0.384 N 
ATOM     16  H42 UNL     1       6.709   1.036  22.867  1.00  0.00     0.157 HD
ATOM     17  H41 UNL     1       8.495   1.090  23.003  1.00  0.00     0.157 HD
ENDBRANCH   8  15
TORSDOF 4
ENDMDL
