MODEL 1
REMARK VINA RESULT: -8.292575002      0.000      0.000
REMARK  13 active torsions:
REMARK  status: ('A' for Active; 'I' for Inactive)
REMARK    1  A    between atoms: C2_2  and  C3_3 
REMARK    2  A    between atoms: C3_3  and  C4_4 
REMARK    3  A    between atoms: C4_4  and  C5_5 
REMARK    4  A    between atoms: C5_5  and  N1_6 
REMARK    5  A    between atoms: N1_6  and  C6_8 
REMARK    6  A    between atoms: C6_8  and  C7_9 
REMARK    7  A    between atoms: C7_9  and  C8_10 
REMARK    8  A    between atoms: C8_10  and  N2_11 
REMARK    9  A    between atoms: N2_11  and  C9_13 
REMARK   10  A    between atoms: C9_13  and  C10_17 
REMARK   11  A    between atoms: C11_21  and  C12_22 
REMARK   12  A    between atoms: C12_22  and  C13_23 
REMARK   13  A    between atoms: C23_33  and  O1_34 
ROOT
HETATM    1  C10 UNL     1      32.487  41.327  -8.863  1.00  0.00     0.261 C 
HETATM    2  N4  UNL     1      32.773  42.728  -9.111  1.00  0.00    -0.059 N 
ATOM      3  H41 UNL     1      33.667  43.030  -8.721  1.00  0.00     0.278 HD
ATOM      4  H42 UNL     1      32.178  43.359  -8.575  1.00  0.00     0.278 HD
HETATM    5  C11 UNL     1      32.679  42.933 -10.534  1.00  0.00     0.195 C 
HETATM    6  C16 UNL     1      32.588  41.586 -11.172  1.00  0.00     0.064 C 
HETATM    7  C17 UNL     1      31.825  40.836 -10.086  1.00  0.00     0.066 C 
HETATM    8  C18 UNL     1      31.791  39.417 -10.351  1.00  0.00    -0.042 A 
HETATM    9  C19 UNL     1      31.267  38.861  -9.205  1.00  0.00     0.015 A 
HETATM   10  C20 UNL     1      31.077  37.511  -9.065  1.00  0.00    -0.059 A 
HETATM   11  C21 UNL     1      30.520  36.877  -7.832  1.00  0.00     0.048 C 
HETATM   12  C22 UNL     1      31.421  36.701 -10.107  1.00  0.00     0.044 A 
HETATM   13  C23 UNL     1      31.965  37.242 -11.308  1.00  0.00     0.073 A 
HETATM   14  C24 UNL     1      32.136  38.601 -11.396  1.00  0.00    -0.018 A 
HETATM   15  C25 UNL     1      32.697  38.931 -12.735  1.00  0.00     0.049 C 
HETATM   16  C26 UNL     1      31.924  39.959 -13.476  1.00  0.00     0.025 C 
HETATM   17  C27 UNL     1      32.628  41.311 -13.549  1.00  0.00     0.049 C 
HETATM   18  C28 UNL     1      31.807  41.720 -12.438  1.00  0.00     0.095 A 
HETATM   19  O2  UNL     1      30.540  41.690 -12.126  1.00  0.00    -0.368 OA
HETATM   20  C29 UNL     1      30.804  40.693 -12.960  1.00  0.00     0.162 A 
ENDROOT
BRANCH   1  21
HETATM   21  C9  UNL     1      33.622  40.585  -8.345  1.00  0.00     0.102 C 
HETATM   22  N3  UNL     1      34.571  40.200  -9.113  1.00  0.00    -0.387 N 
ATOM     23  H32 UNL     1      35.368  39.679  -8.749  1.00  0.00     0.157 HD
ATOM     24  H31 UNL     1      34.515  40.416 -10.108  1.00  0.00     0.157 HD
BRANCH  21  25
HETATM   25  N2  UNL     1      33.701  40.282  -6.944  1.00  0.00    -0.378 N 
ATOM     26  H2  UNL     1      32.884  39.923  -6.450  1.00  0.00     0.160 HD
BRANCH  25  27
HETATM   27  C8  UNL     1      34.964  40.493  -6.229  1.00  0.00     0.122 C 
BRANCH  27  28
HETATM   28  C7  UNL     1      35.223  41.901  -5.850  1.00  0.00     0.039 C 
BRANCH  28  29
HETATM   29  C6  UNL     1      36.075  42.081  -4.617  1.00  0.00     0.115 C 
BRANCH  29  30
HETATM   30  N1  UNL     1      35.395  41.721  -3.417  1.00  0.00    -0.421 N 
ATOM     31  H1  UNL     1      34.492  41.246  -3.431  1.00  0.00     0.153 HD
BRANCH  30  32
HETATM   32  C5  UNL     1      36.044  42.061  -2.199  1.00  0.00     0.113 C 
BRANCH  32  33
HETATM   33  C4  UNL     1      36.859  43.299  -2.196  1.00  0.00     0.019 C 
BRANCH  33  34
HETATM   34  C3  UNL     1      36.506  44.352  -1.218  1.00  0.00     0.001 C 
BRANCH  34  35
HETATM   35  C2  UNL     1      37.612  44.984  -0.453  1.00  0.00    -0.004 C 
HETATM   36  C1  UNL     1      38.215  43.891   0.457  1.00  0.00     0.005 C 
ENDBRANCH  34  35
ENDBRANCH  33  34
ENDBRANCH  32  33
ENDBRANCH  30  32
ENDBRANCH  29  30
ENDBRANCH  28  29
ENDBRANCH  27  28
ENDBRANCH  25  27
ENDBRANCH  21  25
ENDBRANCH   1  21
BRANCH   5  37
HETATM   37  C12 UNL     1      33.649  43.921 -11.051  1.00  0.00     0.037 C 
BRANCH  37  38
HETATM   38  C13 UNL     1      33.195  45.059 -11.857  1.00  0.00    -0.021 C 
HETATM   39  C14 UNL     1      31.675  45.207 -11.545  1.00  0.00     0.009 C 
HETATM   40  C15 UNL     1      33.236  44.940 -13.354  1.00  0.00     0.009 C 
ENDBRANCH  37  38
ENDBRANCH   5  37
BRANCH  13  41
HETATM   41  O1  UNL     1      32.284  36.374 -12.294  1.00  0.00    -0.360 OA
ATOM     42  H1  UNL     1      33.157  36.432 -12.665  1.00  0.00     0.217 HD
ENDBRANCH  13  41
TORSDOF 13
ENDMDL
MODEL 2
REMARK VINA RESULT: -8.272794397      1.444      4.849
REMARK  13 active torsions:
REMARK  status: ('A' for Active; 'I' for Inactive)
REMARK    1  A    between atoms: C2_2  and  C3_3 
REMARK    2  A    between atoms: C3_3  and  C4_4 
REMARK    3  A    between atoms: C4_4  and  C5_5 
REMARK    4  A    between atoms: C5_5  and  N1_6 
REMARK    5  A    between atoms: N1_6  and  C6_8 
REMARK    6  A    between atoms: C6_8  and  C7_9 
REMARK    7  A    between atoms: C7_9  and  C8_10 
REMARK    8  A    between atoms: C8_10  and  N2_11 
REMARK    9  A    between atoms: N2_11  and  C9_13 
REMARK   10  A    between atoms: C9_13  and  C10_17 
REMARK   11  A    between atoms: C11_21  and  C12_22 
REMARK   12  A    between atoms: C12_22  and  C13_23 
REMARK   13  A    between atoms: C23_33  and  O1_34 
ROOT
HETATM    1  C10 UNL     1      33.462  40.965 -10.428  1.00  0.00     0.261 C 
HETATM    2  N4  UNL     1      33.640  39.603  -9.962  1.00  0.00    -0.059 N 
ATOM      3  H41 UNL     1      33.603  39.520  -8.945  1.00  0.00     0.278 HD
ATOM      4  H42 UNL     1      34.591  39.258 -10.087  1.00  0.00     0.278 HD
HETATM    5  C11 UNL     1      32.652  38.794 -10.632  1.00  0.00     0.195 C 
HETATM    6  C16 UNL     1      31.704  39.726 -11.313  1.00  0.00     0.064 C 
HETATM    7  C17 UNL     1      32.661  40.859 -11.663  1.00  0.00     0.066 C 
HETATM    8  C18 UNL     1      31.949  42.018 -12.146  1.00  0.00    -0.042 A 
HETATM    9  C19 UNL     1      32.902  43.010 -12.217  1.00  0.00     0.015 A 
HETATM   10  C20 UNL     1      32.610  44.281 -12.637  1.00  0.00    -0.059 A 
HETATM   11  C21 UNL     1      33.620  45.379 -12.716  1.00  0.00     0.048 C 
HETATM   12  C22 UNL     1      31.325  44.560 -12.997  1.00  0.00     0.044 A 
HETATM   13  C23 UNL     1      30.313  43.560 -12.937  1.00  0.00     0.073 A 
HETATM   14  C24 UNL     1      30.658  42.302 -12.508  1.00  0.00    -0.018 A 
HETATM   15  C25 UNL     1      29.452  41.432 -12.546  1.00  0.00     0.049 C 
HETATM   16  C26 UNL     1      29.643  40.168 -13.301  1.00  0.00     0.025 C 
HETATM   17  C27 UNL     1      29.728  38.934 -12.407  1.00  0.00     0.049 C 
HETATM   18  C28 UNL     1      31.161  39.036 -12.521  1.00  0.00     0.095 A 
HETATM   19  O2  UNL     1      32.033  39.175 -13.482  1.00  0.00    -0.368 OA
HETATM   20  C29 UNL     1      30.882  39.711 -13.863  1.00  0.00     0.162 A 
ENDROOT
BRANCH   1  21
HETATM   21  C9  UNL     1      33.019  41.881  -9.393  1.00  0.00     0.102 C 
HETATM   22  N3  UNL     1      31.782  41.981  -9.079  1.00  0.00    -0.387 N 
ATOM     23  H32 UNL     1      31.471  42.624  -8.351  1.00  0.00     0.157 HD
ATOM     24  H31 UNL     1      31.101  41.409  -9.577  1.00  0.00     0.157 HD
BRANCH  21  25
HETATM   25  N2  UNL     1      33.977  42.686  -8.691  1.00  0.00    -0.378 N 
ATOM     26  H2  UNL     1      34.693  43.198  -9.206  1.00  0.00     0.160 HD
BRANCH  25  27
HETATM   27  C8  UNL     1      33.920  42.767  -7.228  1.00  0.00     0.122 C 
BRANCH  27  28
HETATM   28  C7  UNL     1      34.549  41.623  -6.529  1.00  0.00     0.039 C 
BRANCH  28  29
HETATM   29  C6  UNL     1      35.626  41.997  -5.539  1.00  0.00     0.115 C 
BRANCH  29  30
HETATM   30  N1  UNL     1      35.237  41.770  -4.186  1.00  0.00    -0.421 N 
ATOM     31  H1  UNL     1      34.305  41.433  -3.943  1.00  0.00     0.153 HD
BRANCH  30  32
HETATM   32  C5  UNL     1      36.218  42.042  -3.196  1.00  0.00     0.113 C 
BRANCH  32  33
HETATM   33  C4  UNL     1      35.794  41.924  -1.780  1.00  0.00     0.019 C 
BRANCH  33  34
HETATM   34  C3  UNL     1      36.278  42.950  -0.829  1.00  0.00     0.001 C 
BRANCH  34  35
HETATM   35  C2  UNL     1      36.426  44.340  -1.328  1.00  0.00    -0.004 C 
HETATM   36  C1  UNL     1      37.583  44.986  -0.535  1.00  0.00     0.005 C 
ENDBRANCH  34  35
ENDBRANCH  33  34
ENDBRANCH  32  33
ENDBRANCH  30  32
ENDBRANCH  29  30
ENDBRANCH  28  29
ENDBRANCH  27  28
ENDBRANCH  25  27
ENDBRANCH  21  25
ENDBRANCH   1  21
BRANCH   5  37
HETATM   37  C12 UNL     1      32.122  37.699  -9.792  1.00  0.00     0.037 C 
BRANCH  37  38
HETATM   38  C13 UNL     1      31.185  37.985  -8.700  1.00  0.00    -0.021 C 
HETATM   39  C14 UNL     1      31.938  37.587  -7.394  1.00  0.00     0.009 C 
HETATM   40  C15 UNL     1      29.909  37.196  -8.625  1.00  0.00     0.009 C 
ENDBRANCH  37  38
ENDBRANCH   5  37
BRANCH  13  41
HETATM   41  O1  UNL     1      29.062  43.915 -13.308  1.00  0.00    -0.360 OA
ATOM     42  H1  UNL     1      28.373  43.839 -12.658  1.00  0.00     0.217 HD
ENDBRANCH  13  41
TORSDOF 13
ENDMDL
MODEL 3
REMARK VINA RESULT: -7.592084177      2.107      5.375
REMARK  13 active torsions:
REMARK  status: ('A' for Active; 'I' for Inactive)
REMARK    1  A    between atoms: C2_2  and  C3_3 
REMARK    2  A    between atoms: C3_3  and  C4_4 
REMARK    3  A    between atoms: C4_4  and  C5_5 
REMARK    4  A    between atoms: C5_5  and  N1_6 
REMARK    5  A    between atoms: N1_6  and  C6_8 
REMARK    6  A    between atoms: C6_8  and  C7_9 
REMARK    7  A    between atoms: C7_9  and  C8_10 
REMARK    8  A    between atoms: C8_10  and  N2_11 
REMARK    9  A    between atoms: N2_11  and  C9_13 
REMARK   10  A    between atoms: C9_13  and  C10_17 
REMARK   11  A    between atoms: C11_21  and  C12_22 
REMARK   12  A    between atoms: C12_22  and  C13_23 
REMARK   13  A    between atoms: C23_33  and  O1_34 
ROOT
HETATM    1  C10 UNL     1      34.646  38.482  -7.775  1.00  0.00     0.261 C 
HETATM    2  N4  UNL     1      35.157  37.149  -7.516  1.00  0.00    -0.059 N 
ATOM      3  H41 UNL     1      34.941  36.813  -6.577  1.00  0.00     0.278 HD
ATOM      4  H42 UNL     1      36.173  37.118  -7.436  1.00  0.00     0.278 HD
HETATM    5  C11 UNL     1      34.645  36.291  -8.555  1.00  0.00     0.195 C 
HETATM    6  C16 UNL     1      33.607  37.066  -9.299  1.00  0.00     0.064 C 
HETATM    7  C17 UNL     1      34.195  38.467  -9.180  1.00  0.00     0.066 C 
HETATM    8  C18 UNL     1      33.261  39.470  -9.633  1.00  0.00    -0.042 A 
HETATM    9  C19 UNL     1      33.834  40.670  -9.274  1.00  0.00     0.015 A 
HETATM   10  C20 UNL     1      33.239  41.875  -9.536  1.00  0.00    -0.059 A 
HETATM   11  C21 UNL     1      33.831  43.192  -9.150  1.00  0.00     0.048 C 
HETATM   12  C22 UNL     1      32.035  41.873 -10.177  1.00  0.00     0.044 A 
HETATM   13  C23 UNL     1      31.412  40.652 -10.564  1.00  0.00     0.073 A 
HETATM   14  C24 UNL     1      32.052  39.471 -10.277  1.00  0.00    -0.018 A 
HETATM   15  C25 UNL     1      31.227  38.341 -10.787  1.00  0.00     0.049 C 
HETATM   16  C26 UNL     1      31.969  37.401 -11.665  1.00  0.00     0.025 C 
HETATM   17  C27 UNL     1      32.264  36.058 -11.005  1.00  0.00     0.049 C 
HETATM   18  C28 UNL     1      33.577  36.571 -10.708  1.00  0.00     0.095 A 
HETATM   19  O2  UNL     1      34.536  37.173 -11.359  1.00  0.00    -0.368 OA
HETATM   20  C29 UNL     1      33.376  37.452 -11.940  1.00  0.00     0.162 A 
ENDROOT
BRANCH   1  21
HETATM   21  C9  UNL     1      33.728  38.961  -6.758  1.00  0.00     0.102 C 
HETATM   22  N3  UNL     1      32.645  38.332  -6.492  1.00  0.00    -0.387 N 
ATOM     23  H32 UNL     1      32.000  38.668  -5.777  1.00  0.00     0.157 HD
ATOM     24  H31 UNL     1      32.427  37.485  -7.017  1.00  0.00     0.157 HD
BRANCH  21  25
HETATM   25  N2  UNL     1      34.034  40.152  -6.020  1.00  0.00    -0.378 N 
ATOM     26  H2  UNL     1      33.296  40.655  -5.528  1.00  0.00     0.160 HD
BRANCH  25  27
HETATM   27  C8  UNL     1      35.416  40.642  -5.979  1.00  0.00     0.122 C 
BRANCH  27  28
HETATM   28  C7  UNL     1      35.566  42.001  -5.410  1.00  0.00     0.039 C 
BRANCH  28  29
HETATM   29  C6  UNL     1      36.198  42.050  -4.040  1.00  0.00     0.115 C 
BRANCH  29  30
HETATM   30  N1  UNL     1      35.286  41.709  -2.998  1.00  0.00    -0.421 N 
ATOM     31  H1  UNL     1      34.364  41.321  -3.195  1.00  0.00     0.153 HD
BRANCH  30  32
HETATM   32  C5  UNL     1      35.735  41.939  -1.669  1.00  0.00     0.113 C 
BRANCH  32  33
HETATM   33  C4  UNL     1      36.414  43.229  -1.404  1.00  0.00     0.019 C 
BRANCH  33  34
HETATM   34  C3  UNL     1      37.147  43.371  -0.126  1.00  0.00     0.001 C 
BRANCH  34  35
HETATM   35  C2  UNL     1      37.172  42.203   0.790  1.00  0.00    -0.004 C 
HETATM   36  C1  UNL     1      38.123  42.560   1.953  1.00  0.00     0.005 C 
ENDBRANCH  34  35
ENDBRANCH  33  34
ENDBRANCH  32  33
ENDBRANCH  30  32
ENDBRANCH  29  30
ENDBRANCH  28  29
ENDBRANCH  27  28
ENDBRANCH  25  27
ENDBRANCH  21  25
ENDBRANCH   1  21
BRANCH   5  37
HETATM   37  C12 UNL     1      34.338  34.922  -8.089  1.00  0.00     0.037 C 
BRANCH  37  38
HETATM   38  C13 UNL     1      33.110  34.651  -7.335  1.00  0.00    -0.021 C 
HETATM   39  C14 UNL     1      33.568  33.873  -6.064  1.00  0.00     0.009 C 
HETATM   40  C15 UNL     1      32.078  33.747  -7.947  1.00  0.00     0.009 C 
ENDBRANCH  37  38
ENDBRANCH   5  37
BRANCH  13  41
HETATM   41  O1  UNL     1      30.219  40.732 -11.194  1.00  0.00    -0.360 OA
ATOM     42  H1  UNL     1      29.440  40.535 -10.686  1.00  0.00     0.217 HD
ENDBRANCH  13  41
TORSDOF 13
ENDMDL
MODEL 4
REMARK VINA RESULT: -7.572959251      1.194      1.768
REMARK  13 active torsions:
REMARK  status: ('A' for Active; 'I' for Inactive)
REMARK    1  A    between atoms: C2_2  and  C3_3 
REMARK    2  A    between atoms: C3_3  and  C4_4 
REMARK    3  A    between atoms: C4_4  and  C5_5 
REMARK    4  A    between atoms: C5_5  and  N1_6 
REMARK    5  A    between atoms: N1_6  and  C6_8 
REMARK    6  A    between atoms: C6_8  and  C7_9 
REMARK    7  A    between atoms: C7_9  and  C8_10 
REMARK    8  A    between atoms: C8_10  and  N2_11 
REMARK    9  A    between atoms: N2_11  and  C9_13 
REMARK   10  A    between atoms: C9_13  and  C10_17 
REMARK   11  A    between atoms: C11_21  and  C12_22 
REMARK   12  A    between atoms: C12_22  and  C13_23 
REMARK   13  A    between atoms: C23_33  and  O1_34 
ROOT
HETATM    1  C10 UNL     1      32.487  41.193  -8.940  1.00  0.00     0.261 C 
HETATM    2  N4  UNL     1      32.821  42.587  -9.165  1.00  0.00    -0.059 N 
ATOM      3  H41 UNL     1      33.736  42.845  -8.795  1.00  0.00     0.278 HD
ATOM      4  H42 UNL     1      32.266  43.228  -8.599  1.00  0.00     0.278 HD
HETATM    5  C11 UNL     1      32.696  42.828 -10.581  1.00  0.00     0.195 C 
HETATM    6  C16 UNL     1      32.536  41.500 -11.245  1.00  0.00     0.064 C 
HETATM    7  C17 UNL     1      31.773  40.756 -10.155  1.00  0.00     0.066 C 
HETATM    8  C18 UNL     1      31.675  39.346 -10.449  1.00  0.00    -0.042 A 
HETATM    9  C19 UNL     1      31.161  38.784  -9.302  1.00  0.00     0.015 A 
HETATM   10  C20 UNL     1      30.921  37.441  -9.186  1.00  0.00    -0.059 A 
HETATM   11  C21 UNL     1      30.374  36.800  -7.952  1.00  0.00     0.048 C 
HETATM   12  C22 UNL     1      31.205  36.642 -10.254  1.00  0.00     0.044 A 
HETATM   13  C23 UNL     1      31.737  37.188 -11.458  1.00  0.00     0.073 A 
HETATM   14  C24 UNL     1      31.959  38.542 -11.521  1.00  0.00    -0.018 A 
HETATM   15  C25 UNL     1      32.496  38.879 -12.868  1.00  0.00     0.049 C 
HETATM   16  C26 UNL     1      31.745  39.954 -13.564  1.00  0.00     0.025 C 
HETATM   17  C27 UNL     1      32.500  41.279 -13.628  1.00  0.00     0.049 C 
HETATM   18  C28 UNL     1      31.727  41.694 -12.485  1.00  0.00     0.095 A 
HETATM   19  O2  UNL     1      30.468  41.706 -12.139  1.00  0.00    -0.368 OA
HETATM   20  C29 UNL     1      30.670  40.719 -13.001  1.00  0.00     0.162 A 
ENDROOT
BRANCH   1  21
HETATM   21  C9  UNL     1      33.605  40.396  -8.470  1.00  0.00     0.102 C 
HETATM   22  N3  UNL     1      34.561  40.065  -9.254  1.00  0.00    -0.387 N 
ATOM     23  H32 UNL     1      35.347  39.505  -8.924  1.00  0.00     0.157 HD
ATOM     24  H31 UNL     1      34.523  40.364 -10.228  1.00  0.00     0.157 HD
BRANCH  21  25
HETATM   25  N2  UNL     1      33.658  39.975  -7.099  1.00  0.00    -0.378 N 
ATOM     26  H2  UNL     1      32.893  39.435  -6.698  1.00  0.00     0.160 HD
BRANCH  25  27
HETATM   27  C8  UNL     1      34.823  40.328  -6.280  1.00  0.00     0.122 C 
BRANCH  27  28
HETATM   28  C7  UNL     1      34.965  41.778  -6.015  1.00  0.00     0.039 C 
BRANCH  28  29
HETATM   29  C6  UNL     1      35.959  42.132  -4.934  1.00  0.00     0.115 C 
BRANCH  29  30
HETATM   30  N1  UNL     1      35.472  41.853  -3.623  1.00  0.00    -0.421 N 
ATOM     31  H1  UNL     1      34.478  41.724  -3.434  1.00  0.00     0.153 HD
BRANCH  30  32
HETATM   32  C5  UNL     1      36.449  41.764  -2.596  1.00  0.00     0.113 C 
BRANCH  32  33
HETATM   33  C4  UNL     1      37.790  41.264  -2.985  1.00  0.00     0.019 C 
BRANCH  33  34
HETATM   34  C3  UNL     1      38.064  39.821  -2.807  1.00  0.00     0.001 C 
BRANCH  34  35
HETATM   35  C2  UNL     1      37.504  39.153  -1.605  1.00  0.00    -0.004 C 
HETATM   36  C1  UNL     1      38.186  37.772  -1.495  1.00  0.00     0.005 C 
ENDBRANCH  34  35
ENDBRANCH  33  34
ENDBRANCH  32  33
ENDBRANCH  30  32
ENDBRANCH  29  30
ENDBRANCH  28  29
ENDBRANCH  27  28
ENDBRANCH  25  27
ENDBRANCH  21  25
ENDBRANCH   1  21
BRANCH   5  37
HETATM   37  C12 UNL     1      33.691  43.789 -11.103  1.00  0.00     0.037 C 
BRANCH  37  38
HETATM   38  C13 UNL     1      33.258  44.981 -11.841  1.00  0.00    -0.021 C 
HETATM   39  C14 UNL     1      31.775  45.211 -11.421  1.00  0.00     0.009 C 
HETATM   40  C15 UNL     1      33.193  44.912 -13.340  1.00  0.00     0.009 C 
ENDBRANCH  37  38
ENDBRANCH   5  37
BRANCH  13  41
HETATM   41  O1  UNL     1      31.995  36.331 -12.471  1.00  0.00    -0.360 OA
ATOM     42  H1  UNL     1      32.248  35.444 -12.243  1.00  0.00     0.217 HD
ENDBRANCH  13  41
TORSDOF 13
ENDMDL
MODEL 5
REMARK VINA RESULT: -7.559972716      2.565      5.353
REMARK  13 active torsions:
REMARK  status: ('A' for Active; 'I' for Inactive)
REMARK    1  A    between atoms: C2_2  and  C3_3 
REMARK    2  A    between atoms: C3_3  and  C4_4 
REMARK    3  A    between atoms: C4_4  and  C5_5 
REMARK    4  A    between atoms: C5_5  and  N1_6 
REMARK    5  A    between atoms: N1_6  and  C6_8 
REMARK    6  A    between atoms: C6_8  and  C7_9 
REMARK    7  A    between atoms: C7_9  and  C8_10 
REMARK    8  A    between atoms: C8_10  and  N2_11 
REMARK    9  A    between atoms: N2_11  and  C9_13 
REMARK   10  A    between atoms: C9_13  and  C10_17 
REMARK   11  A    between atoms: C11_21  and  C12_22 
REMARK   12  A    between atoms: C12_22  and  C13_23 
REMARK   13  A    between atoms: C23_33  and  O1_34 
ROOT
HETATM    1  C10 UNL     1      35.176  39.544  -7.569  1.00  0.00     0.261 C 
HETATM    2  N4  UNL     1      36.005  38.438  -7.127  1.00  0.00    -0.059 N 
ATOM      3  H41 UNL     1      35.914  38.242  -6.130  1.00  0.00     0.278 HD
ATOM      4  H42 UNL     1      37.001  38.659  -7.127  1.00  0.00     0.278 HD
HETATM    5  C11 UNL     1      35.677  37.306  -7.958  1.00  0.00     0.195 C 
HETATM    6  C16 UNL     1      34.453  37.667  -8.736  1.00  0.00     0.064 C 
HETATM    7  C17 UNL     1      34.688  39.164  -8.907  1.00  0.00     0.066 C 
HETATM    8  C18 UNL     1      33.521  39.820  -9.448  1.00  0.00    -0.042 A 
HETATM    9  C19 UNL     1      33.799  41.165  -9.348  1.00  0.00     0.015 A 
HETATM   10  C20 UNL     1      32.919  42.130  -9.763  1.00  0.00    -0.059 A 
HETATM   11  C21 UNL     1      33.188  43.596  -9.659  1.00  0.00     0.048 C 
HETATM   12  C22 UNL     1      31.728  41.729 -10.292  1.00  0.00     0.044 A 
HETATM   13  C23 UNL     1      31.406  40.347 -10.412  1.00  0.00     0.073 A 
HETATM   14  C24 UNL     1      32.324  39.421  -9.980  1.00  0.00    -0.018 A 
HETATM   15  C25 UNL     1      31.779  38.056 -10.219  1.00  0.00     0.049 C 
HETATM   16  C26 UNL     1      32.692  37.167 -10.981  1.00  0.00     0.025 C 
HETATM   17  C27 UNL     1      33.330  36.076 -10.127  1.00  0.00     0.049 C 
HETATM   18  C28 UNL     1      34.490  36.926 -10.032  1.00  0.00     0.095 A 
HETATM   19  O2  UNL     1      35.247  37.601 -10.853  1.00  0.00    -0.368 OA
HETATM   20  C29 UNL     1      34.033  37.490 -11.376  1.00  0.00     0.162 A 
ENDROOT
BRANCH   1  21
HETATM   21  C9  UNL     1      34.210  39.978  -6.576  1.00  0.00     0.102 C 
HETATM   22  N3  UNL     1      33.310  39.182  -6.133  1.00  0.00    -0.387 N 
ATOM     23  H32 UNL     1      32.631  39.487  -5.436  1.00  0.00     0.157 HD
ATOM     24  H31 UNL     1      33.274  38.230  -6.497  1.00  0.00     0.157 HD
BRANCH  21  25
HETATM   25  N2  UNL     1      34.260  41.317  -6.064  1.00  0.00    -0.378 N 
ATOM     26  H2  UNL     1      33.400  41.845  -5.922  1.00  0.00     0.160 HD
BRANCH  25  27
HETATM   27  C8  UNL     1      35.559  41.921  -5.747  1.00  0.00     0.122 C 
BRANCH  27  28
HETATM   28  C7  UNL     1      36.237  41.327  -4.572  1.00  0.00     0.039 C 
BRANCH  28  29
HETATM   29  C6  UNL     1      36.146  42.143  -3.306  1.00  0.00     0.115 C 
BRANCH  29  30
HETATM   30  N1  UNL     1      35.031  41.780  -2.494  1.00  0.00    -0.421 N 
ATOM     31  H1  UNL     1      34.132  41.519  -2.899  1.00  0.00     0.153 HD
BRANCH  30  32
HETATM   32  C5  UNL     1      35.242  41.804  -1.089  1.00  0.00     0.113 C 
BRANCH  32  33
HETATM   33  C4  UNL     1      36.642  41.672  -0.618  1.00  0.00     0.019 C 
BRANCH  33  34
HETATM   34  C3  UNL     1      37.136  42.671   0.356  1.00  0.00     0.001 C 
BRANCH  34  35
HETATM   35  C2  UNL     1      38.164  43.638  -0.107  1.00  0.00    -0.004 C 
HETATM   36  C1  UNL     1      37.417  44.780  -0.830  1.00  0.00     0.005 C 
ENDBRANCH  34  35
ENDBRANCH  33  34
ENDBRANCH  32  33
ENDBRANCH  30  32
ENDBRANCH  29  30
ENDBRANCH  28  29
ENDBRANCH  27  28
ENDBRANCH  25  27
ENDBRANCH  21  25
ENDBRANCH   1  21
BRANCH   5  37
HETATM   37  C12 UNL     1      35.730  36.015  -7.241  1.00  0.00     0.037 C 
BRANCH  37  38
HETATM   38  C13 UNL     1      36.818  35.066  -7.498  1.00  0.00    -0.021 C 
HETATM   39  C14 UNL     1      37.801  35.228  -6.298  1.00  0.00     0.009 C 
HETATM   40  C15 UNL     1      37.693  35.285  -8.699  1.00  0.00     0.009 C 
ENDBRANCH  37  38
ENDBRANCH   5  37
BRANCH  13  41
HETATM   41  O1  UNL     1      30.205  40.029 -10.945  1.00  0.00    -0.360 OA
ATOM     42  H1  UNL     1      30.191  39.721 -11.844  1.00  0.00     0.217 HD
ENDBRANCH  13  41
TORSDOF 13
ENDMDL
