MODEL 1
REMARK VINA RESULT: -8.243403971      0.000      0.000
REMARK  13 active torsions:
REMARK  status: ('A' for Active; 'I' for Inactive)
REMARK    1  A    between atoms: C2_2  and  N2_6 
REMARK    2  A    between atoms: N2_6  and  C3_8 
REMARK    3  A    between atoms: N5_15  and  C5_16 
REMARK    4  A    between atoms: C5_16  and  C6_17 
REMARK    5  A    between atoms: C9_20  and  C10_21 
REMARK       I    between atoms: C10_21  and  N6_23 
REMARK    6  A    between atoms: N6_23  and  C11_25 
REMARK    7  A    between atoms: C11_25  and  C12_26 
REMARK    8  A    between atoms: C12_26  and  C13_27 
REMARK    9  A    between atoms: C13_27  and  C14_28 
REMARK   10  A    between atoms: C14_28  and  C15_29 
REMARK   11  A    between atoms: C15_29  and  C16_30 
REMARK   12  A    between atoms: N7_32  and  C18_34 
REMARK   13  A    between atoms: C20_36  and  C21_37 
ROOT
HETATM    1  C6  UNL     1      33.767  39.530  -7.503  1.00  0.00     0.005 C 
HETATM    2  C7  UNL     1      33.303  39.832  -8.887  1.00  0.00     0.007 C 
HETATM    3  C8  UNL     1      31.847  39.418  -9.081  1.00  0.00     0.014 C 
HETATM    4  C9  UNL     1      31.679  37.963  -8.687  1.00  0.00     0.078 C 
HETATM    5  C22 UNL     1      32.008  37.854  -7.215  1.00  0.00     0.014 C 
HETATM    6  C23 UNL     1      33.534  38.088  -7.121  1.00  0.00     0.007 C 
ENDROOT
BRANCH   4   7
HETATM    7  C10 UNL     1      30.293  37.534  -8.986  1.00  0.00     0.221 C 
HETATM    8  O1  UNL     1      29.697  36.790  -8.165  1.00  0.00    -0.273 OA
HETATM    9  N6  UNL     1      29.636  37.941 -10.161  1.00  0.00    -0.361 N 
ATOM     10  H6  UNL     1      30.113  38.544 -10.831  1.00  0.00     0.162 HD
BRANCH   9  11
HETATM   11  C11 UNL     1      28.292  37.505 -10.416  1.00  0.00     0.122 C 
BRANCH  11  12
HETATM   12  C12 UNL     1      27.383  38.676 -10.664  1.00  0.00     0.020 C 
BRANCH  12  13
HETATM   13  C13 UNL     1      27.609  39.207 -12.048  1.00  0.00     0.002 C 
BRANCH  13  14
HETATM   14  C14 UNL     1      28.732  40.195 -12.049  1.00  0.00     0.006 C 
BRANCH  14  15
HETATM   15  C15 UNL     1      29.739  39.816 -13.106  1.00  0.00     0.052 C 
BRANCH  15  16
HETATM   16  C16 UNL     1      30.986  40.592 -12.769  1.00  0.00    -0.017 C 
HETATM   17  C17 UNL     1      32.268  39.853 -12.817  1.00  0.00     0.063 C 
HETATM   18  N7  UNL     1      30.849  41.821 -12.469  1.00  0.00    -0.367 N 
ATOM     19  H7  UNL     1      29.909  42.217 -12.471  1.00  0.00     0.165 HD
BRANCH  18  20
HETATM   20  C18 UNL     1      31.940  42.674 -12.129  1.00  0.00     0.011 C 
HETATM   21  C19 UNL     1      32.643  43.334 -13.255  1.00  0.00     0.068 C 
HETATM   22  C20 UNL     1      32.328  42.889 -10.903  1.00  0.00     0.108 C 
BRANCH  22  23
HETATM   23  C21 UNL     1      33.423  43.743 -10.514  1.00  0.00     0.200 C 
HETATM   24  O2  UNL     1      33.734  44.821 -11.076  1.00  0.00    -0.644 OA
HETATM   25  O3  UNL     1      34.245  43.392  -9.427  1.00  0.00    -0.644 OA
ENDBRANCH  22  23
ENDBRANCH  18  20
ENDBRANCH  15  16
ENDBRANCH  14  15
ENDBRANCH  13  14
ENDBRANCH  12  13
ENDBRANCH  11  12
ENDBRANCH   9  11
ENDBRANCH   4   7
BRANCH   1  26
HETATM   26  C5  UNL     1      35.173  39.961  -7.286  1.00  0.00     0.156 C 
BRANCH  26  27
HETATM   27  N5  UNL     1      35.377  40.815  -6.166  1.00  0.00    -0.144 N 
HETATM   28  C4  UNL     1      34.759  42.071  -5.900  1.00  0.00     0.682 A 
HETATM   29  N3  UNL     1      35.270  42.519  -4.656  1.00  0.00    -0.171 N 
HETATM   30  N4  UNL     1      33.899  42.720  -6.585  1.00  0.00    -0.234 N 
HETATM   31  C3  UNL     1      36.105  41.690  -4.153  1.00  0.00     0.191 A 
ATOM     32  H3  UNL     1      35.002  43.398  -4.213  1.00  0.00     0.186 HD
HETATM   33  C24 UNL     1      36.245  40.550  -5.058  1.00  0.00     0.306 A 
HETATM   34  O4  UNL     1      36.979  39.544  -4.887  1.00  0.00    -0.263 OA
ATOM     35  H42 UNL     1      33.456  43.620  -6.394  1.00  0.00     0.174 HD
ATOM     36  H41 UNL     1      33.532  42.398  -7.480  1.00  0.00     0.174 HD
BRANCH  31  37
HETATM   37  N2  UNL     1      36.818  41.812  -2.910  1.00  0.00    -0.328 N 
ATOM     38  H2  UNL     1      37.838  41.802  -2.910  1.00  0.00     0.169 HD
BRANCH  37  39
HETATM   39  C2  UNL     1      36.116  41.945  -1.688  1.00  0.00     0.072 C 
HETATM   40  C1  UNL     1      36.755  42.362  -0.420  1.00  0.00     0.088 C 
HETATM   41  N1  UNL     1      34.843  41.692  -1.668  1.00  0.00    -0.389 N 
ATOM     42  H12 UNL     1      34.337  41.788  -0.788  1.00  0.00     0.157 HD
ATOM     43  H11 UNL     1      34.403  41.404  -2.543  1.00  0.00     0.157 HD
ENDBRANCH  37  39
ENDBRANCH  31  37
ENDBRANCH  26  27
ENDBRANCH   1  26
TORSDOF 13
ENDMDL
MODEL 2
REMARK VINA RESULT: -8.085338606      3.389      9.747
REMARK  13 active torsions:
REMARK  status: ('A' for Active; 'I' for Inactive)
REMARK    1  A    between atoms: C2_2  and  N2_6 
REMARK    2  A    between atoms: N2_6  and  C3_8 
REMARK    3  A    between atoms: N5_15  and  C5_16 
REMARK    4  A    between atoms: C5_16  and  C6_17 
REMARK    5  A    between atoms: C9_20  and  C10_21 
REMARK       I    between atoms: C10_21  and  N6_23 
REMARK    6  A    between atoms: N6_23  and  C11_25 
REMARK    7  A    between atoms: C11_25  and  C12_26 
REMARK    8  A    between atoms: C12_26  and  C13_27 
REMARK    9  A    between atoms: C13_27  and  C14_28 
REMARK   10  A    between atoms: C14_28  and  C15_29 
REMARK   11  A    between atoms: C15_29  and  C16_30 
REMARK   12  A    between atoms: N7_32  and  C18_34 
REMARK   13  A    between atoms: C20_36  and  C21_37 
ROOT
HETATM    1  C6  UNL     1      33.986  39.808  -8.988  1.00  0.00     0.005 C 
HETATM    2  C7  UNL     1      33.982  39.543  -7.522  1.00  0.00     0.007 C 
HETATM    3  C8  UNL     1      35.292  38.897  -7.076  1.00  0.00     0.014 C 
HETATM    4  C9  UNL     1      35.557  37.663  -7.917  1.00  0.00     0.078 C 
HETATM    5  C22 UNL     1      35.720  38.118  -9.349  1.00  0.00     0.014 C 
HETATM    6  C23 UNL     1      34.310  38.572  -9.794  1.00  0.00     0.007 C 
ENDROOT
BRANCH   4   7
HETATM    7  C10 UNL     1      36.766  36.976  -7.405  1.00  0.00     0.221 C 
HETATM    8  O1  UNL     1      37.209  35.978  -8.031  1.00  0.00    -0.273 OA
HETATM    9  N6  UNL     1      37.421  37.413  -6.241  1.00  0.00    -0.361 N 
ATOM     10  H6  UNL     1      37.068  38.221  -5.727  1.00  0.00     0.162 HD
BRANCH   9  11
HETATM   11  C11 UNL     1      38.591  36.722  -5.775  1.00  0.00     0.122 C 
BRANCH  11  12
HETATM   12  C12 UNL     1      39.203  37.429  -4.598  1.00  0.00     0.020 C 
BRANCH  12  13
HETATM   13  C13 UNL     1      38.422  37.113  -3.357  1.00  0.00     0.002 C 
BRANCH  13  14
HETATM   14  C14 UNL     1      38.748  38.093  -2.275  1.00  0.00     0.006 C 
BRANCH  14  15
HETATM   15  C15 UNL     1      37.483  38.499  -1.563  1.00  0.00     0.052 C 
BRANCH  15  16
HETATM   16  C16 UNL     1      37.418  39.999  -1.685  1.00  0.00    -0.017 C 
HETATM   17  C17 UNL     1      37.722  40.578  -3.014  1.00  0.00     0.063 C 
HETATM   18  N7  UNL     1      37.108  40.660  -0.643  1.00  0.00    -0.367 N 
ATOM     19  H7  UNL     1      36.919  40.145   0.218  1.00  0.00     0.165 HD
BRANCH  18  20
HETATM   20  C18 UNL     1      37.009  42.083  -0.613  1.00  0.00     0.011 C 
HETATM   21  C19 UNL     1      35.664  42.661  -0.848  1.00  0.00     0.068 C 
HETATM   22  C20 UNL     1      38.027  42.867  -0.392  1.00  0.00     0.108 C 
BRANCH  22  23
HETATM   23  C21 UNL     1      37.973  44.308  -0.353  1.00  0.00     0.200 C 
HETATM   24  O2  UNL     1      37.890  45.000   0.691  1.00  0.00    -0.644 OA
HETATM   25  O3  UNL     1      38.012  45.053  -1.546  1.00  0.00    -0.644 OA
ENDBRANCH  22  23
ENDBRANCH  18  20
ENDBRANCH  15  16
ENDBRANCH  14  15
ENDBRANCH  13  14
ENDBRANCH  12  13
ENDBRANCH  11  12
ENDBRANCH   9  11
ENDBRANCH   4   7
BRANCH   1  26
HETATM   26  C5  UNL     1      32.733  40.471  -9.433  1.00  0.00     0.156 C 
BRANCH  26  27
HETATM   27  N5  UNL     1      32.886  41.808  -9.892  1.00  0.00    -0.144 N 
HETATM   28  C4  UNL     1      33.067  42.986  -9.110  1.00  0.00     0.682 A 
HETATM   29  N3  UNL     1      33.195  44.063 -10.022  1.00  0.00    -0.171 N 
HETATM   30  N4  UNL     1      33.130  43.124  -7.842  1.00  0.00    -0.234 N 
HETATM   31  C3  UNL     1      33.115  43.674 -11.239  1.00  0.00     0.191 A 
ATOM     32  H3  UNL     1      33.335  45.034  -9.742  1.00  0.00     0.186 HD
HETATM   33  C24 UNL     1      32.914  42.226 -11.262  1.00  0.00     0.306 A 
HETATM   34  O4  UNL     1      32.794  41.503 -12.283  1.00  0.00    -0.263 OA
ATOM     35  H42 UNL     1      33.260  43.967  -7.282  1.00  0.00     0.174 HD
ATOM     36  H41 UNL     1      33.038  42.348  -7.185  1.00  0.00     0.174 HD
BRANCH  31  37
HETATM   37  N2  UNL     1      33.200  44.484 -12.424  1.00  0.00    -0.328 N 
ATOM     38  H2  UNL     1      33.989  44.369 -13.060  1.00  0.00     0.169 HD
BRANCH  37  39
HETATM   39  C2  UNL     1      32.198  45.441 -12.715  1.00  0.00     0.072 C 
HETATM   40  C1  UNL     1      30.876  45.092 -13.282  1.00  0.00     0.088 C 
HETATM   41  N1  UNL     1      32.440  46.693 -12.473  1.00  0.00    -0.389 N 
ATOM     42  H12 UNL     1      31.717  47.382 -12.682  1.00  0.00     0.157 HD
ATOM     43  H11 UNL     1      33.351  46.933 -12.082  1.00  0.00     0.157 HD
ENDBRANCH  37  39
ENDBRANCH  31  37
ENDBRANCH  26  27
ENDBRANCH   1  26
TORSDOF 13
ENDMDL
MODEL 3
REMARK VINA RESULT: -7.851279472      2.978     10.275
REMARK  13 active torsions:
REMARK  status: ('A' for Active; 'I' for Inactive)
REMARK    1  A    between atoms: C2_2  and  N2_6 
REMARK    2  A    between atoms: N2_6  and  C3_8 
REMARK    3  A    between atoms: N5_15  and  C5_16 
REMARK    4  A    between atoms: C5_16  and  C6_17 
REMARK    5  A    between atoms: C9_20  and  C10_21 
REMARK       I    between atoms: C10_21  and  N6_23 
REMARK    6  A    between atoms: N6_23  and  C11_25 
REMARK    7  A    between atoms: C11_25  and  C12_26 
REMARK    8  A    between atoms: C12_26  and  C13_27 
REMARK    9  A    between atoms: C13_27  and  C14_28 
REMARK   10  A    between atoms: C14_28  and  C15_29 
REMARK   11  A    between atoms: C15_29  and  C16_30 
REMARK   12  A    between atoms: N7_32  and  C18_34 
REMARK   13  A    between atoms: C20_36  and  C21_37 
ROOT
HETATM    1  C6  UNL     1      33.301  41.515  -8.982  1.00  0.00     0.005 C 
HETATM    2  C7  UNL     1      33.167  42.602  -7.972  1.00  0.00     0.007 C 
HETATM    3  C8  UNL     1      34.366  42.624  -7.026  1.00  0.00     0.014 C 
HETATM    4  C9  UNL     1      34.552  41.248  -6.417  1.00  0.00     0.078 C 
HETATM    5  C22 UNL     1      34.862  40.293  -7.547  1.00  0.00     0.014 C 
HETATM    6  C23 UNL     1      33.543  40.167  -8.346  1.00  0.00     0.007 C 
ENDROOT
BRANCH   4   7
HETATM    7  C10 UNL     1      35.642  41.304  -5.415  1.00  0.00     0.221 C 
HETATM    8  O1  UNL     1      36.455  40.346  -5.347  1.00  0.00    -0.273 OA
HETATM    9  N6  UNL     1      35.783  42.398  -4.544  1.00  0.00    -0.361 N 
ATOM     10  H6  UNL     1      35.128  43.178  -4.592  1.00  0.00     0.162 HD
BRANCH   9  11
HETATM   11  C11 UNL     1      36.852  42.416  -3.585  1.00  0.00     0.122 C 
BRANCH  11  12
HETATM   12  C12 UNL     1      36.400  43.022  -2.285  1.00  0.00     0.020 C 
BRANCH  12  13
HETATM   13  C13 UNL     1      36.351  41.963  -1.224  1.00  0.00     0.002 C 
BRANCH  13  14
HETATM   14  C14 UNL     1      37.442  40.962  -1.438  1.00  0.00     0.006 C 
BRANCH  14  15
HETATM   15  C15 UNL     1      36.927  39.579  -1.130  1.00  0.00     0.052 C 
BRANCH  15  16
HETATM   16  C16 UNL     1      37.779  38.643  -1.947  1.00  0.00    -0.017 C 
HETATM   17  C17 UNL     1      38.160  37.359  -1.314  1.00  0.00     0.063 C 
HETATM   18  N7  UNL     1      38.110  39.019  -3.116  1.00  0.00    -0.367 N 
ATOM     19  H7  UNL     1      37.784  39.930  -3.440  1.00  0.00     0.165 HD
BRANCH  18  20
HETATM   20  C18 UNL     1      38.913  38.237  -3.998  1.00  0.00     0.011 C 
HETATM   21  C19 UNL     1      40.378  38.454  -3.932  1.00  0.00     0.068 C 
HETATM   22  C20 UNL     1      38.420  37.365  -4.832  1.00  0.00     0.108 C 
BRANCH  22  23
HETATM   23  C21 UNL     1      39.193  36.553  -5.740  1.00  0.00     0.200 C 
HETATM   24  O2  UNL     1      39.468  36.857  -6.927  1.00  0.00    -0.644 OA
HETATM   25  O3  UNL     1      39.705  35.311  -5.321  1.00  0.00    -0.644 OA
ENDBRANCH  22  23
ENDBRANCH  18  20
ENDBRANCH  15  16
ENDBRANCH  14  15
ENDBRANCH  13  14
ENDBRANCH  12  13
ENDBRANCH  11  12
ENDBRANCH   9  11
ENDBRANCH   4   7
BRANCH   1  26
HETATM   26  C5  UNL     1      32.160  41.503  -9.934  1.00  0.00     0.156 C 
BRANCH  26  27
HETATM   27  N5  UNL     1      32.417  42.110 -11.195  1.00  0.00    -0.144 N 
HETATM   28  C4  UNL     1      32.601  41.467 -12.454  1.00  0.00     0.682 A 
HETATM   29  N3  UNL     1      32.804  42.495 -13.408  1.00  0.00    -0.171 N 
HETATM   30  N4  UNL     1      32.582  40.224 -12.747  1.00  0.00    -0.234 N 
HETATM   31  C3  UNL     1      32.763  43.658 -12.877  1.00  0.00     0.191 A 
ATOM     32  H3  UNL     1      32.964  42.326 -14.401  1.00  0.00     0.186 HD
HETATM   33  C24 UNL     1      32.517  43.517 -11.442  1.00  0.00     0.306 A 
HETATM   34  O4  UNL     1      32.414  44.448 -10.605  1.00  0.00    -0.263 OA
ATOM     35  H42 UNL     1      32.713  39.764 -13.648  1.00  0.00     0.174 HD
ATOM     36  H41 UNL     1      32.436  39.484 -12.060  1.00  0.00     0.174 HD
BRANCH  31  37
HETATM   37  N2  UNL     1      32.927  44.926 -13.535  1.00  0.00    -0.328 N 
ATOM     38  H2  UNL     1      33.251  45.733 -13.003  1.00  0.00     0.169 HD
BRANCH  37  39
HETATM   39  C2  UNL     1      32.641  45.063 -14.914  1.00  0.00     0.072 C 
HETATM   40  C1  UNL     1      31.292  44.873 -15.493  1.00  0.00     0.088 C 
HETATM   41  N1  UNL     1      33.607  45.373 -15.725  1.00  0.00    -0.389 N 
ATOM     42  H12 UNL     1      33.401  45.472 -16.719  1.00  0.00     0.157 HD
ATOM     43  H11 UNL     1      34.537  45.504 -15.326  1.00  0.00     0.157 HD
ENDBRANCH  37  39
ENDBRANCH  31  37
ENDBRANCH  26  27
ENDBRANCH   1  26
TORSDOF 13
ENDMDL
MODEL 4
REMARK VINA RESULT: -7.790356883      3.835      6.251
REMARK  13 active torsions:
REMARK  status: ('A' for Active; 'I' for Inactive)
REMARK    1  A    between atoms: C2_2  and  N2_6 
REMARK    2  A    between atoms: N2_6  and  C3_8 
REMARK    3  A    between atoms: N5_15  and  C5_16 
REMARK    4  A    between atoms: C5_16  and  C6_17 
REMARK    5  A    between atoms: C9_20  and  C10_21 
REMARK       I    between atoms: C10_21  and  N6_23 
REMARK    6  A    between atoms: N6_23  and  C11_25 
REMARK    7  A    between atoms: C11_25  and  C12_26 
REMARK    8  A    between atoms: C12_26  and  C13_27 
REMARK    9  A    between atoms: C13_27  and  C14_28 
REMARK   10  A    between atoms: C14_28  and  C15_29 
REMARK   11  A    between atoms: C15_29  and  C16_30 
REMARK   12  A    between atoms: N7_32  and  C18_34 
REMARK   13  A    between atoms: C20_36  and  C21_37 
ROOT
HETATM    1  C6  UNL     1      39.104  37.717  -4.369  1.00  0.00     0.005 C 
HETATM    2  C7  UNL     1      37.951  38.123  -5.221  1.00  0.00     0.007 C 
HETATM    3  C8  UNL     1      37.549  37.001  -6.175  1.00  0.00     0.014 C 
HETATM    4  C9  UNL     1      38.763  36.554  -6.967  1.00  0.00     0.078 C 
HETATM    5  C22 UNL     1      39.765  35.998  -5.981  1.00  0.00     0.014 C 
HETATM    6  C23 UNL     1      40.275  37.223  -5.185  1.00  0.00     0.007 C 
ENDROOT
BRANCH   4   7
HETATM    7  C10 UNL     1      38.345  35.548  -7.971  1.00  0.00     0.221 C 
HETATM    8  O1  UNL     1      38.270  34.340  -7.626  1.00  0.00    -0.273 OA
HETATM    9  N6  UNL     1      38.034  35.914  -9.292  1.00  0.00    -0.361 N 
ATOM     10  H6  UNL     1      38.093  36.891  -9.579  1.00  0.00     0.162 HD
BRANCH   9  11
HETATM   11  C11 UNL     1      37.633  34.910 -10.237  1.00  0.00     0.122 C 
BRANCH  11  12
HETATM   12  C12 UNL     1      36.142  34.914 -10.428  1.00  0.00     0.020 C 
BRANCH  12  13
HETATM   13  C13 UNL     1      35.616  36.310 -10.268  1.00  0.00     0.002 C 
BRANCH  13  14
HETATM   14  C14 UNL     1      34.299  36.291  -9.559  1.00  0.00     0.006 C 
BRANCH  14  15
HETATM   15  C15 UNL     1      34.517  36.496  -8.082  1.00  0.00     0.052 C 
BRANCH  15  16
HETATM   16  C16 UNL     1      34.044  37.899  -7.798  1.00  0.00    -0.017 C 
HETATM   17  C17 UNL     1      32.694  38.044  -7.206  1.00  0.00     0.063 C 
HETATM   18  N7  UNL     1      34.834  38.854  -8.085  1.00  0.00    -0.367 N 
ATOM     19  H7  UNL     1      35.742  38.624  -8.491  1.00  0.00     0.165 HD
BRANCH  18  20
HETATM   20  C18 UNL     1      34.518  40.228  -7.872  1.00  0.00     0.011 C 
HETATM   21  C19 UNL     1      34.911  40.805  -6.564  1.00  0.00     0.068 C 
HETATM   22  C20 UNL     1      33.916  40.972  -8.758  1.00  0.00     0.108 C 
BRANCH  22  23
HETATM   23  C21 UNL     1      33.579  42.364  -8.585  1.00  0.00     0.200 C 
HETATM   24  O2  UNL     1      32.431  42.803  -8.331  1.00  0.00    -0.644 OA
HETATM   25  O3  UNL     1      34.572  43.354  -8.699  1.00  0.00    -0.644 OA
ENDBRANCH  22  23
ENDBRANCH  18  20
ENDBRANCH  15  16
ENDBRANCH  14  15
ENDBRANCH  13  14
ENDBRANCH  12  13
ENDBRANCH  11  12
ENDBRANCH   9  11
ENDBRANCH   4   7
BRANCH   1  26
HETATM   26  C5  UNL     1      39.484  38.785  -3.409  1.00  0.00     0.156 C 
BRANCH  26  27
HETATM   27  N5  UNL     1      38.414  39.307  -2.629  1.00  0.00    -0.144 N 
HETATM   28  C4  UNL     1      37.568  38.602  -1.724  1.00  0.00     0.682 A 
HETATM   29  N3  UNL     1      36.676  39.558  -1.176  1.00  0.00    -0.171 N 
HETATM   30  N4  UNL     1      37.563  37.366  -1.403  1.00  0.00    -0.234 N 
HETATM   31  C3  UNL     1      36.887  40.732  -1.638  1.00  0.00     0.191 A 
ATOM     32  H3  UNL     1      35.951  39.335  -0.493  1.00  0.00     0.186 HD
HETATM   33  C24 UNL     1      37.995  40.676  -2.590  1.00  0.00     0.306 A 
HETATM   34  O4  UNL     1      38.477  41.640  -3.237  1.00  0.00    -0.263 OA
ATOM     35  H42 UNL     1      36.957  36.862  -0.755  1.00  0.00     0.174 HD
ATOM     36  H41 UNL     1      38.204  36.678  -1.798  1.00  0.00     0.174 HD
BRANCH  31  37
HETATM   37  N2  UNL     1      36.179  41.941  -1.312  1.00  0.00    -0.328 N 
ATOM     38  H2  UNL     1      35.234  42.084  -1.665  1.00  0.00     0.169 HD
BRANCH  37  39
HETATM   39  C2  UNL     1      36.785  42.933  -0.504  1.00  0.00     0.072 C 
HETATM   40  C1  UNL     1      36.929  44.347  -0.915  1.00  0.00     0.088 C 
HETATM   41  N1  UNL     1      37.241  42.594   0.664  1.00  0.00    -0.389 N 
ATOM     42  H12 UNL     1      37.677  43.309   1.247  1.00  0.00     0.157 HD
ATOM     43  H11 UNL     1      37.142  41.620   0.948  1.00  0.00     0.157 HD
ENDBRANCH  37  39
ENDBRANCH  31  37
ENDBRANCH  26  27
ENDBRANCH   1  26
TORSDOF 13
ENDMDL
MODEL 5
REMARK VINA RESULT: -7.723537681      3.284      9.565
REMARK  13 active torsions:
REMARK  status: ('A' for Active; 'I' for Inactive)
REMARK    1  A    between atoms: C2_2  and  N2_6 
REMARK    2  A    between atoms: N2_6  and  C3_8 
REMARK    3  A    between atoms: N5_15  and  C5_16 
REMARK    4  A    between atoms: C5_16  and  C6_17 
REMARK    5  A    between atoms: C9_20  and  C10_21 
REMARK       I    between atoms: C10_21  and  N6_23 
REMARK    6  A    between atoms: N6_23  and  C11_25 
REMARK    7  A    between atoms: C11_25  and  C12_26 
REMARK    8  A    between atoms: C12_26  and  C13_27 
REMARK    9  A    between atoms: C13_27  and  C14_28 
REMARK   10  A    between atoms: C14_28  and  C15_29 
REMARK   11  A    between atoms: C15_29  and  C16_30 
REMARK   12  A    between atoms: N7_32  and  C18_34 
REMARK   13  A    between atoms: C20_36  and  C21_37 
ROOT
HETATM    1  C6  UNL     1      34.119  39.903  -8.756  1.00  0.00     0.005 C 
HETATM    2  C7  UNL     1      34.344  39.421  -7.363  1.00  0.00     0.007 C 
HETATM    3  C8  UNL     1      35.685  38.701  -7.241  1.00  0.00     0.014 C 
HETATM    4  C9  UNL     1      35.764  37.603  -8.284  1.00  0.00     0.078 C 
HETATM    5  C22 UNL     1      35.708  38.266  -9.642  1.00  0.00     0.014 C 
HETATM    6  C23 UNL     1      34.261  38.798  -9.775  1.00  0.00     0.007 C 
ENDROOT
BRANCH   4   7
HETATM    7  C10 UNL     1      37.014  36.833  -8.086  1.00  0.00     0.221 C 
HETATM    8  O1  UNL     1      37.532  36.252  -9.075  1.00  0.00    -0.273 OA
HETATM    9  N6  UNL     1      37.627  36.741  -6.825  1.00  0.00    -0.361 N 
ATOM     10  H6  UNL     1      37.213  37.209  -6.019  1.00  0.00     0.162 HD
BRANCH   9  11
HETATM   11  C11 UNL     1      38.839  35.985  -6.672  1.00  0.00     0.122 C 
BRANCH  11  12
HETATM   12  C12 UNL     1      39.416  36.163  -5.295  1.00  0.00     0.020 C 
BRANCH  12  13
HETATM   13  C13 UNL     1      39.806  37.597  -5.093  1.00  0.00     0.002 C 
BRANCH  13  14
HETATM   14  C14 UNL     1      39.229  38.117  -3.814  1.00  0.00     0.006 C 
BRANCH  14  15
HETATM   15  C15 UNL     1      37.921  38.812  -4.097  1.00  0.00     0.052 C 
BRANCH  15  16
HETATM   16  C16 UNL     1      37.597  39.582  -2.842  1.00  0.00    -0.017 C 
HETATM   17  C17 UNL     1      37.759  38.867  -1.556  1.00  0.00     0.063 C 
HETATM   18  N7  UNL     1      37.210  40.786  -2.977  1.00  0.00    -0.367 N 
ATOM     19  H7  UNL     1      37.138  41.168  -3.921  1.00  0.00     0.165 HD
BRANCH  18  20
HETATM   20  C18 UNL     1      36.870  41.631  -1.880  1.00  0.00     0.011 C 
HETATM   21  C19 UNL     1      35.444  41.655  -1.476  1.00  0.00     0.068 C 
HETATM   22  C20 UNL     1      37.741  42.361  -1.240  1.00  0.00     0.108 C 
BRANCH  22  23
HETATM   23  C21 UNL     1      37.442  43.228  -0.127  1.00  0.00     0.200 C 
HETATM   24  O2  UNL     1      37.063  44.421  -0.221  1.00  0.00    -0.644 OA
HETATM   25  O3  UNL     1      37.567  42.757   1.193  1.00  0.00    -0.644 OA
ENDBRANCH  22  23
ENDBRANCH  18  20
ENDBRANCH  15  16
ENDBRANCH  14  15
ENDBRANCH  13  14
ENDBRANCH  12  13
ENDBRANCH  11  12
ENDBRANCH   9  11
ENDBRANCH   4   7
BRANCH   1  26
HETATM   26  C5  UNL     1      32.834  40.639  -8.884  1.00  0.00     0.156 C 
BRANCH  26  27
HETATM   27  N5  UNL     1      32.785  41.588  -9.942  1.00  0.00    -0.144 N 
HETATM   28  C4  UNL     1      32.033  41.511 -11.151  1.00  0.00     0.682 A 
HETATM   29  N3  UNL     1      32.296  42.705 -11.869  1.00  0.00    -0.171 N 
HETATM   30  N4  UNL     1      31.247  40.595 -11.568  1.00  0.00    -0.234 N 
HETATM   31  C3  UNL     1      33.101  43.475 -11.241  1.00  0.00     0.191 A 
ATOM     32  H3  UNL     1      31.890  42.923 -12.779  1.00  0.00     0.186 HD
HETATM   33  C24 UNL     1      33.478  42.841  -9.978  1.00  0.00     0.306 A 
HETATM   34  O4  UNL     1      34.252  43.310  -9.106  1.00  0.00    -0.263 OA
ATOM     35  H42 UNL     1      30.709  40.540 -12.434  1.00  0.00     0.174 HD
ATOM     36  H41 UNL     1      31.059  39.736 -11.052  1.00  0.00     0.174 HD
BRANCH  31  37
HETATM   37  N2  UNL     1      33.590  44.761 -11.662  1.00  0.00    -0.328 N 
ATOM     38  H2  UNL     1      34.396  45.174 -11.193  1.00  0.00     0.169 HD
BRANCH  37  39
HETATM   39  C2  UNL     1      32.961  45.457 -12.721  1.00  0.00     0.072 C 
HETATM   40  C1  UNL     1      33.153  45.120 -14.150  1.00  0.00     0.088 C 
HETATM   41  N1  UNL     1      32.169  46.446 -12.436  1.00  0.00    -0.389 N 
ATOM     42  H12 UNL     1      31.716  46.948 -13.200  1.00  0.00     0.157 HD
ATOM     43  H11 UNL     1      32.037  46.679 -11.452  1.00  0.00     0.157 HD
ENDBRANCH  37  39
ENDBRANCH  31  37
ENDBRANCH  26  27
ENDBRANCH   1  26
TORSDOF 13
ENDMDL
