MODEL 1
REMARK VINA RESULT: -6.820932599      0.000      0.000
REMARK  14 active torsions:
REMARK  status: ('A' for Active; 'I' for Inactive)
REMARK    1  A    between atoms: C2_2  and  C3_3 
REMARK    2  A    between atoms: C3_3  and  N1_4 
REMARK    3  A    between atoms: N1_4  and  C6_7 
REMARK    4  A    between atoms: C6_7  and  C7_8 
REMARK    5  A    between atoms: C7_8  and  C8_9 
REMARK    6  A    between atoms: C8_9  and  C9_10 
REMARK    7  A    between atoms: C9_10  and  C10_11 
REMARK    8  A    between atoms: C10_11  and  C11_12 
REMARK    9  A    between atoms: C11_12  and  N2_13 
REMARK   10  A    between atoms: N2_13  and  C12_15 
REMARK   11  A    between atoms: C12_15  and  C13_16 
REMARK   12  A    between atoms: C13_16  and  N3_17 
REMARK   13  A    between atoms: C19_26  and  O1_27 
REMARK   14  A    between atoms: C21_30  and  O2_31 
ROOT
HETATM    1  N1  UNL     1      30.220  39.759 -11.666  1.00  0.00    -0.074 N 
HETATM    2  C4  UNL     1      29.050  40.444 -12.248  1.00  0.00     0.272 C 
HETATM    3  C5  UNL     1      30.241  38.474 -12.383  1.00  0.00     0.272 C 
ENDROOT
BRANCH   1   4
HETATM    4  C3  UNL     1      31.397  40.422 -12.014  1.00  0.00     0.246 C 
BRANCH   4   5
HETATM    5  C2  UNL     1      32.285  41.063 -11.031  1.00  0.00    -0.013 C 
HETATM    6  C1  UNL     1      33.468  40.150 -10.771  1.00  0.00     0.017 C 
HETATM    7  C14 UNL     1      31.623  41.488  -9.752  1.00  0.00     0.011 C 
HETATM    8  C15 UNL     1      32.682  41.932  -8.774  1.00  0.00     0.001 C 
HETATM    9  C16 UNL     1      33.624  42.939  -9.322  1.00  0.00     0.005 C 
HETATM   10  C17 UNL     1      33.440  43.305 -10.756  1.00  0.00    -0.005 C 
HETATM   11  C18 UNL     1      32.749  44.679 -10.792  1.00  0.00     0.037 C 
HETATM   12  C22 UNL     1      32.860  42.318 -11.670  1.00  0.00     0.028 C 
HETATM   13  C19 UNL     1      32.656  45.251 -12.161  1.00  0.00     0.120 C 
HETATM   14  C20 UNL     1      32.724  44.175 -13.200  1.00  0.00     0.063 C 
HETATM   15  C21 UNL     1      31.910  42.993 -12.631  1.00  0.00     0.125 C 
BRANCH  13  16
HETATM   16  O1  UNL     1      33.656  46.199 -12.417  1.00  0.00    -0.395 OA
ATOM     17  H1  UNL     1      34.367  45.847 -12.938  1.00  0.00     0.210 HD
ENDBRANCH  13  16
BRANCH  15  18
HETATM   18  O2  UNL     1      30.793  43.548 -12.080  1.00  0.00    -0.395 OA
ATOM     19  H2  UNL     1      30.536  42.961 -11.378  1.00  0.00     0.210 HD
ENDBRANCH  15  18
ENDBRANCH   4   5
ENDBRANCH   1   4
BRANCH   1  20
HETATM   20  C6  UNL     1      29.913  39.431 -10.323  1.00  0.00     0.236 C 
BRANCH  20  21
HETATM   21  C7  UNL     1      30.339  37.955 -10.129  1.00  0.00     0.028 C 
BRANCH  21  22
HETATM   22  C8  UNL     1      30.728  37.759  -8.659  1.00  0.00     0.002 C 
BRANCH  22  23
HETATM   23  C9  UNL     1      32.230  37.723  -8.493  1.00  0.00     0.002 C 
BRANCH  23  24
HETATM   24  C10 UNL     1      32.664  38.099  -7.109  1.00  0.00     0.019 C 
BRANCH  24  25
HETATM   25  C11 UNL     1      33.977  38.838  -7.196  1.00  0.00     0.113 C 
BRANCH  25  26
HETATM   26  N2  UNL     1      34.081  39.755  -6.104  1.00  0.00    -0.420 N 
ATOM     27  H2  UNL     1      33.271  40.009  -5.540  1.00  0.00     0.153 HD
BRANCH  26  28
HETATM   28  C12 UNL     1      35.365  40.294  -5.843  1.00  0.00     0.141 C 
BRANCH  28  29
HETATM   29  C13 UNL     1      35.390  41.765  -6.251  1.00  0.00     0.248 C 
BRANCH  29  30
HETATM   30  N3  UNL     1      34.302  42.513  -5.682  1.00  0.00    -0.078 N 
ATOM     31  H33 UNL     1      33.628  41.895  -5.230  1.00  0.00     0.274 HD
ATOM     32  H32 UNL     1      34.609  43.045  -4.867  1.00  0.00     0.274 HD
ATOM     33  H31 UNL     1      33.845  43.118  -6.364  1.00  0.00     0.274 HD
ENDBRANCH  29  30
ENDBRANCH  28  29
ENDBRANCH  26  28
ENDBRANCH  25  26
ENDBRANCH  24  25
ENDBRANCH  23  24
ENDBRANCH  22  23
ENDBRANCH  21  22
ENDBRANCH  20  21
ENDBRANCH   1  20
TORSDOF 14
ENDMDL
MODEL 2
REMARK VINA RESULT: -6.231730639      1.657      2.152
REMARK  14 active torsions:
REMARK  status: ('A' for Active; 'I' for Inactive)
REMARK    1  A    between atoms: C2_2  and  C3_3 
REMARK    2  A    between atoms: C3_3  and  N1_4 
REMARK    3  A    between atoms: N1_4  and  C6_7 
REMARK    4  A    between atoms: C6_7  and  C7_8 
REMARK    5  A    between atoms: C7_8  and  C8_9 
REMARK    6  A    between atoms: C8_9  and  C9_10 
REMARK    7  A    between atoms: C9_10  and  C10_11 
REMARK    8  A    between atoms: C10_11  and  C11_12 
REMARK    9  A    between atoms: C11_12  and  N2_13 
REMARK   10  A    between atoms: N2_13  and  C12_15 
REMARK   11  A    between atoms: C12_15  and  C13_16 
REMARK   12  A    between atoms: C13_16  and  N3_17 
REMARK   13  A    between atoms: C19_26  and  O1_27 
REMARK   14  A    between atoms: C21_30  and  O2_31 
ROOT
HETATM    1  N1  UNL     1      30.501  39.287 -11.693  1.00  0.00    -0.074 N 
HETATM    2  C4  UNL     1      29.310  39.928 -11.103  1.00  0.00     0.272 C 
HETATM    3  C5  UNL     1      29.992  38.752 -12.966  1.00  0.00     0.272 C 
ENDROOT
BRANCH   1   4
HETATM    4  C3  UNL     1      31.458  40.245 -12.024  1.00  0.00     0.246 C 
BRANCH   4   5
HETATM    5  C2  UNL     1      32.362  40.862 -11.039  1.00  0.00    -0.013 C 
HETATM    6  C1  UNL     1      33.558  39.953 -10.837  1.00  0.00     0.017 C 
HETATM    7  C14 UNL     1      31.724  41.235  -9.732  1.00  0.00     0.011 C 
HETATM    8  C15 UNL     1      32.800  41.656  -8.763  1.00  0.00     0.001 C 
HETATM    9  C16 UNL     1      33.719  42.691  -9.295  1.00  0.00     0.005 C 
HETATM   10  C17 UNL     1      33.500  43.105 -10.711  1.00  0.00    -0.005 C 
HETATM   11  C18 UNL     1      32.795  44.472 -10.685  1.00  0.00     0.037 C 
HETATM   12  C22 UNL     1      32.909  42.144 -11.646  1.00  0.00     0.028 C 
HETATM   13  C19 UNL     1      32.666  45.090 -12.030  1.00  0.00     0.120 C 
HETATM   14  C20 UNL     1      32.721  44.052 -13.107  1.00  0.00     0.063 C 
HETATM   15  C21 UNL     1      31.932  42.842 -12.563  1.00  0.00     0.125 C 
BRANCH  13  16
HETATM   16  O1  UNL     1      33.650  46.057 -12.274  1.00  0.00    -0.395 OA
ATOM     17  H1  UNL     1      33.398  46.670 -12.955  1.00  0.00     0.210 HD
ENDBRANCH  13  16
BRANCH  15  18
HETATM   18  O2  UNL     1      30.822  43.365 -11.968  1.00  0.00    -0.395 OA
ATOM     19  H2  UNL     1      30.343  43.804 -12.661  1.00  0.00     0.210 HD
ENDBRANCH  15  18
ENDBRANCH   4   5
ENDBRANCH   1   4
BRANCH   1  20
HETATM   20  C6  UNL     1      30.818  38.149 -10.912  1.00  0.00     0.236 C 
BRANCH  20  21
HETATM   21  C7  UNL     1      29.815  38.139  -9.733  1.00  0.00     0.028 C 
BRANCH  21  22
HETATM   22  C8  UNL     1      30.444  37.351  -8.577  1.00  0.00     0.002 C 
BRANCH  22  23
HETATM   23  C9  UNL     1      31.950  37.479  -8.586  1.00  0.00     0.002 C 
BRANCH  23  24
HETATM   24  C10 UNL     1      32.482  38.091  -7.325  1.00  0.00     0.019 C 
BRANCH  24  25
HETATM   25  C11 UNL     1      33.964  38.319  -7.484  1.00  0.00     0.113 C 
BRANCH  25  26
HETATM   26  N2  UNL     1      34.499  37.362  -8.401  1.00  0.00    -0.420 N 
ATOM     27  H2  UNL     1      33.893  36.760  -8.958  1.00  0.00     0.153 HD
BRANCH  26  28
HETATM   28  C12 UNL     1      35.910  37.289  -8.499  1.00  0.00     0.141 C 
BRANCH  28  29
HETATM   29  C13 UNL     1      36.341  37.678  -9.911  1.00  0.00     0.248 C 
BRANCH  29  30
HETATM   30  N3  UNL     1      37.694  37.287 -10.201  1.00  0.00    -0.078 N 
ATOM     31  H33 UNL     1      37.889  37.353 -11.200  1.00  0.00     0.274 HD
ATOM     32  H32 UNL     1      38.358  37.981  -9.858  1.00  0.00     0.274 HD
ATOM     33  H31 UNL     1      37.917  36.358  -9.844  1.00  0.00     0.274 HD
ENDBRANCH  29  30
ENDBRANCH  28  29
ENDBRANCH  26  28
ENDBRANCH  25  26
ENDBRANCH  24  25
ENDBRANCH  23  24
ENDBRANCH  22  23
ENDBRANCH  21  22
ENDBRANCH  20  21
ENDBRANCH   1  20
TORSDOF 14
ENDMDL
MODEL 3
REMARK VINA RESULT: -6.109552709      1.340      1.542
REMARK  14 active torsions:
REMARK  status: ('A' for Active; 'I' for Inactive)
REMARK    1  A    between atoms: C2_2  and  C3_3 
REMARK    2  A    between atoms: C3_3  and  N1_4 
REMARK    3  A    between atoms: N1_4  and  C6_7 
REMARK    4  A    between atoms: C6_7  and  C7_8 
REMARK    5  A    between atoms: C7_8  and  C8_9 
REMARK    6  A    between atoms: C8_9  and  C9_10 
REMARK    7  A    between atoms: C9_10  and  C10_11 
REMARK    8  A    between atoms: C10_11  and  C11_12 
REMARK    9  A    between atoms: C11_12  and  N2_13 
REMARK   10  A    between atoms: N2_13  and  C12_15 
REMARK   11  A    between atoms: C12_15  and  C13_16 
REMARK   12  A    between atoms: C13_16  and  N3_17 
REMARK   13  A    between atoms: C19_26  and  O1_27 
REMARK   14  A    between atoms: C21_30  and  O2_31 
ROOT
HETATM    1  N1  UNL     1      30.076  39.466 -12.417  1.00  0.00    -0.074 N 
HETATM    2  C4  UNL     1      28.814  40.119 -12.021  1.00  0.00     0.272 C 
HETATM    3  C5  UNL     1      29.762  38.917 -13.747  1.00  0.00     0.272 C 
ENDROOT
BRANCH   1   4
HETATM    4  C3  UNL     1      31.078  40.416 -12.612  1.00  0.00     0.246 C 
BRANCH   4   5
HETATM    5  C2  UNL     1      32.006  40.843 -11.551  1.00  0.00    -0.013 C 
HETATM    6  C1  UNL     1      33.111  39.813 -11.424  1.00  0.00     0.017 C 
HETATM    7  C14 UNL     1      31.368  41.137 -10.225  1.00  0.00     0.011 C 
HETATM    8  C15 UNL     1      32.450  41.357  -9.197  1.00  0.00     0.001 C 
HETATM    9  C16 UNL     1      33.472  42.353  -9.602  1.00  0.00     0.005 C 
HETATM   10  C17 UNL     1      33.329  42.927 -10.970  1.00  0.00    -0.005 C 
HETATM   11  C18 UNL     1      32.748  44.343 -10.814  1.00  0.00     0.037 C 
HETATM   12  C22 UNL     1      32.682  42.126 -12.011  1.00  0.00     0.028 C 
HETATM   13  C19 UNL     1      32.711  45.105 -12.090  1.00  0.00     0.120 C 
HETATM   14  C20 UNL     1      32.704  44.182 -13.268  1.00  0.00     0.063 C 
HETATM   15  C21 UNL     1      31.796  43.000 -12.867  1.00  0.00     0.125 C 
BRANCH  13  16
HETATM   16  O1  UNL     1      33.784  45.998 -12.214  1.00  0.00    -0.395 OA
ATOM     17  H1  UNL     1      34.055  46.119 -13.116  1.00  0.00     0.210 HD
ENDBRANCH  13  16
BRANCH  15  18
HETATM   18  O2  UNL     1      30.720  43.559 -12.241  1.00  0.00    -0.395 OA
ATOM     19  H2  UNL     1      30.028  42.910 -12.295  1.00  0.00     0.210 HD
ENDBRANCH  15  18
ENDBRANCH   4   5
ENDBRANCH   1   4
BRANCH   1  20
HETATM   20  C6  UNL     1      30.265  38.336 -11.585  1.00  0.00     0.236 C 
BRANCH  20  21
HETATM   21  C7  UNL     1      29.064  38.310 -10.609  1.00  0.00     0.028 C 
BRANCH  21  22
HETATM   22  C8  UNL     1      29.520  37.645  -9.305  1.00  0.00     0.002 C 
BRANCH  22  23
HETATM   23  C9  UNL     1      31.029  37.606  -9.212  1.00  0.00     0.002 C 
BRANCH  23  24
HETATM   24  C10 UNL     1      31.514  37.501  -7.798  1.00  0.00     0.019 C 
BRANCH  24  25
HETATM   25  C11 UNL     1      32.768  36.663  -7.777  1.00  0.00     0.113 C 
BRANCH  25  26
HETATM   26  N2  UNL     1      33.914  37.517  -7.800  1.00  0.00    -0.420 N 
ATOM     27  H2  UNL     1      34.750  37.276  -8.331  1.00  0.00     0.153 HD
BRANCH  26  28
HETATM   28  C12 UNL     1      33.832  38.716  -7.049  1.00  0.00     0.141 C 
BRANCH  28  29
HETATM   29  C13 UNL     1      35.054  39.583  -7.342  1.00  0.00     0.248 C 
BRANCH  29  30
HETATM   30  N3  UNL     1      35.473  39.498  -8.715  1.00  0.00    -0.078 N 
ATOM     31  H33 UNL     1      35.296  40.374  -9.208  1.00  0.00     0.274 HD
ATOM     32  H32 UNL     1      36.490  39.472  -8.788  1.00  0.00     0.274 HD
ATOM     33  H31 UNL     1      35.050  38.710  -9.205  1.00  0.00     0.274 HD
ENDBRANCH  29  30
ENDBRANCH  28  29
ENDBRANCH  26  28
ENDBRANCH  25  26
ENDBRANCH  24  25
ENDBRANCH  23  24
ENDBRANCH  22  23
ENDBRANCH  21  22
ENDBRANCH  20  21
ENDBRANCH   1  20
TORSDOF 14
ENDMDL
MODEL 4
REMARK VINA RESULT: -5.932074867      2.057      2.982
REMARK  14 active torsions:
REMARK  status: ('A' for Active; 'I' for Inactive)
REMARK    1  A    between atoms: C2_2  and  C3_3 
REMARK    2  A    between atoms: C3_3  and  N1_4 
REMARK    3  A    between atoms: N1_4  and  C6_7 
REMARK    4  A    between atoms: C6_7  and  C7_8 
REMARK    5  A    between atoms: C7_8  and  C8_9 
REMARK    6  A    between atoms: C8_9  and  C9_10 
REMARK    7  A    between atoms: C9_10  and  C10_11 
REMARK    8  A    between atoms: C10_11  and  C11_12 
REMARK    9  A    between atoms: C11_12  and  N2_13 
REMARK   10  A    between atoms: N2_13  and  C12_15 
REMARK   11  A    between atoms: C12_15  and  C13_16 
REMARK   12  A    between atoms: C13_16  and  N3_17 
REMARK   13  A    between atoms: C19_26  and  O1_27 
REMARK   14  A    between atoms: C21_30  and  O2_31 
ROOT
HETATM    1  N1  UNL     1      30.150  39.372 -12.050  1.00  0.00    -0.074 N 
HETATM    2  C4  UNL     1      28.999  40.116 -11.503  1.00  0.00     0.272 C 
HETATM    3  C5  UNL     1      29.652  38.906 -13.354  1.00  0.00     0.272 C 
ENDROOT
BRANCH   1   4
HETATM    4  C3  UNL     1      31.208  40.239 -12.321  1.00  0.00     0.246 C 
BRANCH   4   5
HETATM    5  C2  UNL     1      32.142  40.722 -11.291  1.00  0.00    -0.013 C 
HETATM    6  C1  UNL     1      33.273  39.722 -11.148  1.00  0.00     0.017 C 
HETATM    7  C14 UNL     1      31.519  41.046  -9.964  1.00  0.00     0.011 C 
HETATM    8  C15 UNL     1      32.612  41.325  -8.963  1.00  0.00     0.001 C 
HETATM    9  C16 UNL     1      33.604  42.330  -9.418  1.00  0.00     0.005 C 
HETATM   10  C17 UNL     1      33.426  42.855 -10.802  1.00  0.00    -0.005 C 
HETATM   11  C18 UNL     1      32.814  44.261 -10.683  1.00  0.00     0.037 C 
HETATM   12  C22 UNL     1      32.780  42.004 -11.805  1.00  0.00     0.028 C 
HETATM   13  C19 UNL     1      32.739  44.979 -11.983  1.00  0.00     0.120 C 
HETATM   14  C20 UNL     1      32.734  44.016 -13.130  1.00  0.00     0.063 C 
HETATM   15  C21 UNL     1      31.861  42.828 -12.674  1.00  0.00     0.125 C 
BRANCH  13  16
HETATM   16  O1  UNL     1      33.789  45.891 -12.154  1.00  0.00    -0.395 OA
ATOM     17  H1  UNL     1      33.483  46.759 -12.389  1.00  0.00     0.210 HD
ENDBRANCH  13  16
BRANCH  15  18
HETATM   18  O2  UNL     1      30.783  43.383 -12.049  1.00  0.00    -0.395 OA
ATOM     19  H2  UNL     1      30.088  42.739 -12.117  1.00  0.00     0.210 HD
ENDBRANCH  15  18
ENDBRANCH   4   5
ENDBRANCH   1   4
BRANCH   1  20
HETATM   20  C6  UNL     1      30.320  38.198 -11.276  1.00  0.00     0.236 C 
BRANCH  20  21
HETATM   21  C7  UNL     1      29.253  38.258 -10.156  1.00  0.00     0.028 C 
BRANCH  21  22
HETATM   22  C8  UNL     1      29.781  37.470  -8.951  1.00  0.00     0.002 C 
BRANCH  22  23
HETATM   23  C9  UNL     1      31.283  37.316  -9.016  1.00  0.00     0.002 C 
BRANCH  23  24
HETATM   24  C10 UNL     1      31.969  37.849  -7.794  1.00  0.00     0.019 C 
BRANCH  24  25
HETATM   25  C11 UNL     1      33.132  36.949  -7.458  1.00  0.00     0.113 C 
BRANCH  25  26
HETATM   26  N2  UNL     1      32.652  35.776  -6.799  1.00  0.00    -0.420 N 
ATOM     27  H2  UNL     1      31.985  35.830  -6.029  1.00  0.00     0.153 HD
BRANCH  26  28
HETATM   28  C12 UNL     1      33.146  34.533  -7.266  1.00  0.00     0.141 C 
BRANCH  28  29
HETATM   29  C13 UNL     1      31.975  33.592  -7.541  1.00  0.00     0.248 C 
BRANCH  29  30
HETATM   30  N3  UNL     1      30.707  34.175  -7.194  1.00  0.00    -0.078 N 
ATOM     31  H33 UNL     1      30.684  34.445  -6.210  1.00  0.00     0.274 HD
ATOM     32  H32 UNL     1      30.597  35.095  -7.620  1.00  0.00     0.274 HD
ATOM     33  H31 UNL     1      29.922  33.567  -7.426  1.00  0.00     0.274 HD
ENDBRANCH  29  30
ENDBRANCH  28  29
ENDBRANCH  26  28
ENDBRANCH  25  26
ENDBRANCH  24  25
ENDBRANCH  23  24
ENDBRANCH  22  23
ENDBRANCH  21  22
ENDBRANCH  20  21
ENDBRANCH   1  20
TORSDOF 14
ENDMDL
MODEL 5
REMARK VINA RESULT: -5.920496661      1.106      1.232
REMARK  14 active torsions:
REMARK  status: ('A' for Active; 'I' for Inactive)
REMARK    1  A    between atoms: C2_2  and  C3_3 
REMARK    2  A    between atoms: C3_3  and  N1_4 
REMARK    3  A    between atoms: N1_4  and  C6_7 
REMARK    4  A    between atoms: C6_7  and  C7_8 
REMARK    5  A    between atoms: C7_8  and  C8_9 
REMARK    6  A    between atoms: C8_9  and  C9_10 
REMARK    7  A    between atoms: C9_10  and  C10_11 
REMARK    8  A    between atoms: C10_11  and  C11_12 
REMARK    9  A    between atoms: C11_12  and  N2_13 
REMARK   10  A    between atoms: N2_13  and  C12_15 
REMARK   11  A    between atoms: C12_15  and  C13_16 
REMARK   12  A    between atoms: C13_16  and  N3_17 
REMARK   13  A    between atoms: C19_26  and  O1_27 
REMARK   14  A    between atoms: C21_30  and  O2_31 
ROOT
HETATM    1  N1  UNL     1      30.730  38.696 -10.772  1.00  0.00    -0.074 N 
HETATM    2  C4  UNL     1      29.393  39.052 -11.283  1.00  0.00     0.272 C 
HETATM    3  C5  UNL     1      30.909  37.315 -11.250  1.00  0.00     0.272 C 
ENDROOT
BRANCH   1   4
HETATM    4  C3  UNL     1      31.713  39.459 -11.401  1.00  0.00     0.246 C 
BRANCH   4   5
HETATM    5  C2  UNL     1      32.507  40.486 -10.706  1.00  0.00    -0.013 C 
HETATM    6  C1  UNL     1      33.837  39.883 -10.298  1.00  0.00     0.017 C 
HETATM    7  C14 UNL     1      31.821  41.149  -9.547  1.00  0.00     0.011 C 
HETATM    8  C15 UNL     1      32.818  42.015  -8.817  1.00  0.00     0.001 C 
HETATM    9  C16 UNL     1      33.553  42.958  -9.694  1.00  0.00     0.005 C 
HETATM   10  C17 UNL     1      33.264  42.865 -11.154  1.00  0.00    -0.005 C 
HETATM   11  C18 UNL     1      32.344  44.045 -11.514  1.00  0.00     0.037 C 
HETATM   12  C22 UNL     1      32.835  41.580 -11.711  1.00  0.00     0.028 C 
HETATM   13  C19 UNL     1      32.111  44.180 -12.976  1.00  0.00     0.120 C 
HETATM   14  C20 UNL     1      32.332  42.877 -13.679  1.00  0.00     0.063 C 
HETATM   15  C21 UNL     1      31.754  41.794 -12.743  1.00  0.00     0.125 C 
BRANCH  13  16
HETATM   16  O1  UNL     1      32.923  45.161 -13.562  1.00  0.00    -0.395 OA
ATOM     17  H1  UNL     1      33.536  44.798 -14.190  1.00  0.00     0.210 HD
ENDBRANCH  13  16
BRANCH  15  18
HETATM   18  O2  UNL     1      30.575  42.300 -12.280  1.00  0.00    -0.395 OA
ATOM     19  H2  UNL     1      30.577  42.138 -11.344  1.00  0.00     0.210 HD
ENDBRANCH  15  18
ENDBRANCH   4   5
ENDBRANCH   1   4
BRANCH   1  20
HETATM   20  C6  UNL     1      30.647  38.593  -9.362  1.00  0.00     0.236 C 
BRANCH  20  21
HETATM   21  C7  UNL     1      30.698  37.081  -9.033  1.00  0.00     0.028 C 
BRANCH  21  22
HETATM   22  C8  UNL     1      31.442  36.905  -7.704  1.00  0.00     0.002 C 
BRANCH  22  23
HETATM   23  C9  UNL     1      32.801  37.567  -7.749  1.00  0.00     0.002 C 
BRANCH  23  24
HETATM   24  C10 UNL     1      33.011  38.523  -6.614  1.00  0.00     0.019 C 
BRANCH  24  25
HETATM   25  C11 UNL     1      34.296  39.279  -6.848  1.00  0.00     0.113 C 
BRANCH  25  26
HETATM   26  N2  UNL     1      34.430  40.307  -5.865  1.00  0.00    -0.420 N 
ATOM     27  H2  UNL     1      33.616  40.767  -5.458  1.00  0.00     0.153 HD
BRANCH  26  28
HETATM   28  C12 UNL     1      35.748  40.657  -5.482  1.00  0.00     0.141 C 
BRANCH  28  29
HETATM   29  C13 UNL     1      35.732  42.022  -4.798  1.00  0.00     0.248 C 
BRANCH  29  30
HETATM   30  N3  UNL     1      35.292  41.947  -3.431  1.00  0.00    -0.078 N 
ATOM     31  H33 UNL     1      34.697  42.741  -3.192  1.00  0.00     0.274 HD
ATOM     32  H32 UNL     1      34.618  41.192  -3.303  1.00  0.00     0.274 HD
ATOM     33  H31 UNL     1      36.068  41.861  -2.775  1.00  0.00     0.274 HD
ENDBRANCH  29  30
ENDBRANCH  28  29
ENDBRANCH  26  28
ENDBRANCH  25  26
ENDBRANCH  24  25
ENDBRANCH  23  24
ENDBRANCH  22  23
ENDBRANCH  21  22
ENDBRANCH  20  21
ENDBRANCH   1  20
TORSDOF 14
ENDMDL
