MODEL 1
REMARK VINA RESULT: -6.556346864      0.000      0.000
REMARK  13 active torsions:
REMARK  status: ('A' for Active; 'I' for Inactive)
REMARK    1  A    between atoms: C2_2  and  N1_3 
REMARK    2  A    between atoms: N1_3  and  C3_6 
REMARK    3  A    between atoms: C3_6  and  C4_7 
REMARK    4  A    between atoms: C4_7  and  N2_8 
REMARK    5  A    between atoms: N2_8  and  C5_10 
REMARK    6  A    between atoms: C5_10  and  N3_12 
REMARK    7  A    between atoms: N3_12  and  C6_14 
REMARK    8  A    between atoms: C6_14  and  C7_15 
REMARK    9  A    between atoms: C7_15  and  S2_16 
REMARK   10  A    between atoms: S2_16  and  C8_17 
REMARK   11  A    between atoms: C8_17  and  C9_18 
REMARK   12  A    between atoms: C9_18  and  C10_19 
REMARK   13  A    between atoms: C10_19  and  N4_20 
REMARK       I    between atoms: N4_20  and  C11_22 
REMARK       I    between atoms: C11_22  and  N5_24 
ROOT
HETATM    1  C7  UNL     1      34.717  38.687  -9.145  1.00  0.00     0.093 C 
ENDROOT
BRANCH   1   2
HETATM    2  C6  UNL     1      33.802  39.251 -10.211  1.00  0.00     0.132 C 
BRANCH   2   3
HETATM    3  N3  UNL     1      32.731  39.968  -9.581  1.00  0.00    -0.367 N 
ATOM      4  H3  UNL     1      32.422  39.619  -8.674  1.00  0.00     0.161 HD
BRANCH   3   5
HETATM    5  C5  UNL     1      32.059  41.099 -10.079  1.00  0.00     0.167 C 
HETATM    6  S1  UNL     1      31.270  40.999 -11.524  1.00  0.00    -0.041 SA
BRANCH   5   7
HETATM    7  N2  UNL     1      32.026  42.347  -9.409  1.00  0.00    -0.366 N 
ATOM      8  H2  UNL     1      31.164  42.610  -8.932  1.00  0.00     0.161 HD
BRANCH   7   9
HETATM    9  C4  UNL     1      33.138  43.272  -9.359  1.00  0.00     0.149 C 
BRANCH   9  10
HETATM   10  C3  UNL     1      33.222  44.101 -10.596  1.00  0.00     0.251 C 
BRANCH  10  11
HETATM   11  N1  UNL     1      32.007  44.851 -10.824  1.00  0.00    -0.074 N 
ATOM     12  H12 UNL     1      31.776  45.423 -10.011  1.00  0.00     0.277 HD
ATOM     13  H11 UNL     1      31.196  44.233 -10.831  1.00  0.00     0.277 HD
BRANCH  11  14
HETATM   14  C2  UNL     1      32.047  45.657 -12.024  1.00  0.00     0.228 C 
HETATM   15  C1  UNL     1      33.137  45.189 -12.973  1.00  0.00     0.034 C 
ENDBRANCH  11  14
ENDBRANCH  10  11
ENDBRANCH   9  10
ENDBRANCH   7   9
ENDBRANCH   5   7
ENDBRANCH   3   5
ENDBRANCH   2   3
ENDBRANCH   1   2
BRANCH   1  16
HETATM   16  S2  UNL     1      33.917  38.687  -7.524  1.00  0.00    -0.164 SA
BRANCH  16  17
HETATM   17  C8  UNL     1      35.011  39.704  -6.406  1.00  0.00     0.102 C 
BRANCH  17  18
HETATM   18  C9  UNL     1      34.887  41.088  -6.893  1.00  0.00     0.000 C 
BRANCH  18  19
HETATM   19  C10 UNL     1      34.615  42.227  -6.024  1.00  0.00     0.089 C 
BRANCH  19  20
HETATM   20  N4  UNL     1      35.012  42.143  -4.674  1.00  0.00    -0.319 N 
HETATM   21  C11 UNL     1      36.270  42.331  -4.142  1.00  0.00     0.322 C 
HETATM   22  O1  UNL     1      37.285  42.602  -4.802  1.00  0.00    -0.247 OA
HETATM   23  N5  UNL     1      36.476  42.216  -2.723  1.00  0.00    -0.334 N 
HETATM   24  C12 UNL     1      37.774  42.435  -2.105  1.00  0.00     0.127 C 
HETATM   25  C16 UNL     1      35.387  41.852  -1.853  1.00  0.00     0.127 C 
HETATM   26  C13 UNL     1      37.558  43.274  -0.865  1.00  0.00     0.020 C 
HETATM   27  C14 UNL     1      36.721  42.487   0.122  1.00  0.00     0.003 C 
HETATM   28  C15 UNL     1      36.014  41.333  -0.547  1.00  0.00     0.020 C 
ATOM     29  H4  UNL     1      34.275  41.915  -4.007  1.00  0.00     0.169 HD
ENDBRANCH  19  20
ENDBRANCH  18  19
ENDBRANCH  17  18
ENDBRANCH  16  17
ENDBRANCH   1  16
TORSDOF 13
ENDMDL
MODEL 2
REMARK VINA RESULT: -6.442524931      1.331      1.516
REMARK  13 active torsions:
REMARK  status: ('A' for Active; 'I' for Inactive)
REMARK    1  A    between atoms: C2_2  and  N1_3 
REMARK    2  A    between atoms: N1_3  and  C3_6 
REMARK    3  A    between atoms: C3_6  and  C4_7 
REMARK    4  A    between atoms: C4_7  and  N2_8 
REMARK    5  A    between atoms: N2_8  and  C5_10 
REMARK    6  A    between atoms: C5_10  and  N3_12 
REMARK    7  A    between atoms: N3_12  and  C6_14 
REMARK    8  A    between atoms: C6_14  and  C7_15 
REMARK    9  A    between atoms: C7_15  and  S2_16 
REMARK   10  A    between atoms: S2_16  and  C8_17 
REMARK   11  A    between atoms: C8_17  and  C9_18 
REMARK   12  A    between atoms: C9_18  and  C10_19 
REMARK   13  A    between atoms: C10_19  and  N4_20 
REMARK       I    between atoms: N4_20  and  C11_22 
REMARK       I    between atoms: C11_22  and  N5_24 
ROOT
HETATM    1  C7  UNL     1      31.293  37.749  -8.502  1.00  0.00     0.093 C 
ENDROOT
BRANCH   1   2
HETATM    2  C6  UNL     1      31.885  38.020  -9.867  1.00  0.00     0.132 C 
BRANCH   2   3
HETATM    3  N3  UNL     1      31.253  39.176 -10.434  1.00  0.00    -0.367 N 
ATOM      4  H3  UNL     1      30.279  39.068 -10.717  1.00  0.00     0.161 HD
BRANCH   3   5
HETATM    5  C5  UNL     1      31.829  40.442 -10.642  1.00  0.00     0.167 C 
HETATM    6  S1  UNL     1      32.510  40.790 -12.104  1.00  0.00    -0.041 SA
BRANCH   5   7
HETATM    7  N2  UNL     1      31.872  41.455  -9.652  1.00  0.00    -0.366 N 
ATOM      8  H2  UNL     1      31.007  41.675  -9.157  1.00  0.00     0.161 HD
BRANCH   7   9
HETATM    9  C4  UNL     1      33.063  42.196  -9.298  1.00  0.00     0.149 C 
BRANCH   9  10
HETATM   10  C3  UNL     1      32.753  43.622  -8.987  1.00  0.00     0.251 C 
BRANCH  10  11
HETATM   11  N1  UNL     1      32.176  44.307 -10.121  1.00  0.00    -0.074 N 
ATOM     12  H12 UNL     1      31.783  45.205  -9.840  1.00  0.00     0.277 HD
ATOM     13  H11 UNL     1      31.323  43.840 -10.430  1.00  0.00     0.277 HD
BRANCH  11  14
HETATM   14  C2  UNL     1      33.098  44.471 -11.222  1.00  0.00     0.228 C 
HETATM   15  C1  UNL     1      32.718  45.653 -12.095  1.00  0.00     0.034 C 
ENDBRANCH  11  14
ENDBRANCH  10  11
ENDBRANCH   9  10
ENDBRANCH   7   9
ENDBRANCH   5   7
ENDBRANCH   3   5
ENDBRANCH   2   3
ENDBRANCH   1   2
BRANCH   1  16
HETATM   16  S2  UNL     1      32.584  37.513  -7.259  1.00  0.00    -0.164 SA
BRANCH  16  17
HETATM   17  C8  UNL     1      33.921  38.751  -7.658  1.00  0.00     0.102 C 
BRANCH  17  18
HETATM   18  C9  UNL     1      34.013  39.620  -6.472  1.00  0.00     0.000 C 
BRANCH  18  19
HETATM   19  C10 UNL     1      35.082  40.589  -6.264  1.00  0.00     0.089 C 
BRANCH  19  20
HETATM   20  N4  UNL     1      35.366  40.993  -4.944  1.00  0.00    -0.319 N 
HETATM   21  C11 UNL     1      36.222  41.989  -4.522  1.00  0.00     0.322 C 
HETATM   22  O1  UNL     1      36.906  42.700  -5.275  1.00  0.00    -0.247 OA
HETATM   23  N5  UNL     1      36.370  42.265  -3.118  1.00  0.00    -0.334 N 
HETATM   24  C12 UNL     1      37.233  43.324  -2.621  1.00  0.00     0.127 C 
HETATM   25  C16 UNL     1      35.671  41.472  -2.140  1.00  0.00     0.127 C 
HETATM   26  C13 UNL     1      36.481  44.058  -1.533  1.00  0.00     0.020 C 
HETATM   27  C14 UNL     1      36.230  43.108  -0.380  1.00  0.00     0.003 C 
HETATM   28  C15 UNL     1      36.404  41.669  -0.801  1.00  0.00     0.020 C 
ATOM     29  H4  UNL     1      34.877  40.484  -4.207  1.00  0.00     0.169 HD
ENDBRANCH  19  20
ENDBRANCH  18  19
ENDBRANCH  17  18
ENDBRANCH  16  17
ENDBRANCH   1  16
TORSDOF 13
ENDMDL
MODEL 3
REMARK VINA RESULT: -6.415579304      2.291      9.516
REMARK  13 active torsions:
REMARK  status: ('A' for Active; 'I' for Inactive)
REMARK    1  A    between atoms: C2_2  and  N1_3 
REMARK    2  A    between atoms: N1_3  and  C3_6 
REMARK    3  A    between atoms: C3_6  and  C4_7 
REMARK    4  A    between atoms: C4_7  and  N2_8 
REMARK    5  A    between atoms: N2_8  and  C5_10 
REMARK    6  A    between atoms: C5_10  and  N3_12 
REMARK    7  A    between atoms: N3_12  and  C6_14 
REMARK    8  A    between atoms: C6_14  and  C7_15 
REMARK    9  A    between atoms: C7_15  and  S2_16 
REMARK   10  A    between atoms: S2_16  and  C8_17 
REMARK   11  A    between atoms: C8_17  and  C9_18 
REMARK   12  A    between atoms: C9_18  and  C10_19 
REMARK   13  A    between atoms: C10_19  and  N4_20 
REMARK       I    between atoms: N4_20  and  C11_22 
REMARK       I    between atoms: C11_22  and  N5_24 
ROOT
HETATM    1  C7  UNL     1      34.483  41.567  -6.684  1.00  0.00     0.093 C 
ENDROOT
BRANCH   1   2
HETATM    2  C6  UNL     1      35.725  41.852  -5.868  1.00  0.00     0.132 C 
BRANCH   2   3
HETATM    3  N3  UNL     1      35.342  42.174  -4.524  1.00  0.00    -0.367 N 
ATOM      4  H3  UNL     1      34.345  42.314  -4.356  1.00  0.00     0.161 HD
BRANCH   3   5
HETATM    5  C5  UNL     1      36.190  42.317  -3.411  1.00  0.00     0.167 C 
HETATM    6  S1  UNL     1      37.506  41.332  -3.266  1.00  0.00    -0.041 SA
BRANCH   5   7
HETATM    7  N2  UNL     1      35.976  43.266  -2.381  1.00  0.00    -0.366 N 
ATOM      8  H2  UNL     1      35.034  43.353  -2.000  1.00  0.00     0.161 HD
BRANCH   7   9
HETATM    9  C4  UNL     1      37.009  44.120  -1.835  1.00  0.00     0.149 C 
BRANCH   9  10
HETATM   10  C3  UNL     1      37.232  43.856  -0.383  1.00  0.00     0.251 C 
BRANCH  10  11
HETATM   11  N1  UNL     1      36.390  42.787   0.104  1.00  0.00    -0.074 N 
ATOM     12  H12 UNL     1      35.925  42.311  -0.669  1.00  0.00     0.277 HD
ATOM     13  H11 UNL     1      35.574  43.162   0.588  1.00  0.00     0.277 HD
BRANCH  11  14
HETATM   14  C2  UNL     1      37.093  41.841   0.941  1.00  0.00     0.228 C 
HETATM   15  C1  UNL     1      38.169  42.521   1.770  1.00  0.00     0.034 C 
ENDBRANCH  11  14
ENDBRANCH  10  11
ENDBRANCH   9  10
ENDBRANCH   7   9
ENDBRANCH   5   7
ENDBRANCH   3   5
ENDBRANCH   2   3
ENDBRANCH   1   2
BRANCH   1  16
HETATM   16  S2  UNL     1      34.232  39.790  -6.902  1.00  0.00    -0.164 SA
BRANCH  16  17
HETATM   17  C8  UNL     1      35.227  39.306  -8.404  1.00  0.00     0.102 C 
BRANCH  17  18
HETATM   18  C9  UNL     1      34.246  39.165  -9.493  1.00  0.00     0.000 C 
BRANCH  18  19
HETATM   19  C10 UNL     1      33.006  39.928  -9.564  1.00  0.00     0.089 C 
BRANCH  19  20
HETATM   20  N4  UNL     1      32.906  40.948 -10.531  1.00  0.00    -0.319 N 
HETATM   21  C11 UNL     1      32.693  42.296 -10.331  1.00  0.00     0.322 C 
HETATM   22  O1  UNL     1      32.539  42.831  -9.222  1.00  0.00    -0.247 OA
HETATM   23  N5  UNL     1      32.636  43.191 -11.456  1.00  0.00    -0.334 N 
HETATM   24  C12 UNL     1      32.445  44.624 -11.300  1.00  0.00     0.127 C 
HETATM   25  C16 UNL     1      32.746  42.684 -12.800  1.00  0.00     0.127 C 
HETATM   26  C13 UNL     1      33.410  45.321 -12.234  1.00  0.00     0.020 C 
HETATM   27  C14 UNL     1      33.048  44.975 -13.664  1.00  0.00     0.003 C 
HETATM   28  C15 UNL     1      32.156  43.759 -13.731  1.00  0.00     0.020 C 
ATOM     29  H4  UNL     1      33.005  40.652 -11.502  1.00  0.00     0.169 HD
ENDBRANCH  19  20
ENDBRANCH  18  19
ENDBRANCH  17  18
ENDBRANCH  16  17
ENDBRANCH   1  16
TORSDOF 13
ENDMDL
MODEL 4
REMARK VINA RESULT: -6.384808123      2.090      3.369
REMARK  13 active torsions:
REMARK  status: ('A' for Active; 'I' for Inactive)
REMARK    1  A    between atoms: C2_2  and  N1_3 
REMARK    2  A    between atoms: N1_3  and  C3_6 
REMARK    3  A    between atoms: C3_6  and  C4_7 
REMARK    4  A    between atoms: C4_7  and  N2_8 
REMARK    5  A    between atoms: N2_8  and  C5_10 
REMARK    6  A    between atoms: C5_10  and  N3_12 
REMARK    7  A    between atoms: N3_12  and  C6_14 
REMARK    8  A    between atoms: C6_14  and  C7_15 
REMARK    9  A    between atoms: C7_15  and  S2_16 
REMARK   10  A    between atoms: S2_16  and  C8_17 
REMARK   11  A    between atoms: C8_17  and  C9_18 
REMARK   12  A    between atoms: C9_18  and  C10_19 
REMARK   13  A    between atoms: C10_19  and  N4_20 
REMARK       I    between atoms: N4_20  and  C11_22 
REMARK       I    between atoms: C11_22  and  N5_24 
ROOT
HETATM    1  C7  UNL     1      33.288  42.371  -9.560  1.00  0.00     0.093 C 
ENDROOT
BRANCH   1   2
HETATM    2  C6  UNL     1      33.500  43.717 -10.219  1.00  0.00     0.132 C 
BRANCH   2   3
HETATM    3  N3  UNL     1      32.226  44.338 -10.442  1.00  0.00    -0.367 N 
ATOM      4  H3  UNL     1      31.637  44.473  -9.621  1.00  0.00     0.161 HD
BRANCH   3   5
HETATM    5  C5  UNL     1      31.702  44.781 -11.670  1.00  0.00     0.167 C 
HETATM    6  S1  UNL     1      32.353  46.113 -12.394  1.00  0.00    -0.041 SA
BRANCH   5   7
HETATM    7  N2  UNL     1      30.621  44.148 -12.333  1.00  0.00    -0.366 N 
ATOM      8  H2  UNL     1      29.675  44.380 -12.032  1.00  0.00     0.161 HD
BRANCH   7   9
HETATM    9  C4  UNL     1      30.775  43.192 -13.409  1.00  0.00     0.149 C 
BRANCH   9  10
HETATM   10  C3  UNL     1      29.826  42.049 -13.271  1.00  0.00     0.251 C 
BRANCH  10  11
HETATM   11  N1  UNL     1      29.716  41.604 -11.900  1.00  0.00    -0.074 N 
ATOM     12  H12 UNL     1      28.741  41.433 -11.652  1.00  0.00     0.277 HD
ATOM     13  H11 UNL     1      29.922  42.367 -11.255  1.00  0.00     0.277 HD
BRANCH  11  14
HETATM   14  C2  UNL     1      30.531  40.448 -11.605  1.00  0.00     0.228 C 
HETATM   15  C1  UNL     1      30.395  40.027 -10.152  1.00  0.00     0.034 C 
ENDBRANCH  11  14
ENDBRANCH  10  11
ENDBRANCH   9  10
ENDBRANCH   7   9
ENDBRANCH   5   7
ENDBRANCH   3   5
ENDBRANCH   2   3
ENDBRANCH   1   2
BRANCH   1  16
HETATM   16  S2  UNL     1      33.842  42.386  -7.840  1.00  0.00    -0.164 SA
BRANCH  16  17
HETATM   17  C8  UNL     1      34.626  40.721  -7.533  1.00  0.00     0.102 C 
BRANCH  17  18
HETATM   18  C9  UNL     1      35.207  40.807  -6.183  1.00  0.00     0.000 C 
BRANCH  18  19
HETATM   19  C10 UNL     1      35.184  42.018  -5.372  1.00  0.00     0.089 C 
BRANCH  19  20
HETATM   20  N4  UNL     1      35.566  41.920  -4.019  1.00  0.00    -0.319 N 
HETATM   21  C11 UNL     1      36.708  42.406  -3.418  1.00  0.00     0.322 C 
HETATM   22  O1  UNL     1      37.612  43.019  -4.007  1.00  0.00    -0.247 OA
HETATM   23  N5  UNL     1      36.916  42.217  -2.007  1.00  0.00    -0.334 N 
HETATM   24  C12 UNL     1      38.086  42.736  -1.317  1.00  0.00     0.127 C 
HETATM   25  C16 UNL     1      35.965  41.473  -1.221  1.00  0.00     0.127 C 
HETATM   26  C13 UNL     1      37.618  43.353  -0.018  1.00  0.00     0.020 C 
HETATM   27  C14 UNL     1      37.027  42.267   0.859  1.00  0.00     0.003 C 
HETATM   28  C15 UNL     1      36.695  41.030   0.060  1.00  0.00     0.020 C 
ATOM     29  H4  UNL     1      34.916  41.426  -3.407  1.00  0.00     0.169 HD
ENDBRANCH  19  20
ENDBRANCH  18  19
ENDBRANCH  17  18
ENDBRANCH  16  17
ENDBRANCH   1  16
TORSDOF 13
ENDMDL
MODEL 5
REMARK VINA RESULT: -6.346069636      2.833      8.413
REMARK  13 active torsions:
REMARK  status: ('A' for Active; 'I' for Inactive)
REMARK    1  A    between atoms: C2_2  and  N1_3 
REMARK    2  A    between atoms: N1_3  and  C3_6 
REMARK    3  A    between atoms: C3_6  and  C4_7 
REMARK    4  A    between atoms: C4_7  and  N2_8 
REMARK    5  A    between atoms: N2_8  and  C5_10 
REMARK    6  A    between atoms: C5_10  and  N3_12 
REMARK    7  A    between atoms: N3_12  and  C6_14 
REMARK    8  A    between atoms: C6_14  and  C7_15 
REMARK    9  A    between atoms: C7_15  and  S2_16 
REMARK   10  A    between atoms: S2_16  and  C8_17 
REMARK   11  A    between atoms: C8_17  and  C9_18 
REMARK   12  A    between atoms: C9_18  and  C10_19 
REMARK   13  A    between atoms: C10_19  and  N4_20 
REMARK       I    between atoms: N4_20  and  C11_22 
REMARK       I    between atoms: C11_22  and  N5_24 
ROOT
HETATM    1  C7  UNL     1      33.494  43.378  -9.891  1.00  0.00     0.093 C 
ENDROOT
BRANCH   1   2
HETATM    2  C6  UNL     1      32.728  42.799  -8.721  1.00  0.00     0.132 C 
BRANCH   2   3
HETATM    3  N3  UNL     1      33.429  43.098  -7.506  1.00  0.00    -0.367 N 
ATOM      4  H3  UNL     1      33.352  44.054  -7.160  1.00  0.00     0.161 HD
BRANCH   3   5
HETATM    5  C5  UNL     1      34.210  42.215  -6.738  1.00  0.00     0.167 C 
HETATM    6  S1  UNL     1      34.597  40.734  -7.354  1.00  0.00    -0.041 SA
BRANCH   5   7
HETATM    7  N2  UNL     1      34.687  42.520  -5.439  1.00  0.00    -0.366 N 
ATOM      8  H2  UNL     1      34.124  43.140  -4.857  1.00  0.00     0.161 HD
BRANCH   7   9
HETATM    9  C4  UNL     1      35.924  42.009  -4.886  1.00  0.00     0.149 C 
BRANCH   9  10
HETATM   10  C3  UNL     1      36.090  42.398  -3.456  1.00  0.00     0.251 C 
BRANCH  10  11
HETATM   11  N1  UNL     1      35.080  41.797  -2.614  1.00  0.00    -0.074 N 
ATOM     12  H12 UNL     1      34.908  40.830  -2.889  1.00  0.00     0.277 HD
ATOM     13  H11 UNL     1      34.161  42.194  -2.811  1.00  0.00     0.277 HD
BRANCH  11  14
HETATM   14  C2  UNL     1      35.383  41.883  -1.203  1.00  0.00     0.228 C 
HETATM   15  C1  UNL     1      36.304  43.053  -0.903  1.00  0.00     0.034 C 
ENDBRANCH  11  14
ENDBRANCH  10  11
ENDBRANCH   9  10
ENDBRANCH   7   9
ENDBRANCH   5   7
ENDBRANCH   3   5
ENDBRANCH   2   3
ENDBRANCH   1   2
BRANCH   1  16
HETATM   16  S2  UNL     1      32.475  44.531 -10.839  1.00  0.00    -0.164 SA
BRANCH  16  17
HETATM   17  C8  UNL     1      32.783  44.139 -12.637  1.00  0.00     0.102 C 
BRANCH  17  18
HETATM   18  C9  UNL     1      32.815  42.668 -12.714  1.00  0.00     0.000 C 
BRANCH  18  19
HETATM   19  C10 UNL     1      31.619  41.842 -12.825  1.00  0.00     0.089 C 
BRANCH  19  20
HETATM   20  N4  UNL     1      31.396  40.859 -11.840  1.00  0.00    -0.319 N 
HETATM   21  C11 UNL     1      32.144  39.732 -11.574  1.00  0.00     0.322 C 
HETATM   22  O1  UNL     1      33.162  39.394 -12.199  1.00  0.00    -0.247 OA
HETATM   23  N5  UNL     1      31.760  38.847 -10.507  1.00  0.00    -0.334 N 
HETATM   24  C12 UNL     1      32.531  37.662 -10.164  1.00  0.00     0.127 C 
HETATM   25  C16 UNL     1      30.565  39.099  -9.743  1.00  0.00     0.127 C 
HETATM   26  C13 UNL     1      32.639  37.604  -8.657  1.00  0.00     0.020 C 
HETATM   27  C14 UNL     1      31.254  37.422  -8.069  1.00  0.00     0.003 C 
HETATM   28  C15 UNL     1      30.179  37.769  -9.070  1.00  0.00     0.020 C 
ATOM     29  H4  UNL     1      30.577  41.000 -11.248  1.00  0.00     0.169 HD
ENDBRANCH  19  20
ENDBRANCH  18  19
ENDBRANCH  17  18
ENDBRANCH  16  17
ENDBRANCH   1  16
TORSDOF 13
ENDMDL
