MODEL 1
REMARK VINA RESULT: -7.143254382      0.000      0.000
REMARK  8 active torsions:
REMARK  status: ('A' for Active; 'I' for Inactive)
REMARK    1  A    between atoms: C2_2  and  O1_3 
REMARK    2  A    between atoms: O1_3  and  C3_4 
REMARK    3  A    between atoms: C3_4  and  C4_5 
REMARK    4  A    between atoms: C4_5  and  O2_6 
REMARK    5  A    between atoms: C4_5  and  C5_8 
REMARK    6  A    between atoms: C5_8  and  N1_9 
REMARK    7  A    between atoms: N1_9  and  C6_11 
REMARK    8  A    between atoms: C8_13  and  C9_14 
REMARK       I    between atoms: C9_14  and  N2_16 
ROOT
HETATM    1  C6  UNL     1      34.325  38.927  -7.874  1.00  0.00     0.117 C 
HETATM    2  C7  UNL     1      34.479  39.605  -6.493  1.00  0.00     0.050 C 
HETATM    3  C8  UNL     1      35.213  40.858  -6.923  1.00  0.00     0.130 C 
HETATM    4  C17 UNL     1      34.474  41.283  -8.118  1.00  0.00     0.031 A 
HETATM    5  N3  UNL     1      34.125  42.350  -8.853  1.00  0.00    -0.361 N 
ATOM      6  H3  UNL     1      34.369  43.323  -8.666  1.00  0.00     0.165 HD
HETATM    7  C18 UNL     1      33.392  41.891  -9.879  1.00  0.00     0.016 A 
HETATM    8  C19 UNL     1      33.265  40.545  -9.817  1.00  0.00    -0.025 A 
HETATM    9  C20 UNL     1      33.943  40.126  -8.705  1.00  0.00    -0.004 A 
HETATM   10  C21 UNL     1      32.520  39.709 -10.792  1.00  0.00     0.041 C 
HETATM   11  C22 UNL     1      32.201  40.407 -12.079  1.00  0.00     0.005 C 
HETATM   12  C23 UNL     1      32.928  41.721 -12.231  1.00  0.00     0.006 C 
HETATM   13  C24 UNL     1      32.729  42.611 -11.025  1.00  0.00     0.057 C 
ENDROOT
BRANCH   1  14
HETATM   14  N1  UNL     1      35.593  38.473  -8.255  1.00  0.00    -0.391 N 
ATOM     15  H1  UNL     1      36.389  38.626  -7.637  1.00  0.00     0.159 HD
BRANCH  14  16
HETATM   16  C5  UNL     1      35.781  37.813  -9.476  1.00  0.00     0.089 C 
BRANCH  16  17
HETATM   17  C4  UNL     1      36.917  36.854  -9.593  1.00  0.00     0.179 C 
BRANCH  17  18
HETATM   18  C3  UNL     1      36.763  35.616  -8.779  1.00  0.00     0.204 C 
BRANCH  18  19
HETATM   19  O1  UNL     1      37.031  35.828  -7.459  1.00  0.00    -0.389 OA
BRANCH  19  20
HETATM   20  C2  UNL     1      38.298  36.302  -7.174  1.00  0.00     0.163 C 
HETATM   21  C1  UNL     1      38.208  37.249  -5.970  1.00  0.00     0.033 C 
ENDBRANCH  19  20
ENDBRANCH  18  19
ENDBRANCH  17  18
BRANCH  17  22
HETATM   22  O2  UNL     1      37.167  36.518 -10.949  1.00  0.00    -0.388 OA
ATOM     23  H2  UNL     1      37.893  37.032 -11.284  1.00  0.00     0.210 HD
ENDBRANCH  17  22
ENDBRANCH  16  17
ENDBRANCH  14  16
ENDBRANCH   1  14
BRANCH   3  24
HETATM   24  C9  UNL     1      35.291  41.839  -5.833  1.00  0.00     0.230 C 
HETATM   25  O3  UNL     1      34.459  42.824  -5.862  1.00  0.00    -0.273 OA
HETATM   26  N2  UNL     1      36.190  41.812  -4.749  1.00  0.00    -0.351 N 
HETATM   27  C10 UNL     1      37.136  40.744  -4.608  1.00  0.00     0.130 C 
HETATM   28  C16 UNL     1      36.171  42.859  -3.761  1.00  0.00     0.130 C 
HETATM   29  C11 UNL     1      37.292  40.463  -3.126  1.00  0.00    -0.000 C 
HETATM   30  C12 UNL     1      38.140  39.249  -2.861  1.00  0.00     0.011 C 
HETATM   31  C13 UNL     1      37.959  41.653  -2.477  1.00  0.00     0.011 C 
HETATM   32  C14 UNL     1      37.473  42.964  -3.006  1.00  0.00    -0.000 C 
HETATM   33  C15 UNL     1      37.222  43.877  -1.803  1.00  0.00     0.011 C 
ENDBRANCH   3  24
TORSDOF 8
ENDMDL
MODEL 2
REMARK VINA RESULT: -7.123959938      1.083      1.223
REMARK  8 active torsions:
REMARK  status: ('A' for Active; 'I' for Inactive)
REMARK    1  A    between atoms: C2_2  and  O1_3 
REMARK    2  A    between atoms: O1_3  and  C3_4 
REMARK    3  A    between atoms: C3_4  and  C4_5 
REMARK    4  A    between atoms: C4_5  and  O2_6 
REMARK    5  A    between atoms: C4_5  and  C5_8 
REMARK    6  A    between atoms: C5_8  and  N1_9 
REMARK    7  A    between atoms: N1_9  and  C6_11 
REMARK    8  A    between atoms: C8_13  and  C9_14 
REMARK       I    between atoms: C9_14  and  N2_16 
ROOT
HETATM    1  C6  UNL     1      34.426  38.895  -7.938  1.00  0.00     0.117 C 
HETATM    2  C7  UNL     1      34.552  39.560  -6.548  1.00  0.00     0.050 C 
HETATM    3  C8  UNL     1      35.243  40.843  -6.958  1.00  0.00     0.130 C 
HETATM    4  C17 UNL     1      34.495  41.258  -8.150  1.00  0.00     0.031 A 
HETATM    5  N3  UNL     1      34.112  42.322  -8.872  1.00  0.00    -0.361 N 
ATOM      6  H3  UNL     1      34.321  43.300  -8.671  1.00  0.00     0.165 HD
HETATM    7  C18 UNL     1      33.399  41.851  -9.908  1.00  0.00     0.016 A 
HETATM    8  C19 UNL     1      33.318  40.501  -9.864  1.00  0.00    -0.025 A 
HETATM    9  C20 UNL     1      34.007  40.091  -8.754  1.00  0.00    -0.004 A 
HETATM   10  C21 UNL     1      32.607  39.653 -10.853  1.00  0.00     0.041 C 
HETATM   11  C22 UNL     1      32.269  40.356 -12.132  1.00  0.00     0.005 C 
HETATM   12  C23 UNL     1      32.950  41.697 -12.264  1.00  0.00     0.006 C 
HETATM   13  C24 UNL     1      32.716  42.564 -11.046  1.00  0.00     0.057 C 
ENDROOT
BRANCH   1  14
HETATM   14  N1  UNL     1      35.711  38.491  -8.319  1.00  0.00    -0.391 N 
ATOM     15  H1  UNL     1      36.450  38.436  -7.619  1.00  0.00     0.159 HD
BRANCH  14  16
HETATM   16  C5  UNL     1      35.993  38.162  -9.652  1.00  0.00     0.089 C 
BRANCH  16  17
HETATM   17  C4  UNL     1      37.092  37.191  -9.922  1.00  0.00     0.179 C 
BRANCH  17  18
HETATM   18  C3  UNL     1      36.630  35.809 -10.228  1.00  0.00     0.204 C 
BRANCH  18  19
HETATM   19  O1  UNL     1      35.451  35.510  -9.612  1.00  0.00    -0.389 OA
BRANCH  19  20
HETATM   20  C2  UNL     1      35.546  34.696  -8.499  1.00  0.00     0.163 C 
HETATM   21  C1  UNL     1      34.450  35.097  -7.503  1.00  0.00     0.033 C 
ENDBRANCH  19  20
ENDBRANCH  18  19
ENDBRANCH  17  18
BRANCH  17  22
HETATM   22  O2  UNL     1      37.947  37.659 -10.954  1.00  0.00    -0.388 OA
ATOM     23  H2  UNL     1      37.844  37.123 -11.732  1.00  0.00     0.210 HD
ENDBRANCH  17  22
ENDBRANCH  16  17
ENDBRANCH  14  16
ENDBRANCH   1  14
BRANCH   3  24
HETATM   24  C9  UNL     1      35.283  41.812  -5.854  1.00  0.00     0.230 C 
HETATM   25  O3  UNL     1      34.420  42.770  -5.875  1.00  0.00    -0.273 OA
HETATM   26  N2  UNL     1      36.176  41.799  -4.765  1.00  0.00    -0.351 N 
HETATM   27  C10 UNL     1      37.155  40.760  -4.632  1.00  0.00     0.130 C 
HETATM   28  C16 UNL     1      36.118  42.832  -3.763  1.00  0.00     0.130 C 
HETATM   29  C11 UNL     1      37.312  40.465  -3.153  1.00  0.00    -0.000 C 
HETATM   30  C12 UNL     1      38.197  39.275  -2.898  1.00  0.00     0.011 C 
HETATM   31  C13 UNL     1      37.936  41.668  -2.484  1.00  0.00     0.011 C 
HETATM   32  C14 UNL     1      37.410  42.969  -2.998  1.00  0.00    -0.000 C 
HETATM   33  C15 UNL     1      37.123  43.857  -1.785  1.00  0.00     0.011 C 
ENDBRANCH   3  24
TORSDOF 8
ENDMDL
MODEL 3
REMARK VINA RESULT: -7.091451446      3.141      9.052
REMARK  8 active torsions:
REMARK  status: ('A' for Active; 'I' for Inactive)
REMARK    1  A    between atoms: C2_2  and  O1_3 
REMARK    2  A    between atoms: O1_3  and  C3_4 
REMARK    3  A    between atoms: C3_4  and  C4_5 
REMARK    4  A    between atoms: C4_5  and  O2_6 
REMARK    5  A    between atoms: C4_5  and  C5_8 
REMARK    6  A    between atoms: C5_8  and  N1_9 
REMARK    7  A    between atoms: N1_9  and  C6_11 
REMARK    8  A    between atoms: C8_13  and  C9_14 
REMARK       I    between atoms: C9_14  and  N2_16 
ROOT
HETATM    1  C6  UNL     1      39.141  38.922  -3.308  1.00  0.00     0.117 C 
HETATM    2  C7  UNL     1      38.079  37.958  -3.886  1.00  0.00     0.050 C 
HETATM    3  C8  UNL     1      38.566  37.898  -5.319  1.00  0.00     0.130 C 
HETATM    4  C17 UNL     1      40.018  37.741  -5.171  1.00  0.00     0.031 A 
HETATM    5  N3  UNL     1      41.116  37.234  -5.750  1.00  0.00    -0.361 N 
ATOM      6  H3  UNL     1      41.159  36.727  -6.635  1.00  0.00     0.165 HD
HETATM    7  C18 UNL     1      42.149  37.523  -4.943  1.00  0.00     0.016 A 
HETATM    8  C19 UNL     1      41.732  38.208  -3.853  1.00  0.00    -0.025 A 
HETATM    9  C20 UNL     1      40.377  38.362  -3.967  1.00  0.00    -0.004 A 
HETATM   10  C21 UNL     1      42.609  38.687  -2.755  1.00  0.00     0.041 C 
HETATM   11  C22 UNL     1      44.068  38.684  -3.092  1.00  0.00     0.005 C 
HETATM   12  C23 UNL     1      44.333  38.450  -4.559  1.00  0.00     0.006 C 
HETATM   13  C24 UNL     1      43.619  37.216  -5.065  1.00  0.00     0.057 C 
ENDROOT
BRANCH   1  14
HETATM   14  N1  UNL     1      38.868  40.194  -3.822  1.00  0.00    -0.391 N 
ATOM     15  H1  UNL     1      39.189  40.439  -4.758  1.00  0.00     0.159 HD
BRANCH  14  16
HETATM   16  C5  UNL     1      38.158  41.136  -3.065  1.00  0.00     0.089 C 
BRANCH  16  17
HETATM   17  C4  UNL     1      37.358  42.166  -3.788  1.00  0.00     0.179 C 
BRANCH  17  18
HETATM   18  C3  UNL     1      36.727  43.186  -2.905  1.00  0.00     0.204 C 
BRANCH  18  19
HETATM   19  O1  UNL     1      37.621  44.124  -2.478  1.00  0.00    -0.389 OA
BRANCH  19  20
HETATM   20  C2  UNL     1      37.370  44.664  -1.230  1.00  0.00     0.163 C 
HETATM   21  C1  UNL     1      37.809  43.653  -0.162  1.00  0.00     0.033 C 
ENDBRANCH  19  20
ENDBRANCH  18  19
ENDBRANCH  17  18
BRANCH  17  22
HETATM   22  O2  UNL     1      38.132  42.802  -4.793  1.00  0.00    -0.388 OA
ATOM     23  H2  UNL     1      38.184  42.249  -5.564  1.00  0.00     0.210 HD
ENDBRANCH  17  22
ENDBRANCH  16  17
ENDBRANCH  14  16
ENDBRANCH   1  14
BRANCH   3  24
HETATM   24  C9  UNL     1      37.879  36.845  -6.079  1.00  0.00     0.230 C 
HETATM   25  O3  UNL     1      38.334  35.643  -5.970  1.00  0.00    -0.273 OA
HETATM   26  N2  UNL     1      36.763  37.017  -6.921  1.00  0.00    -0.351 N 
HETATM   27  C10 UNL     1      36.163  38.309  -7.087  1.00  0.00     0.130 C 
HETATM   28  C16 UNL     1      36.204  35.895  -7.629  1.00  0.00     0.130 C 
HETATM   29  C11 UNL     1      34.667  38.104  -7.231  1.00  0.00    -0.000 C 
HETATM   30  C12 UNL     1      33.912  39.405  -7.249  1.00  0.00     0.011 C 
HETATM   31  C13 UNL     1      34.402  37.387  -8.535  1.00  0.00     0.011 C 
HETATM   32  C14 UNL     1      35.398  36.314  -8.832  1.00  0.00    -0.000 C 
HETATM   33  C15 UNL     1      34.617  35.083  -9.301  1.00  0.00     0.011 C 
ENDBRANCH   3  24
TORSDOF 8
ENDMDL
MODEL 4
REMARK VINA RESULT: -7.090779158      1.191      1.849
REMARK  8 active torsions:
REMARK  status: ('A' for Active; 'I' for Inactive)
REMARK    1  A    between atoms: C2_2  and  O1_3 
REMARK    2  A    between atoms: O1_3  and  C3_4 
REMARK    3  A    between atoms: C3_4  and  C4_5 
REMARK    4  A    between atoms: C4_5  and  O2_6 
REMARK    5  A    between atoms: C4_5  and  C5_8 
REMARK    6  A    between atoms: C5_8  and  N1_9 
REMARK    7  A    between atoms: N1_9  and  C6_11 
REMARK    8  A    between atoms: C8_13  and  C9_14 
REMARK       I    between atoms: C9_14  and  N2_16 
ROOT
HETATM    1  C6  UNL     1      34.382  38.905  -8.185  1.00  0.00     0.117 C 
HETATM    2  C7  UNL     1      34.494  39.516  -6.769  1.00  0.00     0.050 C 
HETATM    3  C8  UNL     1      35.180  40.818  -7.124  1.00  0.00     0.130 C 
HETATM    4  C17 UNL     1      34.438  41.275  -8.305  1.00  0.00     0.031 A 
HETATM    5  N3  UNL     1      34.054  42.363  -8.987  1.00  0.00    -0.361 N 
ATOM      6  H3  UNL     1      34.256  43.335  -8.748  1.00  0.00     0.165 HD
HETATM    7  C18 UNL     1      33.351  41.929 -10.046  1.00  0.00     0.016 A 
HETATM    8  C19 UNL     1      33.278  40.578 -10.055  1.00  0.00    -0.025 A 
HETATM    9  C20 UNL     1      33.961  40.130  -8.957  1.00  0.00    -0.004 A 
HETATM   10  C21 UNL     1      32.579  39.765 -11.081  1.00  0.00     0.041 C 
HETATM   11  C22 UNL     1      32.246  40.516 -12.334  1.00  0.00     0.005 C 
HETATM   12  C23 UNL     1      32.920  41.864 -12.409  1.00  0.00     0.006 C 
HETATM   13  C24 UNL     1      32.672  42.682 -11.161  1.00  0.00     0.057 C 
ENDROOT
BRANCH   1  14
HETATM   14  N1  UNL     1      35.672  38.523  -8.572  1.00  0.00    -0.391 N 
ATOM     15  H1  UNL     1      36.462  38.723  -7.958  1.00  0.00     0.159 HD
BRANCH  14  16
HETATM   16  C5  UNL     1      35.891  37.871  -9.793  1.00  0.00     0.089 C 
BRANCH  16  17
HETATM   17  C4  UNL     1      37.188  37.165  -9.994  1.00  0.00     0.179 C 
BRANCH  17  18
HETATM   18  C3  UNL     1      37.055  35.742 -10.415  1.00  0.00     0.204 C 
BRANCH  18  19
HETATM   19  O1  UNL     1      38.209  35.250 -10.948  1.00  0.00    -0.389 OA
BRANCH  19  20
HETATM   20  C2  UNL     1      38.188  33.911 -11.289  1.00  0.00     0.163 C 
HETATM   21  C1  UNL     1      38.245  33.795 -12.818  1.00  0.00     0.033 C 
ENDBRANCH  19  20
ENDBRANCH  18  19
ENDBRANCH  17  18
BRANCH  17  22
HETATM   22  O2  UNL     1      38.019  37.868 -10.905  1.00  0.00    -0.388 OA
ATOM     23  H2  UNL     1      37.676  38.742 -11.052  1.00  0.00     0.210 HD
ENDBRANCH  17  22
ENDBRANCH  16  17
ENDBRANCH  14  16
ENDBRANCH   1  14
BRANCH   3  24
HETATM   24  C9  UNL     1      35.207  41.744  -5.984  1.00  0.00     0.230 C 
HETATM   25  O3  UNL     1      34.313  42.673  -5.954  1.00  0.00    -0.273 OA
HETATM   26  N2  UNL     1      36.116  41.718  -4.908  1.00  0.00    -0.351 N 
HETATM   27  C10 UNL     1      37.130  40.706  -4.831  1.00  0.00     0.130 C 
HETATM   28  C16 UNL     1      36.041  42.708  -3.866  1.00  0.00     0.130 C 
HETATM   29  C11 UNL     1      37.320  40.358  -3.367  1.00  0.00    -0.000 C 
HETATM   30  C12 UNL     1      38.246  39.189  -3.173  1.00  0.00     0.011 C 
HETATM   31  C13 UNL     1      37.916  41.554  -2.660  1.00  0.00     0.011 C 
HETATM   32  C14 UNL     1      37.341  42.856  -3.115  1.00  0.00    -0.000 C 
HETATM   33  C15 UNL     1      37.044  43.687  -1.863  1.00  0.00     0.011 C 
ENDBRANCH   3  24
TORSDOF 8
ENDMDL
MODEL 5
REMARK VINA RESULT: -7.044789986      1.518      2.336
REMARK  8 active torsions:
REMARK  status: ('A' for Active; 'I' for Inactive)
REMARK    1  A    between atoms: C2_2  and  O1_3 
REMARK    2  A    between atoms: O1_3  and  C3_4 
REMARK    3  A    between atoms: C3_4  and  C4_5 
REMARK    4  A    between atoms: C4_5  and  O2_6 
REMARK    5  A    between atoms: C4_5  and  C5_8 
REMARK    6  A    between atoms: C5_8  and  N1_9 
REMARK    7  A    between atoms: N1_9  and  C6_11 
REMARK    8  A    between atoms: C8_13  and  C9_14 
REMARK       I    between atoms: C9_14  and  N2_16 
ROOT
HETATM    1  C6  UNL     1      34.247  39.046  -7.853  1.00  0.00     0.117 C 
HETATM    2  C7  UNL     1      34.448  39.724  -6.478  1.00  0.00     0.050 C 
HETATM    3  C8  UNL     1      35.228  40.943  -6.923  1.00  0.00     0.130 C 
HETATM    4  C17 UNL     1      34.494  41.393  -8.111  1.00  0.00     0.031 A 
HETATM    5  N3  UNL     1      34.181  42.470  -8.847  1.00  0.00    -0.361 N 
ATOM      6  H3  UNL     1      34.468  43.433  -8.668  1.00  0.00     0.165 HD
HETATM    7  C18 UNL     1      33.416  42.038  -9.862  1.00  0.00     0.016 A 
HETATM    8  C19 UNL     1      33.233  40.699  -9.791  1.00  0.00    -0.025 A 
HETATM    9  C20 UNL     1      33.907  40.257  -8.685  1.00  0.00    -0.004 A 
HETATM   10  C21 UNL     1      32.441  39.890 -10.753  1.00  0.00     0.041 C 
HETATM   11  C22 UNL     1      32.137  40.595 -12.039  1.00  0.00     0.005 C 
HETATM   12  C23 UNL     1      32.916  41.877 -12.207  1.00  0.00     0.006 C 
HETATM   13  C24 UNL     1      32.770  42.780 -11.003  1.00  0.00     0.057 C 
ENDROOT
BRANCH   1  14
HETATM   14  N1  UNL     1      35.490  38.538  -8.247  1.00  0.00    -0.391 N 
ATOM     15  H1  UNL     1      36.205  39.173  -8.603  1.00  0.00     0.159 HD
BRANCH  14  16
HETATM   16  C5  UNL     1      35.765  37.167  -8.158  1.00  0.00     0.089 C 
BRANCH  16  17
HETATM   17  C4  UNL     1      34.686  36.260  -7.674  1.00  0.00     0.179 C 
BRANCH  17  18
HETATM   18  C3  UNL     1      33.997  35.494  -8.750  1.00  0.00     0.204 C 
BRANCH  18  19
HETATM   19  O1  UNL     1      32.803  36.052  -9.098  1.00  0.00    -0.389 OA
BRANCH  19  20
HETATM   20  C2  UNL     1      31.853  36.107  -8.095  1.00  0.00     0.163 C 
HETATM   21  C1  UNL     1      30.976  37.347  -8.320  1.00  0.00     0.033 C 
ENDBRANCH  19  20
ENDBRANCH  18  19
ENDBRANCH  17  18
BRANCH  17  22
HETATM   22  O2  UNL     1      35.170  35.373  -6.677  1.00  0.00    -0.388 OA
ATOM     23  H2  UNL     1      35.239  35.825  -5.844  1.00  0.00     0.210 HD
ENDBRANCH  17  22
ENDBRANCH  16  17
ENDBRANCH  14  16
ENDBRANCH   1  14
BRANCH   3  24
HETATM   24  C9  UNL     1      35.361  41.925  -5.839  1.00  0.00     0.230 C 
HETATM   25  O3  UNL     1      34.592  42.959  -5.879  1.00  0.00    -0.273 OA
HETATM   26  N2  UNL     1      36.251  41.850  -4.750  1.00  0.00    -0.351 N 
HETATM   27  C10 UNL     1      37.129  40.726  -4.596  1.00  0.00     0.130 C 
HETATM   28  C16 UNL     1      36.293  42.903  -3.768  1.00  0.00     0.130 C 
HETATM   29  C11 UNL     1      37.260  40.446  -3.112  1.00  0.00    -0.000 C 
HETATM   30  C12 UNL     1      38.029  39.185  -2.834  1.00  0.00     0.011 C 
HETATM   31  C13 UNL     1      37.996  41.598  -2.467  1.00  0.00     0.011 C 
HETATM   32  C14 UNL     1      37.594  42.933  -3.007  1.00  0.00    -0.000 C 
HETATM   33  C15 UNL     1      37.394  43.868  -1.812  1.00  0.00     0.011 C 
ENDBRANCH   3  24
TORSDOF 8
ENDMDL
