MODEL 1
REMARK VINA RESULT: -4.747553430      0.000      0.000
REMARK  1 active torsions:
REMARK  status: ('A' for Active; 'I' for Inactive)
REMARK    1  A    between atoms: C2_2  and  C3_4 
REMARK       I    between atoms: C3_4  and  N1_6 
ROOT
HETATM    1  C3  UNL     1      72.823  45.119  25.438  1.00  0.00     0.293 C 
HETATM    2  O2  UNL     1      71.733  44.874  24.869  1.00  0.00    -0.264 OA
HETATM    3  N1  UNL     1      73.152  46.366  26.000  1.00  0.00    -0.297 N 
ATOM      4  H1  UNL     1      73.740  46.991  25.447  1.00  0.00     0.171 HD
HETATM    5  C4  UNL     1      72.769  46.780  27.157  1.00  0.00     0.203 C 
HETATM    6  N2  UNL     1      73.197  48.069  27.562  1.00  0.00    -0.066 NA
HETATM    7  N3  UNL     1      71.951  46.020  28.030  1.00  0.00    -0.066 NA
ENDROOT
BRANCH   1   8
HETATM    8  C2  UNL     1      73.805  44.042  25.521  1.00  0.00     0.212 C 
HETATM    9  C1  UNL     1      73.697  42.812  24.673  1.00  0.00     0.102 C 
HETATM   10  O1  UNL     1      74.792  44.083  26.302  1.00  0.00    -0.288 OA
ENDBRANCH   1   8
TORSDOF 1
ENDMDL
MODEL 2
REMARK VINA RESULT: -4.042927080      0.966      1.039
REMARK  1 active torsions:
REMARK  status: ('A' for Active; 'I' for Inactive)
REMARK    1  A    between atoms: C2_2  and  C3_4 
REMARK       I    between atoms: C3_4  and  N1_6 
ROOT
HETATM    1  C3  UNL     1      72.649  45.234  25.265  1.00  0.00     0.293 C 
HETATM    2  O2  UNL     1      71.556  45.223  24.651  1.00  0.00    -0.264 OA
HETATM    3  N1  UNL     1      73.169  46.364  25.922  1.00  0.00    -0.297 N 
ATOM      4  H1  UNL     1      73.878  46.909  25.431  1.00  0.00     0.171 HD
HETATM    5  C4  UNL     1      72.820  46.763  27.095  1.00  0.00     0.203 C 
HETATM    6  N2  UNL     1      73.451  47.927  27.601  1.00  0.00    -0.066 NA
HETATM    7  N3  UNL     1      71.849  46.105  27.890  1.00  0.00    -0.066 NA
ENDROOT
BRANCH   1   8
HETATM    8  C2  UNL     1      73.423  43.997  25.298  1.00  0.00     0.212 C 
HETATM    9  C1  UNL     1      74.919  44.001  25.204  1.00  0.00     0.102 C 
HETATM   10  O1  UNL     1      72.886  42.863  25.406  1.00  0.00    -0.288 OA
ENDBRANCH   1   8
TORSDOF 1
ENDMDL
MODEL 3
REMARK VINA RESULT: -3.683692373     10.563     11.257
REMARK  1 active torsions:
REMARK  status: ('A' for Active; 'I' for Inactive)
REMARK    1  A    between atoms: C2_2  and  C3_4 
REMARK       I    between atoms: C3_4  and  N1_6 
ROOT
HETATM    1  C3  UNL     1      80.570  36.889  26.047  1.00  0.00     0.293 C 
HETATM    2  O2  UNL     1      80.002  35.771  26.054  1.00  0.00    -0.264 OA
HETATM    3  N1  UNL     1      81.281  37.402  24.947  1.00  0.00    -0.297 N 
ATOM      4  H1  UNL     1      82.297  37.313  24.961  1.00  0.00     0.171 HD
HETATM    5  C4  UNL     1      80.748  37.973  23.925  1.00  0.00     0.203 C 
HETATM    6  N2  UNL     1      81.621  38.430  22.905  1.00  0.00    -0.066 NA
HETATM    7  N3  UNL     1      79.352  38.163  23.771  1.00  0.00    -0.066 NA
ENDROOT
BRANCH   1   8
HETATM    8  C2  UNL     1      80.485  37.702  27.256  1.00  0.00     0.212 C 
HETATM    9  C1  UNL     1      81.232  38.995  27.390  1.00  0.00     0.102 C 
HETATM   10  O1  UNL     1      79.786  37.370  28.250  1.00  0.00    -0.288 OA
ENDBRANCH   1   8
TORSDOF 1
ENDMDL
MODEL 4
REMARK VINA RESULT: -3.616985601     10.470     11.139
REMARK  1 active torsions:
REMARK  status: ('A' for Active; 'I' for Inactive)
REMARK    1  A    between atoms: C2_2  and  C3_4 
REMARK       I    between atoms: C3_4  and  N1_6 
ROOT
HETATM    1  C3  UNL     1      80.667  36.674  25.302  1.00  0.00     0.293 C 
HETATM    2  O2  UNL     1      81.809  36.295  24.949  1.00  0.00    -0.264 OA
HETATM    3  N1  UNL     1      80.223  36.685  26.637  1.00  0.00    -0.297 N 
ATOM      4  H1  UNL     1      79.641  35.906  26.946  1.00  0.00     0.171 HD
HETATM    5  C4  UNL     1      80.493  37.603  27.498  1.00  0.00     0.203 C 
HETATM    6  N2  UNL     1      79.959  37.450  28.802  1.00  0.00    -0.066 NA
HETATM    7  N3  UNL     1      81.289  38.739  27.208  1.00  0.00    -0.066 NA
ENDROOT
BRANCH   1   8
HETATM    8  C2  UNL     1      79.749  37.128  24.263  1.00  0.00     0.212 C 
HETATM    9  C1  UNL     1      79.279  36.214  23.172  1.00  0.00     0.102 C 
HETATM   10  O1  UNL     1      79.301  38.305  24.221  1.00  0.00    -0.288 OA
ENDBRANCH   1   8
TORSDOF 1
ENDMDL
MODEL 5
REMARK VINA RESULT: -3.540546218     10.468     11.187
REMARK  1 active torsions:
REMARK  status: ('A' for Active; 'I' for Inactive)
REMARK    1  A    between atoms: C2_2  and  C3_4 
REMARK       I    between atoms: C3_4  and  N1_6 
ROOT
HETATM    1  C3  UNL     1      80.779  37.551  25.358  1.00  0.00     0.293 C 
HETATM    2  O2  UNL     1      80.539  38.570  24.668  1.00  0.00    -0.264 OA
HETATM    3  N1  UNL     1      81.465  37.578  26.586  1.00  0.00    -0.297 N 
ATOM      4  H1  UNL     1      82.455  37.336  26.577  1.00  0.00     0.171 HD
HETATM    5  C4  UNL     1      80.937  37.884  27.719  1.00  0.00     0.203 C 
HETATM    6  N2  UNL     1      81.781  37.859  28.858  1.00  0.00    -0.066 NA
HETATM    7  N3  UNL     1      79.575  38.241  27.879  1.00  0.00    -0.066 NA
ENDROOT
BRANCH   1   8
HETATM    8  C2  UNL     1      80.318  36.262  24.851  1.00  0.00     0.212 C 
HETATM    9  C1  UNL     1      79.932  36.073  23.415  1.00  0.00     0.102 C 
HETATM   10  O1  UNL     1      80.217  35.242  25.582  1.00  0.00    -0.288 OA
ENDBRANCH   1   8
TORSDOF 1
ENDMDL
