MODEL 1
REMARK VINA RESULT: -4.606978057      0.000      0.000
REMARK  2 active torsions:
REMARK  status: ('A' for Active; 'I' for Inactive)
REMARK    1  A    between atoms: C1_2  and  C2_4 
REMARK    2  A    between atoms: C4_6  and  C5_7 
ROOT
HETATM    1  C2  UNL     1      69.073  43.483  18.864  1.00  0.00     0.086 A 
HETATM    2  C3  UNL     1      68.454  44.629  19.561  1.00  0.00     0.026 A 
HETATM    3  C4  UNL     1      68.231  44.368  18.052  1.00  0.00     0.060 A 
ENDROOT
BRANCH   1   4
HETATM    4  C1  UNL     1      68.722  42.108  19.242  1.00  0.00     0.236 C 
HETATM    5  N1  UNL     1      69.133  40.937  18.539  1.00  0.00    -0.062 NA
HETATM    6  O1  UNL     1      67.998  41.843  20.266  1.00  0.00    -0.276 OA
ENDBRANCH   1   4
BRANCH   3   7
HETATM    7  C5  UNL     1      66.827  44.141  17.727  1.00  0.00     0.236 C 
HETATM    8  O2  UNL     1      66.057  45.087  17.712  1.00  0.00    -0.306 OA
ENDBRANCH   3   7
TORSDOF 2
ENDMDL
MODEL 2
REMARK VINA RESULT: -4.430900571      8.939      9.614
REMARK  2 active torsions:
REMARK  status: ('A' for Active; 'I' for Inactive)
REMARK    1  A    between atoms: C1_2  and  C2_4 
REMARK    2  A    between atoms: C4_6  and  C5_7 
ROOT
HETATM    1  C2  UNL     1      72.461  45.001  25.259  1.00  0.00     0.086 A 
HETATM    2  C3  UNL     1      72.222  43.674  25.862  1.00  0.00     0.026 A 
HETATM    3  C4  UNL     1      73.406  43.937  24.901  1.00  0.00     0.060 A 
ENDROOT
BRANCH   1   4
HETATM    4  C1  UNL     1      72.782  46.155  26.109  1.00  0.00     0.236 C 
HETATM    5  N1  UNL     1      72.666  46.180  27.530  1.00  0.00    -0.062 NA
HETATM    6  O1  UNL     1      73.205  47.265  25.626  1.00  0.00    -0.276 OA
ENDBRANCH   1   4
BRANCH   3   7
HETATM    7  C5  UNL     1      74.699  43.703  25.533  1.00  0.00     0.236 C 
HETATM    8  O2  UNL     1      75.485  42.926  25.016  1.00  0.00    -0.306 OA
ENDBRANCH   3   7
TORSDOF 2
ENDMDL
MODEL 3
REMARK VINA RESULT: -4.249790288      9.230      9.884
REMARK  2 active torsions:
REMARK  status: ('A' for Active; 'I' for Inactive)
REMARK    1  A    between atoms: C1_2  and  C2_4 
REMARK    2  A    between atoms: C4_6  and  C5_7 
ROOT
HETATM    1  C2  UNL     1      72.581  45.454  25.529  1.00  0.00     0.086 A 
HETATM    2  C3  UNL     1      72.168  44.037  25.585  1.00  0.00     0.026 A 
HETATM    3  C4  UNL     1      73.582  44.462  25.120  1.00  0.00     0.060 A 
ENDROOT
BRANCH   1   4
HETATM    4  C1  UNL     1      72.650  46.256  26.758  1.00  0.00     0.236 C 
HETATM    5  N1  UNL     1      72.906  47.658  26.806  1.00  0.00    -0.062 NA
HETATM    6  O1  UNL     1      72.478  45.743  27.920  1.00  0.00    -0.276 OA
ENDBRANCH   1   4
BRANCH   3   7
HETATM    7  C5  UNL     1      74.635  43.919  25.971  1.00  0.00     0.236 C 
HETATM    8  O2  UNL     1      75.408  43.095  25.511  1.00  0.00    -0.306 OA
ENDBRANCH   3   7
TORSDOF 2
ENDMDL
MODEL 4
REMARK VINA RESULT: -4.054246581      8.547      9.249
REMARK  2 active torsions:
REMARK  status: ('A' for Active; 'I' for Inactive)
REMARK    1  A    between atoms: C1_2  and  C2_4 
REMARK    2  A    between atoms: C4_6  and  C5_7 
ROOT
HETATM    1  C2  UNL     1      72.973  43.604  25.363  1.00  0.00     0.086 A 
HETATM    2  C3  UNL     1      72.383  44.731  24.614  1.00  0.00     0.026 A 
HETATM    3  C4  UNL     1      72.274  44.623  26.154  1.00  0.00     0.060 A 
ENDROOT
BRANCH   1   4
HETATM    4  C1  UNL     1      74.426  43.394  25.364  1.00  0.00     0.236 C 
HETATM    5  N1  UNL     1      75.153  42.707  24.347  1.00  0.00    -0.062 NA
HETATM    6  O1  UNL     1      75.180  43.825  26.307  1.00  0.00    -0.276 OA
ENDBRANCH   1   4
BRANCH   3   7
HETATM    7  C5  UNL     1      72.906  45.747  26.837  1.00  0.00     0.236 C 
HETATM    8  O2  UNL     1      72.403  46.183  27.860  1.00  0.00    -0.306 OA
ENDBRANCH   3   7
TORSDOF 2
ENDMDL
MODEL 5
REMARK VINA RESULT: -3.793558929      2.215      3.522
REMARK  2 active torsions:
REMARK  status: ('A' for Active; 'I' for Inactive)
REMARK    1  A    between atoms: C1_2  and  C2_4 
REMARK    2  A    between atoms: C4_6  and  C5_7 
ROOT
HETATM    1  C2  UNL     1      68.240  44.187  19.215  1.00  0.00     0.086 A 
HETATM    2  C3  UNL     1      69.594  43.785  18.783  1.00  0.00     0.026 A 
HETATM    3  C4  UNL     1      68.654  42.818  19.541  1.00  0.00     0.060 A 
ENDROOT
BRANCH   1   4
HETATM    4  C1  UNL     1      67.219  44.538  18.220  1.00  0.00     0.236 C 
HETATM    5  N1  UNL     1      66.990  45.851  17.712  1.00  0.00    -0.062 NA
HETATM    6  O1  UNL     1      66.428  43.665  17.713  1.00  0.00    -0.276 OA
ENDBRANCH   1   4
BRANCH   3   7
HETATM    7  C5  UNL     1      68.335  41.626  18.762  1.00  0.00     0.236 C 
HETATM    8  O2  UNL     1      69.088  40.667  18.803  1.00  0.00    -0.306 OA
ENDBRANCH   3   7
TORSDOF 2
ENDMDL
