MODEL 1
REMARK VINA RESULT: -6.971949804      0.000      0.000
REMARK  15 active torsions:
REMARK  status: ('A' for Active; 'I' for Inactive)
REMARK    1  A    between atoms: S1_2  and  C2_3 
REMARK    2  A    between atoms: C2_3  and  C3_4 
REMARK    3  A    between atoms: C3_4  and  C4_5 
REMARK    4  A    between atoms: C4_5  and  N1_6 
REMARK    5  A    between atoms: C4_5  and  C5_10 
REMARK    6  A    between atoms: C5_10  and  C6_11 
REMARK    7  A    between atoms: C7_12  and  O1_13 
REMARK    8  A    between atoms: C9_21  and  N4_22 
REMARK    9  A    between atoms: N4_22  and  S2_23 
REMARK   10  A    between atoms: S2_23  and  N5_25 
REMARK   11  A    between atoms: S2_23  and  N6_32 
REMARK   12  A    between atoms: N5_25  and  C10_27 
REMARK   13  A    between atoms: N6_32  and  C14_34 
REMARK   14  A    between atoms: C14_34  and  C15_35 
REMARK   15  A    between atoms: C15_35  and  N7_36 
ROOT
HETATM    1  C6  UNL     1       0.804 -15.611  11.726  1.00  0.00     0.054 A 
HETATM    2  C7  UNL     1       0.417 -16.782  12.329  1.00  0.00     0.155 A 
HETATM    3  N2  UNL     1      -0.245 -16.708  13.486  1.00  0.00    -0.288 N 
ATOM      4  H2  UNL     1      -0.540 -17.569  13.946  1.00  0.00     0.172 HD
HETATM    5  C8  UNL     1      -0.534 -15.527  14.058  1.00  0.00     0.328 A 
HETATM    6  O2  UNL     1      -1.176 -15.501  15.175  1.00  0.00    -0.247 OA
HETATM    7  N3  UNL     1      -0.153 -14.405  13.466  1.00  0.00    -0.282 N 
ATOM      8  H3  UNL     1      -0.384 -13.523  13.924  1.00  0.00     0.173 HD
HETATM    9  C9  UNL     1       0.542 -14.348  12.261  1.00  0.00     0.208 A 
ENDROOT
BRANCH   9  10
HETATM   10  N4  UNL     1       0.885 -13.327  11.800  1.00  0.00    -0.303 NA
BRANCH  10  11
HETATM   11  S2  UNL     1       1.547 -11.917  11.489  1.00  0.00     0.264 S 
HETATM   12  O3  UNL     1       2.573 -12.009  10.319  1.00  0.00    -0.192 OA
BRANCH  11  13
HETATM   13  N5  UNL     1       2.349 -11.213  12.639  1.00  0.00    -0.282 N 
ATOM     14  H5  UNL     1       2.215 -10.216  12.811  1.00  0.00     0.175 HD
BRANCH  13  15
HETATM   15  C10 UNL     1       3.257 -11.950  13.443  1.00  0.00     0.231 C 
HETATM   16  C11 UNL     1       2.499 -12.428  14.673  1.00  0.00     0.056 C 
HETATM   17  C12 UNL     1       3.341 -13.621  15.068  1.00  0.00     0.031 C 
HETATM   18  C13 UNL     1       3.959 -14.044  13.781  1.00  0.00     0.170 C 
HETATM   19  O4  UNL     1       3.730 -13.095  12.820  1.00  0.00    -0.366 OA
ENDBRANCH  13  15
ENDBRANCH  11  13
BRANCH  11  20
HETATM   20  N6  UNL     1       0.440 -10.682  10.878  1.00  0.00    -0.308 N 
ATOM     21  H6  UNL     1      -0.522 -10.532  11.182  1.00  0.00     0.173 HD
BRANCH  20  22
HETATM   22  C14 UNL     1       1.139  -9.930   9.876  1.00  0.00     0.154 C 
BRANCH  22  23
HETATM   23  C15 UNL     1       1.647  -8.603  10.416  1.00  0.00     0.168 C 
BRANCH  23  24
HETATM   24  N7  UNL     1       1.588  -7.658   9.323  1.00  0.00    -0.301 N 
HETATM   25  C16 UNL     1       1.678  -7.952   8.016  1.00  0.00     0.130 A 
HETATM   26  C17 UNL     1       1.581  -6.801   7.274  1.00  0.00     0.044 A 
HETATM   27 BR1  UNL     1       1.641  -6.601   5.389  1.00  0.00    -0.048 Br
HETATM   28  C18 UNL     1       1.428  -5.779   8.180  1.00  0.00     0.127 A 
HETATM   29  N8  UNL     1       1.439  -6.356   9.398  1.00  0.00    -0.309 N 
ATOM     30  H8  UNL     1       1.343  -5.841  10.275  1.00  0.00     0.186 HD
ENDBRANCH  23  24
ENDBRANCH  22  23
ENDBRANCH  20  22
ENDBRANCH  11  20
ENDBRANCH  10  11
ENDBRANCH   9  10
BRANCH   1  31
HETATM   31  C5  UNL     1       1.517 -15.710  10.450  1.00  0.00     0.081 C 
BRANCH  31  32
HETATM   32  C4  UNL     1       3.010 -15.751  10.712  1.00  0.00     0.188 C 
BRANCH  32  33
HETATM   33  C3  UNL     1       3.784 -15.106   9.575  1.00  0.00     0.043 C 
BRANCH  33  34
HETATM   34  C2  UNL     1       5.180 -14.781  10.070  1.00  0.00     0.075 C 
BRANCH  34  35
HETATM   35  S1  UNL     1       6.030 -13.667   8.896  1.00  0.00    -0.173 SA
HETATM   36  C1  UNL     1       6.012 -12.000   9.597  1.00  0.00     0.089 C 
ENDBRANCH  34  35
ENDBRANCH  33  34
ENDBRANCH  32  33
BRANCH  32  37
HETATM   37  N1  UNL     1       3.540 -17.047  10.961  1.00  0.00    -0.075 N 
ATOM     38  H13 UNL     1       3.414 -17.676  10.168  1.00  0.00     0.274 HD
ATOM     39  H12 UNL     1       4.559 -17.051  10.987  1.00  0.00     0.274 HD
ATOM     40  H11 UNL     1       3.130 -17.418  11.818  1.00  0.00     0.274 HD
ENDBRANCH  32  37
ENDBRANCH  31  32
ENDBRANCH   1  31
BRANCH   2  41
HETATM   41  O1  UNL     1       0.700 -18.012  11.767  1.00  0.00    -0.345 OA
ATOM     42  H1  UNL     1       0.287 -18.298  10.961  1.00  0.00     0.219 HD
ENDBRANCH   2  41
TORSDOF 15
ENDMDL
MODEL 2
REMARK VINA RESULT: -6.853504408      2.597      5.110
REMARK  15 active torsions:
REMARK  status: ('A' for Active; 'I' for Inactive)
REMARK    1  A    between atoms: S1_2  and  C2_3 
REMARK    2  A    between atoms: C2_3  and  C3_4 
REMARK    3  A    between atoms: C3_4  and  C4_5 
REMARK    4  A    between atoms: C4_5  and  N1_6 
REMARK    5  A    between atoms: C4_5  and  C5_10 
REMARK    6  A    between atoms: C5_10  and  C6_11 
REMARK    7  A    between atoms: C7_12  and  O1_13 
REMARK    8  A    between atoms: C9_21  and  N4_22 
REMARK    9  A    between atoms: N4_22  and  S2_23 
REMARK   10  A    between atoms: S2_23  and  N5_25 
REMARK   11  A    between atoms: S2_23  and  N6_32 
REMARK   12  A    between atoms: N5_25  and  C10_27 
REMARK   13  A    between atoms: N6_32  and  C14_34 
REMARK   14  A    between atoms: C14_34  and  C15_35 
REMARK   15  A    between atoms: C15_35  and  N7_36 
ROOT
HETATM    1  C6  UNL     1       5.520 -13.271  11.961  1.00  0.00     0.054 A 
HETATM    2  C7  UNL     1       6.653 -13.950  11.593  1.00  0.00     0.155 A 
HETATM    3  N2  UNL     1       7.022 -13.915  10.310  1.00  0.00    -0.288 N 
ATOM      4  H2  UNL     1       7.862 -14.415  10.020  1.00  0.00     0.172 HD
HETATM    5  C8  UNL     1       6.313 -13.237   9.391  1.00  0.00     0.328 A 
HETATM    6  O2  UNL     1       6.704 -13.229   8.164  1.00  0.00    -0.247 OA
HETATM    7  N3  UNL     1       5.219 -12.587   9.761  1.00  0.00    -0.282 N 
ATOM      8  H3  UNL     1       4.700 -12.082   9.043  1.00  0.00     0.173 HD
HETATM    9  C9  UNL     1       4.731 -12.546  11.064  1.00  0.00     0.208 A 
ENDROOT
BRANCH   9  10
HETATM   10  N4  UNL     1       3.738 -11.983  11.328  1.00  0.00    -0.303 NA
BRANCH  10  11
HETATM   11  S2  UNL     1       2.259 -11.564  11.727  1.00  0.00     0.264 S 
HETATM   12  O3  UNL     1       2.092 -11.438  13.271  1.00  0.00    -0.192 OA
BRANCH  11  13
HETATM   13  N5  UNL     1       1.086 -12.514  11.296  1.00  0.00    -0.282 N 
ATOM     14  H5  UNL     1       0.404 -12.195  10.607  1.00  0.00     0.175 HD
BRANCH  13  15
HETATM   15  C10 UNL     1       0.966 -13.812  11.857  1.00  0.00     0.231 C 
HETATM   16  C11 UNL     1      -0.504 -14.202  11.803  1.00  0.00     0.056 C 
HETATM   17  C12 UNL     1      -0.390 -15.710  11.834  1.00  0.00     0.031 C 
HETATM   18  C13 UNL     1       0.956 -15.963  11.251  1.00  0.00     0.170 C 
HETATM   19  O4  UNL     1       1.642 -14.783  11.134  1.00  0.00    -0.366 OA
ENDBRANCH  13  15
ENDBRANCH  11  13
BRANCH  11  20
HETATM   20  N6  UNL     1       1.763  -9.953  11.196  1.00  0.00    -0.308 N 
ATOM     21  H6  UNL     1       1.560  -9.156  11.799  1.00  0.00     0.173 HD
BRANCH  20  22
HETATM   22  C14 UNL     1       1.696  -9.969   9.763  1.00  0.00     0.154 C 
BRANCH  22  23
HETATM   23  C15 UNL     1       2.662  -8.975   9.139  1.00  0.00     0.168 C 
BRANCH  23  24
HETATM   24  N7  UNL     1       1.879  -7.828   8.737  1.00  0.00    -0.301 N 
HETATM   25  C16 UNL     1       1.292  -7.649   7.543  1.00  0.00     0.130 A 
HETATM   26  C17 UNL     1       0.635  -6.444   7.524  1.00  0.00     0.044 A 
HETATM   27 BR1  UNL     1      -0.365  -5.663   6.114  1.00  0.00    -0.048 Br
HETATM   28  C18 UNL     1       0.841  -5.883   8.762  1.00  0.00     0.127 A 
HETATM   29  N8  UNL     1       1.596  -6.762   9.450  1.00  0.00    -0.309 N 
ATOM     30  H8  UNL     1       1.911  -6.617  10.409  1.00  0.00     0.186 HD
ENDBRANCH  23  24
ENDBRANCH  22  23
ENDBRANCH  20  22
ENDBRANCH  11  20
ENDBRANCH  10  11
ENDBRANCH   9  10
BRANCH   1  31
HETATM   31  C5  UNL     1       5.138 -13.307  13.376  1.00  0.00     0.081 C 
BRANCH  31  32
HETATM   32  C4  UNL     1       4.189 -14.468  13.608  1.00  0.00     0.188 C 
BRANCH  32  33
HETATM   33  C3  UNL     1       3.369 -14.260  14.869  1.00  0.00     0.043 C 
BRANCH  33  34
HETATM   34  C2  UNL     1       3.077 -15.617  15.480  1.00  0.00     0.075 C 
BRANCH  34  35
HETATM   35  S1  UNL     1       3.760 -15.717  17.172  1.00  0.00    -0.173 SA
HETATM   36  C1  UNL     1       5.156 -16.866  17.144  1.00  0.00     0.089 C 
ENDBRANCH  34  35
ENDBRANCH  33  34
ENDBRANCH  32  33
BRANCH  32  37
HETATM   37  N1  UNL     1       4.808 -15.747  13.659  1.00  0.00    -0.075 N 
ATOM     38  H13 UNL     1       5.694 -15.729  14.165  1.00  0.00     0.274 HD
ATOM     39  H12 UNL     1       4.309 -16.395  14.267  1.00  0.00     0.274 HD
ATOM     40  H11 UNL     1       4.911 -16.107  12.710  1.00  0.00     0.274 HD
ENDBRANCH  32  37
ENDBRANCH  31  32
ENDBRANCH   1  31
BRANCH   2  41
HETATM   41  O1  UNL     1       7.403 -14.658  12.512  1.00  0.00    -0.345 OA
ATOM     42  H1  UNL     1       8.100 -14.246  13.008  1.00  0.00     0.219 HD
ENDBRANCH   2  41
TORSDOF 15
ENDMDL
MODEL 3
REMARK VINA RESULT: -6.844773743      1.841      3.505
REMARK  15 active torsions:
REMARK  status: ('A' for Active; 'I' for Inactive)
REMARK    1  A    between atoms: S1_2  and  C2_3 
REMARK    2  A    between atoms: C2_3  and  C3_4 
REMARK    3  A    between atoms: C3_4  and  C4_5 
REMARK    4  A    between atoms: C4_5  and  N1_6 
REMARK    5  A    between atoms: C4_5  and  C5_10 
REMARK    6  A    between atoms: C5_10  and  C6_11 
REMARK    7  A    between atoms: C7_12  and  O1_13 
REMARK    8  A    between atoms: C9_21  and  N4_22 
REMARK    9  A    between atoms: N4_22  and  S2_23 
REMARK   10  A    between atoms: S2_23  and  N5_25 
REMARK   11  A    between atoms: S2_23  and  N6_32 
REMARK   12  A    between atoms: N5_25  and  C10_27 
REMARK   13  A    between atoms: N6_32  and  C14_34 
REMARK   14  A    between atoms: C14_34  and  C15_35 
REMARK   15  A    between atoms: C15_35  and  N7_36 
ROOT
HETATM    1  C6  UNL     1       0.645 -14.384  13.331  1.00  0.00     0.054 A 
HETATM    2  C7  UNL     1      -0.078 -15.392  13.918  1.00  0.00     0.155 A 
HETATM    3  N2  UNL     1      -0.440 -16.432  13.163  1.00  0.00    -0.288 N 
ATOM      4  H2  UNL     1      -0.978 -17.189  13.585  1.00  0.00     0.172 HD
HETATM    5  C8  UNL     1      -0.112 -16.506  11.862  1.00  0.00     0.328 A 
HETATM    6  O2  UNL     1      -0.480 -17.529  11.171  1.00  0.00    -0.247 OA
HETATM    7  N3  UNL     1       0.586 -15.525  11.308  1.00  0.00    -0.282 N 
ATOM      8  H3  UNL     1       0.819 -15.608  10.319  1.00  0.00     0.173 HD
HETATM    9  C9  UNL     1       1.021 -14.390  11.986  1.00  0.00     0.208 A 
ENDROOT
BRANCH   9  10
HETATM   10  N4  UNL     1       1.605 -13.536  11.437  1.00  0.00    -0.303 NA
BRANCH  10  11
HETATM   11  S2  UNL     1       2.506 -12.656  10.468  1.00  0.00     0.264 S 
HETATM   12  O3  UNL     1       2.878 -13.428   9.168  1.00  0.00    -0.192 OA
BRANCH  11  13
HETATM   13  N5  UNL     1       3.886 -12.145  11.012  1.00  0.00    -0.282 N 
ATOM     14  H5  UNL     1       4.040 -11.144  11.139  1.00  0.00     0.175 HD
BRANCH  13  15
HETATM   15  C10 UNL     1       4.921 -13.062  11.330  1.00  0.00     0.231 C 
HETATM   16  C11 UNL     1       6.120 -12.724  10.456  1.00  0.00     0.056 C 
HETATM   17  C12 UNL     1       7.240 -13.311  11.286  1.00  0.00     0.031 C 
HETATM   18  C13 UNL     1       6.696 -13.270  12.671  1.00  0.00     0.170 C 
HETATM   19  O4  UNL     1       5.364 -12.954  12.639  1.00  0.00    -0.366 OA
ENDBRANCH  13  15
ENDBRANCH  11  13
BRANCH  11  20
HETATM   20  N6  UNL     1       1.716 -11.222   9.801  1.00  0.00    -0.308 N 
ATOM     21  H6  UNL     1       0.803 -11.193   9.349  1.00  0.00     0.173 HD
BRANCH  20  22
HETATM   22  C14 UNL     1       2.594 -10.107  10.010  1.00  0.00     0.154 C 
BRANCH  22  23
HETATM   23  C15 UNL     1       1.857  -8.905  10.579  1.00  0.00     0.168 C 
BRANCH  23  24
HETATM   24  N7  UNL     1       1.735  -7.944   9.506  1.00  0.00    -0.301 N 
HETATM   25  C16 UNL     1       1.858  -8.201   8.194  1.00  0.00     0.130 A 
HETATM   26  C17 UNL     1       1.679  -7.046   7.476  1.00  0.00     0.044 A 
HETATM   27 BR1  UNL     1       1.737  -6.800   5.595  1.00  0.00    -0.048 Br
HETATM   28  C18 UNL     1       1.440  -6.058   8.402  1.00  0.00     0.127 A 
HETATM   29  N8  UNL     1       1.486  -6.659   9.607  1.00  0.00    -0.309 N 
ATOM     30  H8  UNL     1       1.344  -6.173  10.493  1.00  0.00     0.186 HD
ENDBRANCH  23  24
ENDBRANCH  22  23
ENDBRANCH  20  22
ENDBRANCH  11  20
ENDBRANCH  10  11
ENDBRANCH   9  10
BRANCH   1  31
HETATM   31  C5  UNL     1       1.046 -13.256  14.177  1.00  0.00     0.081 C 
BRANCH  31  32
HETATM   32  C4  UNL     1       2.557 -13.240  14.306  1.00  0.00     0.188 C 
BRANCH  32  33
HETATM   33  C3  UNL     1       3.021 -14.153  15.427  1.00  0.00     0.043 C 
BRANCH  33  34
HETATM   34  C2  UNL     1       3.981 -15.174  14.847  1.00  0.00     0.075 C 
BRANCH  34  35
HETATM   35  S1  UNL     1       3.236 -16.843  14.880  1.00  0.00    -0.173 SA
HETATM   36  C1  UNL     1       3.201 -17.472  13.186  1.00  0.00     0.089 C 
ENDBRANCH  34  35
ENDBRANCH  33  34
ENDBRANCH  32  33
BRANCH  32  37
HETATM   37  N1  UNL     1       3.128 -11.950  14.488  1.00  0.00    -0.075 N 
ATOM     38  H13 UNL     1       3.483 -11.814  15.435  1.00  0.00     0.274 HD
ATOM     39  H12 UNL     1       4.010 -11.843  13.988  1.00  0.00     0.274 HD
ATOM     40  H11 UNL     1       2.445 -11.240  14.225  1.00  0.00     0.274 HD
ENDBRANCH  32  37
ENDBRANCH  31  32
ENDBRANCH   1  31
BRANCH   2  41
HETATM   41  O1  UNL     1      -0.433 -15.345  15.252  1.00  0.00    -0.345 OA
ATOM     42  H1  UNL     1       0.080 -15.783  15.920  1.00  0.00     0.219 HD
ENDBRANCH   2  41
TORSDOF 15
ENDMDL
MODEL 4
REMARK VINA RESULT: -6.827184584      2.340      4.146
REMARK  15 active torsions:
REMARK  status: ('A' for Active; 'I' for Inactive)
REMARK    1  A    between atoms: S1_2  and  C2_3 
REMARK    2  A    between atoms: C2_3  and  C3_4 
REMARK    3  A    between atoms: C3_4  and  C4_5 
REMARK    4  A    between atoms: C4_5  and  N1_6 
REMARK    5  A    between atoms: C4_5  and  C5_10 
REMARK    6  A    between atoms: C5_10  and  C6_11 
REMARK    7  A    between atoms: C7_12  and  O1_13 
REMARK    8  A    between atoms: C9_21  and  N4_22 
REMARK    9  A    between atoms: N4_22  and  S2_23 
REMARK   10  A    between atoms: S2_23  and  N5_25 
REMARK   11  A    between atoms: S2_23  and  N6_32 
REMARK   12  A    between atoms: N5_25  and  C10_27 
REMARK   13  A    between atoms: N6_32  and  C14_34 
REMARK   14  A    between atoms: C14_34  and  C15_35 
REMARK   15  A    between atoms: C15_35  and  N7_36 
ROOT
HETATM    1  C6  UNL     1       3.304 -13.848  13.305  1.00  0.00     0.054 A 
HETATM    2  C7  UNL     1       2.954 -14.121  14.603  1.00  0.00     0.155 A 
HETATM    3  N2  UNL     1       2.804 -13.096  15.446  1.00  0.00    -0.288 N 
ATOM      4  H2  UNL     1       2.544 -13.282  16.414  1.00  0.00     0.172 HD
HETATM    5  C8  UNL     1       2.987 -11.825  15.049  1.00  0.00     0.328 A 
HETATM    6  O2  UNL     1       2.831 -10.866  15.894  1.00  0.00    -0.247 OA
HETATM    7  N3  UNL     1       3.326 -11.576  13.793  1.00  0.00    -0.282 N 
ATOM      8  H3  UNL     1       3.460 -10.603  13.519  1.00  0.00     0.173 HD
HETATM    9  C9  UNL     1       3.513 -12.555  12.820  1.00  0.00     0.208 A 
ENDROOT
BRANCH   9  10
HETATM   10  N4  UNL     1       3.848 -12.280  11.732  1.00  0.00    -0.303 NA
BRANCH  10  11
HETATM   11  S2  UNL     1       4.625 -12.052  10.365  1.00  0.00     0.264 S 
HETATM   12  O3  UNL     1       4.077 -12.970   9.231  1.00  0.00    -0.192 OA
BRANCH  11  13
HETATM   13  N5  UNL     1       6.172 -12.315  10.348  1.00  0.00    -0.282 N 
ATOM     14  H5  UNL     1       6.787 -11.678   9.841  1.00  0.00     0.175 HD
BRANCH  13  15
HETATM   15  C10 UNL     1       6.723 -13.430  11.032  1.00  0.00     0.231 C 
HETATM   16  C11 UNL     1       7.546 -14.224  10.030  1.00  0.00     0.056 C 
HETATM   17  C12 UNL     1       8.497 -14.942  10.963  1.00  0.00     0.031 C 
HETATM   18  C13 UNL     1       8.562 -14.040  12.144  1.00  0.00     0.170 C 
HETATM   19  O4  UNL     1       7.600 -13.070  12.044  1.00  0.00    -0.366 OA
ENDBRANCH  13  15
ENDBRANCH  11  13
BRANCH  11  20
HETATM   20  N6  UNL     1       4.423 -10.453   9.640  1.00  0.00    -0.308 N 
ATOM     21  H6  UNL     1       4.938 -10.085   8.840  1.00  0.00     0.173 HD
BRANCH  20  22
HETATM   22  C14 UNL     1       3.404  -9.766  10.380  1.00  0.00     0.154 C 
BRANCH  22  23
HETATM   23  C15 UNL     1       2.044  -9.882   9.713  1.00  0.00     0.168 C 
BRANCH  23  24
HETATM   24  N7  UNL     1       1.753  -8.591   9.130  1.00  0.00    -0.301 N 
HETATM   25  C16 UNL     1       1.626  -8.324   7.821  1.00  0.00     0.130 A 
HETATM   26  C17 UNL     1       1.350  -6.991   7.644  1.00  0.00     0.044 A 
HETATM   27 BR1  UNL     1       1.070  -6.045   6.024  1.00  0.00    -0.048 Br
HETATM   28  C18 UNL     1       1.312  -6.442   8.904  1.00  0.00     0.127 A 
HETATM   29  N8  UNL     1       1.562  -7.454   9.759  1.00  0.00    -0.309 N 
ATOM     30  H8  UNL     1       1.598  -7.349  10.773  1.00  0.00     0.186 HD
ENDBRANCH  23  24
ENDBRANCH  22  23
ENDBRANCH  20  22
ENDBRANCH  11  20
ENDBRANCH  10  11
ENDBRANCH   9  10
BRANCH   1  31
HETATM   31  C5  UNL     1       3.451 -14.984  12.390  1.00  0.00     0.081 C 
BRANCH  31  32
HETATM   32  C4  UNL     1       2.244 -15.047  11.474  1.00  0.00     0.188 C 
BRANCH  32  33
HETATM   33  C3  UNL     1       1.314 -16.180  11.873  1.00  0.00     0.043 C 
BRANCH  33  34
HETATM   34  C2  UNL     1       0.115 -15.586  12.587  1.00  0.00     0.075 C 
BRANCH  34  35
HETATM   35  S1  UNL     1      -0.371 -14.003  11.812  1.00  0.00    -0.173 SA
HETATM   36  C1  UNL     1      -0.170 -12.695  13.043  1.00  0.00     0.089 C 
ENDBRANCH  34  35
ENDBRANCH  33  34
ENDBRANCH  32  33
BRANCH  32  37
HETATM   37  N1  UNL     1       2.548 -15.159  10.089  1.00  0.00    -0.075 N 
ATOM     38  H13 UNL     1       1.895 -15.769   9.598  1.00  0.00     0.274 HD
ATOM     39  H12 UNL     1       2.351 -14.298   9.579  1.00  0.00     0.274 HD
ATOM     40  H11 UNL     1       3.516 -15.460   9.982  1.00  0.00     0.274 HD
ENDBRANCH  32  37
ENDBRANCH  31  32
ENDBRANCH   1  31
BRANCH   2  41
HETATM   41  O1  UNL     1       2.761 -15.416  15.043  1.00  0.00    -0.345 OA
ATOM     42  H1  UNL     1       2.231 -15.608  15.808  1.00  0.00     0.219 HD
ENDBRANCH   2  41
TORSDOF 15
ENDMDL
MODEL 5
REMARK VINA RESULT: -6.724389247      3.153      6.536
REMARK  15 active torsions:
REMARK  status: ('A' for Active; 'I' for Inactive)
REMARK    1  A    between atoms: S1_2  and  C2_3 
REMARK    2  A    between atoms: C2_3  and  C3_4 
REMARK    3  A    between atoms: C3_4  and  C4_5 
REMARK    4  A    between atoms: C4_5  and  N1_6 
REMARK    5  A    between atoms: C4_5  and  C5_10 
REMARK    6  A    between atoms: C5_10  and  C6_11 
REMARK    7  A    between atoms: C7_12  and  O1_13 
REMARK    8  A    between atoms: C9_21  and  N4_22 
REMARK    9  A    between atoms: N4_22  and  S2_23 
REMARK   10  A    between atoms: S2_23  and  N5_25 
REMARK   11  A    between atoms: S2_23  and  N6_32 
REMARK   12  A    between atoms: N5_25  and  C10_27 
REMARK   13  A    between atoms: N6_32  and  C14_34 
REMARK   14  A    between atoms: C14_34  and  C15_35 
REMARK   15  A    between atoms: C15_35  and  N7_36 
ROOT
HETATM    1  C6  UNL     1       0.867 -12.637  11.605  1.00  0.00     0.054 A 
HETATM    2  C7  UNL     1      -0.020 -12.037  12.464  1.00  0.00     0.155 A 
HETATM    3  N2  UNL     1      -0.439 -12.730  13.525  1.00  0.00    -0.288 N 
ATOM      4  H2  UNL     1      -1.098 -12.298  14.173  1.00  0.00     0.172 HD
HETATM    5  C8  UNL     1      -0.014 -13.983  13.761  1.00  0.00     0.328 A 
HETATM    6  O2  UNL     1      -0.443 -14.616  14.797  1.00  0.00    -0.247 OA
HETATM    7  N3  UNL     1       0.841 -14.551  12.922  1.00  0.00    -0.282 N 
ATOM      8  H3  UNL     1       1.145 -15.503  13.125  1.00  0.00     0.173 HD
HETATM    9  C9  UNL     1       1.351 -13.935  11.782  1.00  0.00     0.208 A 
ENDROOT
BRANCH   9  10
HETATM   10  N4  UNL     1       2.078 -14.498  11.057  1.00  0.00    -0.303 NA
BRANCH  10  11
HETATM   11  S2  UNL     1       2.864 -15.558  10.173  1.00  0.00     0.264 S 
HETATM   12  O3  UNL     1       3.518 -14.895   8.924  1.00  0.00    -0.192 OA
BRANCH  11  13
HETATM   13  N5  UNL     1       2.054 -16.764   9.580  1.00  0.00    -0.282 N 
ATOM     14  H5  UNL     1       1.790 -16.759   8.594  1.00  0.00     0.175 HD
BRANCH  13  15
HETATM   15  C10 UNL     1       1.687 -17.861  10.402  1.00  0.00     0.231 C 
HETATM   16  C11 UNL     1       0.258 -17.626  10.870  1.00  0.00     0.056 C 
HETATM   17  C12 UNL     1      -0.169 -19.046  11.171  1.00  0.00     0.031 C 
HETATM   18  C13 UNL     1       0.698 -19.860  10.277  1.00  0.00     0.170 C 
HETATM   19  O4  UNL     1       1.669 -19.069   9.723  1.00  0.00    -0.366 OA
ENDBRANCH  13  15
ENDBRANCH  11  13
BRANCH  11  20
HETATM   20  N6  UNL     1       4.274 -16.290  10.950  1.00  0.00    -0.308 N 
ATOM     21  H6  UNL     1       4.329 -17.234  11.330  1.00  0.00     0.173 HD
BRANCH  20  22
HETATM   22  C14 UNL     1       5.325 -15.314  10.948  1.00  0.00     0.154 C 
BRANCH  22  23
HETATM   23  C15 UNL     1       6.023 -15.230  12.295  1.00  0.00     0.168 C 
BRANCH  23  24
HETATM   24  N7  UNL     1       5.085 -14.623  13.213  1.00  0.00    -0.301 N 
HETATM   25  C16 UNL     1       4.704 -13.336  13.220  1.00  0.00     0.130 A 
HETATM   26  C17 UNL     1       3.802 -13.125  14.234  1.00  0.00     0.044 A 
HETATM   27 BR1  UNL     1       2.928 -11.514  14.722  1.00  0.00    -0.048 Br
HETATM   28  C18 UNL     1       3.642 -14.340  14.856  1.00  0.00     0.127 A 
HETATM   29  N8  UNL     1       4.439 -15.205  14.197  1.00  0.00    -0.309 N 
ATOM     30  H8  UNL     1       4.529 -16.193  14.435  1.00  0.00     0.186 HD
ENDBRANCH  23  24
ENDBRANCH  22  23
ENDBRANCH  20  22
ENDBRANCH  11  20
ENDBRANCH  10  11
ENDBRANCH   9  10
BRANCH   1  31
HETATM   31  C5  UNL     1       1.328 -11.857  10.453  1.00  0.00     0.081 C 
BRANCH  31  32
HETATM   32  C4  UNL     1       2.690 -11.266  10.762  1.00  0.00     0.188 C 
BRANCH  32  33
HETATM   33  C3  UNL     1       2.743  -9.793  10.398  1.00  0.00     0.043 C 
BRANCH  33  34
HETATM   34  C2  UNL     1       1.506  -9.454   9.589  1.00  0.00     0.075 C 
BRANCH  34  35
HETATM   35  S1  UNL     1       1.908  -8.237   8.286  1.00  0.00    -0.173 SA
HETATM   36  C1  UNL     1       1.287  -6.625   8.819  1.00  0.00     0.089 C 
ENDBRANCH  34  35
ENDBRANCH  33  34
ENDBRANCH  32  33
BRANCH  32  37
HETATM   37  N1  UNL     1       3.786 -11.937  10.152  1.00  0.00    -0.075 N 
ATOM     38  H13 UNL     1       4.678 -11.689  10.579  1.00  0.00     0.274 HD
ATOM     39  H12 UNL     1       3.796 -12.934  10.365  1.00  0.00     0.274 HD
ATOM     40  H11 UNL     1       3.773 -11.756   9.148  1.00  0.00     0.274 HD
ENDBRANCH  32  37
ENDBRANCH  31  32
ENDBRANCH   1  31
BRANCH   2  41
HETATM   41  O1  UNL     1      -0.477 -10.751  12.249  1.00  0.00    -0.345 OA
ATOM     42  H1  UNL     1      -0.975 -10.524  11.473  1.00  0.00     0.219 HD
ENDBRANCH   2  41
TORSDOF 15
ENDMDL
