MODEL 1
REMARK VINA RESULT: -7.226452762      0.000      0.000
REMARK  15 active torsions:
REMARK  status: ('A' for Active; 'I' for Inactive)
REMARK    1  A    between atoms: C2_2  and  C3_3 
REMARK    2  A    between atoms: C3_3  and  C4_4 
REMARK    3  A    between atoms: C7_10  and  C8_11 
REMARK    4  A    between atoms: C8_11  and  C9_12 
REMARK    5  A    between atoms: C12_17  and  O2_18 
REMARK    6  A    between atoms: C16_26  and  C17_27 
REMARK    7  A    between atoms: C17_27  and  C18_28 
REMARK    8  A    between atoms: C18_28  and  C19_29 
REMARK    9  A    between atoms: C19_29  and  N4_30 
REMARK       I    between atoms: N4_30  and  C20_32 
REMARK   10  A    between atoms: N7_37  and  C21_38 
REMARK   11  A    between atoms: C21_38  and  C22_39 
REMARK   12  A    between atoms: N8_41  and  C23_42 
REMARK   13  A    between atoms: C23_42  and  O4_43 
REMARK   14  A    between atoms: C23_42  and  N9_45 
REMARK   15  A    between atoms: C26_48  and  O5_49 
ROOT
HETATM    1  C4  UNL     1       0.503 -13.617  12.045  1.00  0.00     0.100 C 
HETATM    2  C5  UNL     1      -0.296 -14.877  11.856  1.00  0.00     0.077 C 
HETATM    3  N1  UNL     1      -0.754 -15.569  12.968  1.00  0.00    -0.338 N 
ATOM      4  H1  UNL     1      -1.410 -15.091  13.585  1.00  0.00     0.167 HD
HETATM    5  C6  UNL     1      -0.380 -16.875  13.304  1.00  0.00     0.244 C 
HETATM    6  O1  UNL     1      -0.665 -17.361  14.467  1.00  0.00    -0.271 OA
HETATM    7  C7  UNL     1       0.344 -17.807  12.430  1.00  0.00     0.176 C 
HETATM    8  N2  UNL     1       1.701 -17.929  12.932  1.00  0.00    -0.359 N 
ATOM      9  H2  UNL     1       1.784 -17.836  13.944  1.00  0.00     0.162 HD
HETATM   10  C12 UNL     1       2.897 -18.149  12.279  1.00  0.00     0.135 C 
HETATM   11  C13 UNL     1       3.534 -17.536  11.141  1.00  0.00     0.155 C 
HETATM   12  C14 UNL     1       5.052 -17.421  11.345  1.00  0.00     0.041 C 
HETATM   13  N3  UNL     1       3.062 -16.336  10.585  1.00  0.00    -0.345 N 
ATOM     14  H3  UNL     1       2.143 -16.422  10.151  1.00  0.00     0.163 HD
HETATM   15  C15 UNL     1       3.602 -15.034  10.506  1.00  0.00     0.261 C 
HETATM   16  O3  UNL     1       3.597 -14.597   9.292  1.00  0.00    -0.267 OA
HETATM   17  C16 UNL     1       4.141 -14.141  11.506  1.00  0.00     0.076 C 
HETATM   18  N7  UNL     1       3.909 -14.294  12.874  1.00  0.00    -0.181 NA
HETATM   19  N8  UNL     1       2.681 -14.209  13.499  1.00  0.00    -0.215 N 
HETATM   20  C26 UNL     1       1.452 -13.639  13.151  1.00  0.00     0.146 C 
ENDROOT
BRANCH  17  21
HETATM   21  C17 UNL     1       4.502 -12.824  10.903  1.00  0.00     0.060 C 
BRANCH  21  22
HETATM   22  C18 UNL     1       3.763 -11.603  11.271  1.00  0.00     0.025 C 
BRANCH  22  23
HETATM   23  C19 UNL     1       3.243 -10.956   9.986  1.00  0.00     0.122 C 
BRANCH  23  24
HETATM   24  N4  UNL     1       3.360  -9.528   9.975  1.00  0.00    -0.365 N 
HETATM   25  C20 UNL     1       2.226  -8.783   9.572  1.00  0.00     0.181 C 
HETATM   26  N5  UNL     1       1.859  -7.815  10.337  1.00  0.00    -0.374 N 
HETATM   27  N6  UNL     1       1.521  -9.080   8.383  1.00  0.00    -0.064 NA
ATOM     28  H52 UNL     1       2.369  -7.600  11.196  1.00  0.00     0.158 HD
ATOM     29  H51 UNL     1       1.042  -7.279  10.047  1.00  0.00     0.158 HD
ATOM     30  H4  UNL     1       4.227  -9.066  10.247  1.00  0.00     0.162 HD
ENDBRANCH  23  24
ENDBRANCH  22  23
ENDBRANCH  21  22
ENDBRANCH  17  21
BRANCH  18  31
HETATM   31  C21 UNL     1       4.883 -13.419  13.521  1.00  0.00     0.151 C 
BRANCH  31  32
HETATM   32  C22 UNL     1       6.309 -13.762  13.443  1.00  0.00     0.238 C 
HETATM   33  F1  UNL     1       7.238 -12.764  13.437  1.00  0.00    -0.254 F 
ENDBRANCH  31  32
ENDBRANCH  18  31
BRANCH  19  34
HETATM   34  C23 UNL     1       2.636 -14.858  14.781  1.00  0.00     0.239 C 
BRANCH  34  35
HETATM   35  O4  UNL     1       1.458 -14.982  15.378  1.00  0.00    -0.331 OA
ATOM     36  H4  UNL     1       1.269 -15.794  15.833  1.00  0.00     0.221 HD
ENDBRANCH  34  35
BRANCH  34  37
HETATM   37  N9  UNL     1       3.648 -15.423  15.562  1.00  0.00    -0.343 N 
HETATM   38  C24 UNL     1       4.895 -16.092  16.023  1.00  0.00     0.146 A 
HETATM   39  C25 UNL     1       3.968 -15.714  16.982  1.00  0.00     0.146 A 
ENDBRANCH  34  37
ENDBRANCH  19  34
BRANCH  20  40
HETATM   40  O5  UNL     1       0.975 -12.881  14.113  1.00  0.00    -0.348 OA
ATOM     41  H5  UNL     1       1.448 -12.057  14.101  1.00  0.00     0.219 HD
ENDBRANCH  20  40
BRANCH  10  42
HETATM   42  O2  UNL     1       3.597 -19.119  12.808  1.00  0.00    -0.348 OA
ATOM     43  H2  UNL     1       4.505 -19.113  12.532  1.00  0.00     0.219 HD
ENDBRANCH  10  42
BRANCH   1  44
HETATM   44  C3  UNL     1      -0.532 -12.511  12.101  1.00  0.00     0.018 C 
BRANCH  44  45
HETATM   45  C2  UNL     1      -0.313 -11.320  11.266  1.00  0.00    -0.003 C 
HETATM   46  C1  UNL     1       0.004 -10.144  12.183  1.00  0.00     0.005 C 
ENDBRANCH  44  45
ENDBRANCH   1  44
BRANCH   7  47
HETATM   47  C8  UNL     1      -0.216 -19.184  12.379  1.00  0.00     0.038 C 
BRANCH  47  48
HETATM   48  C9  UNL     1      -0.428 -19.850  11.091  1.00  0.00    -0.020 C 
HETATM   49  C10 UNL     1       0.764 -20.313  10.323  1.00  0.00     0.009 C 
HETATM   50  C11 UNL     1      -1.454 -20.973  11.144  1.00  0.00     0.009 C 
ENDBRANCH  47  48
ENDBRANCH   7  47
TORSDOF 15
ENDMDL
MODEL 2
REMARK VINA RESULT: -7.141153704      2.582      6.135
REMARK  15 active torsions:
REMARK  status: ('A' for Active; 'I' for Inactive)
REMARK    1  A    between atoms: C2_2  and  C3_3 
REMARK    2  A    between atoms: C3_3  and  C4_4 
REMARK    3  A    between atoms: C7_10  and  C8_11 
REMARK    4  A    between atoms: C8_11  and  C9_12 
REMARK    5  A    between atoms: C12_17  and  O2_18 
REMARK    6  A    between atoms: C16_26  and  C17_27 
REMARK    7  A    between atoms: C17_27  and  C18_28 
REMARK    8  A    between atoms: C18_28  and  C19_29 
REMARK    9  A    between atoms: C19_29  and  N4_30 
REMARK       I    between atoms: N4_30  and  C20_32 
REMARK   10  A    between atoms: N7_37  and  C21_38 
REMARK   11  A    between atoms: C21_38  and  C22_39 
REMARK   12  A    between atoms: N8_41  and  C23_42 
REMARK   13  A    between atoms: C23_42  and  O4_43 
REMARK   14  A    between atoms: C23_42  and  N9_45 
REMARK   15  A    between atoms: C26_48  and  O5_49 
ROOT
HETATM    1  C4  UNL     1       5.248 -13.587  10.421  1.00  0.00     0.100 C 
HETATM    2  C5  UNL     1       6.439 -13.972  11.256  1.00  0.00     0.077 C 
HETATM    3  N1  UNL     1       6.966 -15.250  11.146  1.00  0.00    -0.338 N 
ATOM      4  H1  UNL     1       7.347 -15.528  10.242  1.00  0.00     0.167 HD
HETATM    5  C6  UNL     1       7.012 -16.185  12.185  1.00  0.00     0.244 C 
HETATM    6  O1  UNL     1       7.304 -17.422  11.943  1.00  0.00    -0.271 OA
HETATM    7  C7  UNL     1       6.750 -15.901  13.601  1.00  0.00     0.176 C 
HETATM    8  N2  UNL     1       5.463 -16.479  13.943  1.00  0.00    -0.359 N 
ATOM      9  H2  UNL     1       5.233 -17.329  13.429  1.00  0.00     0.162 HD
HETATM   10  C12 UNL     1       4.494 -16.078  14.843  1.00  0.00     0.135 C 
HETATM   11  C13 UNL     1       3.829 -14.825  15.091  1.00  0.00     0.155 C 
HETATM   12  C14 UNL     1       2.348 -15.037  15.434  1.00  0.00     0.041 C 
HETATM   13  N3  UNL     1       3.936 -13.740  14.206  1.00  0.00    -0.345 N 
ATOM     14  H3  UNL     1       4.876 -13.346  14.155  1.00  0.00     0.163 HD
HETATM   15  C15 UNL     1       3.006 -13.085  13.370  1.00  0.00     0.261 C 
HETATM   16  O3  UNL     1       3.009 -11.811  13.574  1.00  0.00    -0.267 OA
HETATM   17  C16 UNL     1       2.085 -13.571  12.368  1.00  0.00     0.076 C 
HETATM   18  N7  UNL     1       2.191 -14.832  11.779  1.00  0.00    -0.181 NA
HETATM   19  N8  UNL     1       3.237 -15.270  10.992  1.00  0.00    -0.215 N 
HETATM   20  C26 UNL     1       4.238 -14.623  10.259  1.00  0.00     0.146 C 
ENDROOT
BRANCH  17  21
HETATM   21  C17 UNL     1       1.379 -12.438  11.700  1.00  0.00     0.060 C 
BRANCH  21  22
HETATM   22  C18 UNL     1       0.111 -11.920  12.244  1.00  0.00     0.025 C 
BRANCH  22  23
HETATM   23  C19 UNL     1      -0.008 -10.446  11.850  1.00  0.00     0.122 C 
BRANCH  23  24
HETATM   24  N4  UNL     1       1.255  -9.808  11.624  1.00  0.00    -0.365 N 
HETATM   25  C20 UNL     1       1.451  -9.173  10.375  1.00  0.00     0.181 C 
HETATM   26  N5  UNL     1       1.899  -7.966  10.396  1.00  0.00    -0.374 N 
HETATM   27  N6  UNL     1       1.171  -9.826   9.153  1.00  0.00    -0.064 NA
ATOM     28  H52 UNL     1       2.101  -7.495  11.279  1.00  0.00     0.158 HD
ATOM     29  H51 UNL     1       2.040  -7.509   9.496  1.00  0.00     0.158 HD
ATOM     30  H4  UNL     1       1.985  -9.812  12.336  1.00  0.00     0.162 HD
ENDBRANCH  23  24
ENDBRANCH  22  23
ENDBRANCH  21  22
ENDBRANCH  17  21
BRANCH  18  31
HETATM   31  C21 UNL     1       0.911 -15.042  11.108  1.00  0.00     0.151 C 
BRANCH  31  32
HETATM   32  C22 UNL     1      -0.227 -15.544  11.887  1.00  0.00     0.238 C 
HETATM   33  F1  UNL     1      -1.398 -14.844  11.890  1.00  0.00    -0.254 F 
ENDBRANCH  31  32
ENDBRANCH  18  31
BRANCH  19  34
HETATM   34  C23 UNL     1       3.344 -16.702  10.912  1.00  0.00     0.239 C 
BRANCH  34  35
HETATM   35  O4  UNL     1       4.543 -17.248  11.061  1.00  0.00    -0.331 OA
ATOM     36  H4  UNL     1       4.660 -18.152  10.793  1.00  0.00     0.221 HD
ENDBRANCH  34  35
BRANCH  34  37
HETATM   37  N9  UNL     1       2.374 -17.686  10.704  1.00  0.00    -0.343 N 
HETATM   38  C24 UNL     1       1.312 -18.548  10.115  1.00  0.00     0.146 A 
HETATM   39  C25 UNL     1       1.707 -18.803  11.419  1.00  0.00     0.146 A 
ENDBRANCH  34  37
ENDBRANCH  19  34
BRANCH  20  40
HETATM   40  O5  UNL     1       4.316 -15.081   9.030  1.00  0.00    -0.348 OA
ATOM     41  H5  UNL     1       4.054 -14.386   8.438  1.00  0.00     0.219 HD
ENDBRANCH  20  40
BRANCH  10  42
HETATM   42  O2  UNL     1       4.101 -17.043  15.632  1.00  0.00    -0.348 OA
ATOM     43  H2  UNL     1       4.347 -16.902  16.539  1.00  0.00     0.219 HD
ENDBRANCH  10  42
BRANCH   1  44
HETATM   44  C3  UNL     1       5.841 -13.052   9.132  1.00  0.00     0.018 C 
BRANCH  44  45
HETATM   45  C2  UNL     1       5.982 -11.594   8.992  1.00  0.00    -0.003 C 
HETATM   46  C1  UNL     1       4.803 -10.930   9.696  1.00  0.00     0.005 C 
ENDBRANCH  44  45
ENDBRANCH   1  44
BRANCH   7  47
HETATM   47  C8  UNL     1       7.739 -16.476  14.552  1.00  0.00     0.038 C 
BRANCH  47  48
HETATM   48  C9  UNL     1       8.768 -15.626  15.155  1.00  0.00    -0.020 C 
HETATM   49  C10 UNL     1       9.325 -16.014  16.484  1.00  0.00     0.009 C 
HETATM   50  C11 UNL     1       9.915 -15.289  14.214  1.00  0.00     0.009 C 
ENDBRANCH  47  48
ENDBRANCH   7  47
TORSDOF 15
ENDMDL
MODEL 3
REMARK VINA RESULT: -7.068652982      2.037      3.350
REMARK  15 active torsions:
REMARK  status: ('A' for Active; 'I' for Inactive)
REMARK    1  A    between atoms: C2_2  and  C3_3 
REMARK    2  A    between atoms: C3_3  and  C4_4 
REMARK    3  A    between atoms: C7_10  and  C8_11 
REMARK    4  A    between atoms: C8_11  and  C9_12 
REMARK    5  A    between atoms: C12_17  and  O2_18 
REMARK    6  A    between atoms: C16_26  and  C17_27 
REMARK    7  A    between atoms: C17_27  and  C18_28 
REMARK    8  A    between atoms: C18_28  and  C19_29 
REMARK    9  A    between atoms: C19_29  and  N4_30 
REMARK       I    between atoms: N4_30  and  C20_32 
REMARK   10  A    between atoms: N7_37  and  C21_38 
REMARK   11  A    between atoms: C21_38  and  C22_39 
REMARK   12  A    between atoms: N8_41  and  C23_42 
REMARK   13  A    between atoms: C23_42  and  O4_43 
REMARK   14  A    between atoms: C23_42  and  N9_45 
REMARK   15  A    between atoms: C26_48  and  O5_49 
ROOT
HETATM    1  C4  UNL     1       0.872 -12.989  11.668  1.00  0.00     0.100 C 
HETATM    2  C5  UNL     1      -0.120 -14.097  11.893  1.00  0.00     0.077 C 
HETATM    3  N1  UNL     1      -0.560 -14.369  13.180  1.00  0.00    -0.338 N 
ATOM      4  H1  UNL     1      -1.073 -13.635  13.669  1.00  0.00     0.167 HD
HETATM    5  C6  UNL     1      -0.352 -15.576  13.856  1.00  0.00     0.244 C 
HETATM    6  O1  UNL     1      -0.587 -15.668  15.124  1.00  0.00    -0.271 OA
HETATM    7  C7  UNL     1       0.134 -16.821  13.248  1.00  0.00     0.176 C 
HETATM    8  N2  UNL     1       1.501 -17.031  13.689  1.00  0.00    -0.359 N 
ATOM      9  H2  UNL     1       1.700 -16.679  14.625  1.00  0.00     0.162 HD
HETATM   10  C12 UNL     1       2.580 -17.622  13.061  1.00  0.00     0.135 C 
HETATM   11  C13 UNL     1       3.182 -17.463  11.762  1.00  0.00     0.155 C 
HETATM   12  C14 UNL     1       4.712 -17.557  11.840  1.00  0.00     0.041 C 
HETATM   13  N3  UNL     1       2.839 -16.399  10.912  1.00  0.00    -0.345 N 
ATOM     14  H3  UNL     1       1.878 -16.443  10.572  1.00  0.00     0.163 HD
HETATM   15  C15 UNL     1       3.555 -15.281  10.432  1.00  0.00     0.261 C 
HETATM   16  O3  UNL     1       3.492 -15.200   9.146  1.00  0.00    -0.267 OA
HETATM   17  C16 UNL     1       4.318 -14.253  11.102  1.00  0.00     0.076 C 
HETATM   18  N7  UNL     1       4.206 -13.983  12.467  1.00  0.00    -0.181 NA
HETATM   19  N8  UNL     1       3.073 -13.522  13.108  1.00  0.00    -0.215 N 
HETATM   20  C26 UNL     1       1.913 -12.868  12.679  1.00  0.00     0.146 C 
ENDROOT
BRANCH  17  21
HETATM   21  C17 UNL     1       4.808 -13.234  10.128  1.00  0.00     0.060 C 
BRANCH  21  22
HETATM   22  C18 UNL     1       5.860 -13.573   9.153  1.00  0.00     0.025 C 
BRANCH  22  23
HETATM   23  C19 UNL     1       7.155 -13.838   9.923  1.00  0.00     0.122 C 
BRANCH  23  24
HETATM   24  N4  UNL     1       7.526 -15.222   9.962  1.00  0.00    -0.365 N 
HETATM   25  C20 UNL     1       8.410 -15.631  10.988  1.00  0.00     0.181 C 
HETATM   26  N5  UNL     1       8.070 -16.665  11.676  1.00  0.00    -0.374 N 
HETATM   27  N6  UNL     1       9.617 -14.944  11.253  1.00  0.00    -0.064 NA
ATOM     28  H52 UNL     1       7.199 -17.161  11.485  1.00  0.00     0.158 HD
ATOM     29  H51 UNL     1       8.707 -16.960  12.416  1.00  0.00     0.158 HD
ATOM     30  H4  UNL     1       7.166 -15.886   9.277  1.00  0.00     0.162 HD
ENDBRANCH  23  24
ENDBRANCH  22  23
ENDBRANCH  21  22
ENDBRANCH  17  21
BRANCH  18  31
HETATM   31  C21 UNL     1       5.359 -13.144  12.781  1.00  0.00     0.151 C 
BRANCH  31  32
HETATM   32  C22 UNL     1       6.546 -13.763  13.386  1.00  0.00     0.238 C 
HETATM   33  F1  UNL     1       7.757 -13.150  13.261  1.00  0.00    -0.254 F 
ENDBRANCH  31  32
ENDBRANCH  18  31
BRANCH  19  34
HETATM   34  C23 UNL     1       3.062 -13.776  14.523  1.00  0.00     0.239 C 
BRANCH  34  35
HETATM   35  O4  UNL     1       2.398 -12.935  15.304  1.00  0.00    -0.331 OA
ATOM     36  H4  UNL     1       2.746 -12.059  15.418  1.00  0.00     0.221 HD
ENDBRANCH  34  35
BRANCH  34  37
HETATM   37  N9  UNL     1       3.642 -14.801  15.278  1.00  0.00    -0.343 N 
HETATM   38  C24 UNL     1       4.536 -15.881  15.776  1.00  0.00     0.146 A 
HETATM   39  C25 UNL     1       3.395 -15.593  16.508  1.00  0.00     0.146 A 
ENDBRANCH  34  37
ENDBRANCH  19  34
BRANCH  20  40
HETATM   40  O5  UNL     1       1.654 -11.805  13.407  1.00  0.00    -0.348 OA
ATOM     41  H5  UNL     1       2.138 -11.880  14.222  1.00  0.00     0.219 HD
ENDBRANCH  20  40
BRANCH  10  42
HETATM   42  O2  UNL     1       3.178 -18.514  13.807  1.00  0.00    -0.348 OA
ATOM     43  H2  UNL     1       2.737 -19.356  13.803  1.00  0.00     0.219 HD
ENDBRANCH  10  42
BRANCH   1  44
HETATM   44  C3  UNL     1       0.023 -11.750  11.461  1.00  0.00     0.018 C 
BRANCH  44  45
HETATM   45  C2  UNL     1       0.361 -10.864  10.337  1.00  0.00    -0.003 C 
HETATM   46  C1  UNL     1       1.101  -9.651  10.890  1.00  0.00     0.005 C 
ENDBRANCH  44  45
ENDBRANCH   1  44
BRANCH   7  47
HETATM   47  C8  UNL     1      -0.626 -18.043  13.625  1.00  0.00     0.038 C 
BRANCH  47  48
HETATM   48  C9  UNL     1      -0.638 -19.211  12.741  1.00  0.00    -0.020 C 
HETATM   49  C10 UNL     1      -1.692 -20.247  12.942  1.00  0.00     0.009 C 
HETATM   50  C11 UNL     1      -0.560 -18.861  11.262  1.00  0.00     0.009 C 
ENDBRANCH  47  48
ENDBRANCH   7  47
TORSDOF 15
ENDMDL
MODEL 4
REMARK VINA RESULT: -6.846822023      2.551      5.858
REMARK  15 active torsions:
REMARK  status: ('A' for Active; 'I' for Inactive)
REMARK    1  A    between atoms: C2_2  and  C3_3 
REMARK    2  A    between atoms: C3_3  and  C4_4 
REMARK    3  A    between atoms: C7_10  and  C8_11 
REMARK    4  A    between atoms: C8_11  and  C9_12 
REMARK    5  A    between atoms: C12_17  and  O2_18 
REMARK    6  A    between atoms: C16_26  and  C17_27 
REMARK    7  A    between atoms: C17_27  and  C18_28 
REMARK    8  A    between atoms: C18_28  and  C19_29 
REMARK    9  A    between atoms: C19_29  and  N4_30 
REMARK       I    between atoms: N4_30  and  C20_32 
REMARK   10  A    between atoms: N7_37  and  C21_38 
REMARK   11  A    between atoms: C21_38  and  C22_39 
REMARK   12  A    between atoms: N8_41  and  C23_42 
REMARK   13  A    between atoms: C23_42  and  O4_43 
REMARK   14  A    between atoms: C23_42  and  N9_45 
REMARK   15  A    between atoms: C26_48  and  O5_49 
ROOT
HETATM    1  C4  UNL     1       5.287 -13.970  10.290  1.00  0.00     0.100 C 
HETATM    2  C5  UNL     1       6.455 -14.657  10.944  1.00  0.00     0.077 C 
HETATM    3  N1  UNL     1       6.674 -16.006  10.707  1.00  0.00    -0.338 N 
ATOM      4  H1  UNL     1       6.877 -16.291   9.749  1.00  0.00     0.167 HD
HETATM    5  C6  UNL     1       6.637 -17.004  11.686  1.00  0.00     0.244 C 
HETATM    6  O1  UNL     1       6.622 -18.253  11.352  1.00  0.00    -0.271 OA
HETATM    7  C7  UNL     1       6.610 -16.775  13.137  1.00  0.00     0.176 C 
HETATM    8  N2  UNL     1       5.277 -17.093  13.615  1.00  0.00    -0.359 N 
ATOM      9  H2  UNL     1       4.810 -17.836  13.096  1.00  0.00     0.162 HD
HETATM   10  C12 UNL     1       4.532 -16.564  14.651  1.00  0.00     0.135 C 
HETATM   11  C13 UNL     1       4.189 -15.221  15.042  1.00  0.00     0.155 C 
HETATM   12  C14 UNL     1       2.747 -15.142  15.564  1.00  0.00     0.041 C 
HETATM   13  N3  UNL     1       4.425 -14.121  14.201  1.00  0.00    -0.345 N 
ATOM     14  H3  UNL     1       5.416 -13.931  14.047  1.00  0.00     0.163 HD
HETATM   15  C15 UNL     1       3.569 -13.226  13.525  1.00  0.00     0.261 C 
HETATM   16  O3  UNL     1       3.873 -11.999  13.786  1.00  0.00    -0.267 OA
HETATM   17  C16 UNL     1       2.454 -13.433  12.630  1.00  0.00     0.076 C 
HETATM   18  N7  UNL     1       2.213 -14.641  11.974  1.00  0.00    -0.181 NA
HETATM   19  N8  UNL     1       3.039 -15.231  11.038  1.00  0.00    -0.215 N 
HETATM   20  C26 UNL     1       4.063 -14.757  10.212  1.00  0.00     0.146 C 
ENDROOT
BRANCH  17  21
HETATM   21  C17 UNL     1       1.938 -12.131  12.112  1.00  0.00     0.060 C 
BRANCH  21  22
HETATM   22  C18 UNL     1       1.991 -11.823  10.672  1.00  0.00     0.025 C 
BRANCH  22  23
HETATM   23  C19 UNL     1       0.808 -10.913  10.336  1.00  0.00     0.122 C 
BRANCH  23  24
HETATM   24  N4  UNL     1       1.110  -9.922   9.345  1.00  0.00    -0.365 N 
HETATM   25  C20 UNL     1       1.959  -8.856   9.727  1.00  0.00     0.181 C 
HETATM   26  N5  UNL     1       2.951  -8.591   8.950  1.00  0.00    -0.374 N 
HETATM   27  N6  UNL     1       1.735  -8.108  10.905  1.00  0.00    -0.064 NA
ATOM     28  H52 UNL     1       3.112  -9.131   8.099  1.00  0.00     0.158 HD
ATOM     29  H51 UNL     1       3.562  -7.822   9.226  1.00  0.00     0.158 HD
ATOM     30  H4  UNL     1       0.728  -9.983   8.402  1.00  0.00     0.162 HD
ENDBRANCH  23  24
ENDBRANCH  22  23
ENDBRANCH  21  22
ENDBRANCH  17  21
BRANCH  18  31
HETATM   31  C21 UNL     1       0.848 -14.528  11.466  1.00  0.00     0.151 C 
BRANCH  31  32
HETATM   32  C22 UNL     1      -0.274 -14.769  12.381  1.00  0.00     0.238 C 
HETATM   33  F1  UNL     1      -1.542 -14.841  11.882  1.00  0.00    -0.254 F 
ENDBRANCH  31  32
ENDBRANCH  18  31
BRANCH  19  34
HETATM   34  C23 UNL     1       2.821 -16.643  10.879  1.00  0.00     0.239 C 
BRANCH  34  35
HETATM   35  O4  UNL     1       3.883 -17.431  10.774  1.00  0.00    -0.331 OA
ATOM     36  H4  UNL     1       4.524 -17.232  10.103  1.00  0.00     0.221 HD
ENDBRANCH  34  35
BRANCH  34  37
HETATM   37  N9  UNL     1       1.642 -17.391  10.817  1.00  0.00    -0.343 N 
HETATM   38  C24 UNL     1       0.356 -18.002  10.383  1.00  0.00     0.146 A 
HETATM   39  C25 UNL     1       0.836 -18.324  11.642  1.00  0.00     0.146 A 
ENDBRANCH  34  37
ENDBRANCH  19  34
BRANCH  20  40
HETATM   40  O5  UNL     1       3.896 -15.130   8.963  1.00  0.00    -0.348 OA
ATOM     41  H5  UNL     1       2.988 -14.975   8.728  1.00  0.00     0.219 HD
ENDBRANCH  20  40
BRANCH  10  42
HETATM   42  O2  UNL     1       4.033 -17.481  15.440  1.00  0.00    -0.348 OA
ATOM     43  H2  UNL     1       3.428 -17.128  16.080  1.00  0.00     0.219 HD
ENDBRANCH  10  42
BRANCH   1  44
HETATM   44  C3  UNL     1       5.827 -13.479   8.960  1.00  0.00     0.018 C 
BRANCH  44  45
HETATM   45  C2  UNL     1       6.256 -12.075   8.868  1.00  0.00    -0.003 C 
HETATM   46  C1  UNL     1       5.303 -11.228   9.705  1.00  0.00     0.005 C 
ENDBRANCH  44  45
ENDBRANCH   1  44
BRANCH   7  47
HETATM   47  C8  UNL     1       7.555 -17.614  13.922  1.00  0.00     0.038 C 
BRANCH  47  48
HETATM   48  C9  UNL     1       8.311 -17.034  15.035  1.00  0.00    -0.020 C 
HETATM   49  C10 UNL     1       8.710 -15.598  14.955  1.00  0.00     0.009 C 
HETATM   50  C11 UNL     1       7.696 -17.304  16.401  1.00  0.00     0.009 C 
ENDBRANCH  47  48
ENDBRANCH   7  47
TORSDOF 15
ENDMDL
MODEL 5
REMARK VINA RESULT: -6.807901960      2.735      7.338
REMARK  15 active torsions:
REMARK  status: ('A' for Active; 'I' for Inactive)
REMARK    1  A    between atoms: C2_2  and  C3_3 
REMARK    2  A    between atoms: C3_3  and  C4_4 
REMARK    3  A    between atoms: C7_10  and  C8_11 
REMARK    4  A    between atoms: C8_11  and  C9_12 
REMARK    5  A    between atoms: C12_17  and  O2_18 
REMARK    6  A    between atoms: C16_26  and  C17_27 
REMARK    7  A    between atoms: C17_27  and  C18_28 
REMARK    8  A    between atoms: C18_28  and  C19_29 
REMARK    9  A    between atoms: C19_29  and  N4_30 
REMARK       I    between atoms: N4_30  and  C20_32 
REMARK   10  A    between atoms: N7_37  and  C21_38 
REMARK   11  A    between atoms: C21_38  and  C22_39 
REMARK   12  A    between atoms: N8_41  and  C23_42 
REMARK   13  A    between atoms: C23_42  and  O4_43 
REMARK   14  A    between atoms: C23_42  and  N9_45 
REMARK   15  A    between atoms: C26_48  and  O5_49 
ROOT
HETATM    1  C4  UNL     1       3.921 -15.924  14.506  1.00  0.00     0.100 C 
HETATM    2  C5  UNL     1       5.346 -15.983  14.029  1.00  0.00     0.077 C 
HETATM    3  N1  UNL     1       6.166 -14.876  14.189  1.00  0.00    -0.338 N 
ATOM      4  H1  UNL     1       6.361 -14.565  15.140  1.00  0.00     0.167 HD
HETATM    5  C6  UNL     1       6.746 -14.156  13.138  1.00  0.00     0.244 C 
HETATM    6  O1  UNL     1       7.302 -13.009  13.357  1.00  0.00    -0.271 OA
HETATM    7  C7  UNL     1       6.792 -14.583  11.734  1.00  0.00     0.176 C 
HETATM    8  N2  UNL     1       5.857 -13.762  10.986  1.00  0.00    -0.359 N 
ATOM      9  H2  UNL     1       5.753 -12.812  11.342  1.00  0.00     0.162 HD
HETATM   10  C12 UNL     1       5.085 -14.044   9.876  1.00  0.00     0.135 C 
HETATM   11  C13 UNL     1       4.181 -15.114   9.542  1.00  0.00     0.155 C 
HETATM   12  C14 UNL     1       2.963 -14.595   8.764  1.00  0.00     0.041 C 
HETATM   13  N3  UNL     1       3.740 -16.039  10.503  1.00  0.00    -0.345 N 
ATOM     14  H3  UNL     1       4.483 -16.642  10.858  1.00  0.00     0.163 HD
HETATM   15  C15 UNL     1       2.478 -16.303  11.077  1.00  0.00     0.261 C 
HETATM   16  O3  UNL     1       2.173 -17.553  10.984  1.00  0.00    -0.267 OA
HETATM   17  C16 UNL     1       1.505 -15.452  11.724  1.00  0.00     0.076 C 
HETATM   18  N7  UNL     1       1.807 -14.182  12.217  1.00  0.00    -0.181 NA
HETATM   19  N8  UNL     1       2.691 -13.902  13.239  1.00  0.00    -0.215 N 
HETATM   20  C26 UNL     1       3.240 -14.655  14.282  1.00  0.00     0.146 C 
ENDROOT
BRANCH  17  21
HETATM   21  C17 UNL     1       0.358 -16.255  12.242  1.00  0.00     0.060 C 
BRANCH  21  22
HETATM   22  C18 UNL     1       0.489 -17.032  13.488  1.00  0.00     0.025 C 
BRANCH  22  23
HETATM   23  C19 UNL     1      -0.236 -18.365  13.296  1.00  0.00     0.122 C 
BRANCH  23  24
HETATM   24  N4  UNL     1      -0.688 -18.584  11.954  1.00  0.00    -0.365 N 
HETATM   25  C20 UNL     1      -1.608 -19.638  11.739  1.00  0.00     0.181 C 
HETATM   26  N5  UNL     1      -2.666 -19.362  11.059  1.00  0.00    -0.374 N 
HETATM   27  N6  UNL     1      -1.384 -20.939  12.243  1.00  0.00    -0.064 NA
ATOM     28  H52 UNL     1      -2.827 -18.422  10.695  1.00  0.00     0.158 HD
ATOM     29  H51 UNL     1      -3.328 -20.122  10.904  1.00  0.00     0.158 HD
ATOM     30  H4  UNL     1      -0.360 -18.002  11.183  1.00  0.00     0.162 HD
ENDBRANCH  23  24
ENDBRANCH  22  23
ENDBRANCH  21  22
ENDBRANCH  17  21
BRANCH  18  31
HETATM   31  C21 UNL     1       0.510 -13.557  12.464  1.00  0.00     0.151 C 
BRANCH  31  32
HETATM   32  C22 UNL     1      -0.156 -12.844  11.368  1.00  0.00     0.238 C 
HETATM   33  F1  UNL     1      -0.753 -11.643  11.615  1.00  0.00    -0.254 F 
ENDBRANCH  31  32
ENDBRANCH  18  31
BRANCH  19  34
HETATM   34  C23 UNL     1       3.175 -12.548  13.234  1.00  0.00     0.239 C 
BRANCH  34  35
HETATM   35  O4  UNL     1       4.034 -12.187  14.178  1.00  0.00    -0.331 OA
ATOM     36  H4  UNL     1       3.704 -12.067  15.061  1.00  0.00     0.221 HD
ENDBRANCH  34  35
BRANCH  34  37
HETATM   37  N9  UNL     1       2.908 -11.479  12.374  1.00  0.00    -0.343 N 
HETATM   38  C24 UNL     1       2.387 -10.220  11.774  1.00  0.00     0.146 A 
HETATM   39  C25 UNL     1       3.227 -11.008  11.003  1.00  0.00     0.146 A 
ENDBRANCH  34  37
ENDBRANCH  19  34
BRANCH  20  40
HETATM   40  O5  UNL     1       3.121 -14.045  15.440  1.00  0.00    -0.348 OA
ATOM     41  H5  UNL     1       2.196 -13.915  15.613  1.00  0.00     0.219 HD
ENDBRANCH  20  40
BRANCH  10  42
HETATM   42  O2  UNL     1       5.202 -13.147   8.932  1.00  0.00    -0.348 OA
ATOM     43  H2  UNL     1       5.292 -13.529   8.068  1.00  0.00     0.219 HD
ENDBRANCH  10  42
BRANCH   1  44
HETATM   44  C3  UNL     1       3.979 -16.382  15.950  1.00  0.00     0.018 C 
BRANCH  44  45
HETATM   45  C2  UNL     1       4.931 -17.449  16.296  1.00  0.00    -0.003 C 
HETATM   46  C1  UNL     1       5.668 -17.040  17.566  1.00  0.00     0.005 C 
ENDBRANCH  44  45
ENDBRANCH   1  44
BRANCH   7  47
HETATM   47  C8  UNL     1       8.116 -14.428  11.074  1.00  0.00     0.038 C 
BRANCH  47  48
HETATM   48  C9  UNL     1       9.191 -15.389  11.335  1.00  0.00    -0.020 C 
HETATM   49  C10 UNL     1      10.207 -15.058  12.376  1.00  0.00     0.009 C 
HETATM   50  C11 UNL     1       8.700 -16.813  11.554  1.00  0.00     0.009 C 
ENDBRANCH  47  48
ENDBRANCH   7  47
TORSDOF 15
ENDMDL
