MODEL 1
REMARK VINA RESULT: -8.411699490      0.000      0.000
REMARK  7 active torsions:
REMARK  status: ('A' for Active; 'I' for Inactive)
REMARK    1  A    between atoms: C3_5  and  N2_6 
REMARK    2  A    between atoms: C5_8  and  N3_9 
REMARK    3  A    between atoms: C5_8  and  C6_13 
REMARK    4  A    between atoms: C7_16  and  C8_17 
REMARK    5  A    between atoms: N4_18  and  N5_20 
REMARK    6  A    between atoms: N5_20  and  C9_22 
REMARK    7  A    between atoms: C13_31  and  N9_32 
ROOT
HETATM    1  C1  UNL     1      23.814   8.552   3.596  1.00  0.00     0.089 C 
HETATM    2  C2  UNL     1      24.846   8.309   4.645  1.00  0.00     0.080 A 
HETATM    3  N1  UNL     1      24.653   8.619   5.934  1.00  0.00    -0.332 N 
ATOM      4  H1  UNL     1      23.773   9.038   6.234  1.00  0.00     0.168 HD
HETATM    5  C3  UNL     1      25.641   8.369   6.846  1.00  0.00     0.122 A 
HETATM    6  C7  UNL     1      26.831   7.804   6.450  1.00  0.00     0.068 A 
HETATM    7  C13 UNL     1      27.007   7.495   5.121  1.00  0.00     0.115 A 
HETATM    8  N10 UNL     1      26.012   7.756   4.264  1.00  0.00    -0.332 N 
ATOM      9  H10 UNL     1      26.144   7.526   3.278  1.00  0.00     0.168 HD
ENDROOT
BRANCH   6  10
HETATM   10  C8  UNL     1      27.879   7.541   7.444  1.00  0.00     0.126 C 
HETATM   11  N4  UNL     1      27.858   6.423   8.042  1.00  0.00    -0.309 N 
ATOM     12  H4  UNL     1      27.108   5.780   7.789  1.00  0.00     0.186 HD
BRANCH  11  13
HETATM   13  N5  UNL     1      28.748   5.992   9.001  1.00  0.00    -0.283 N 
ATOM     14  H5  UNL     1      29.455   6.623   9.377  1.00  0.00     0.188 HD
BRANCH  13  15
HETATM   15  C9  UNL     1      28.659   4.648   9.454  1.00  0.00     0.158 A 
HETATM   16  N6  UNL     1      27.705   4.183  10.137  1.00  0.00    -0.368 N 
HETATM   17  C10 UNL     1      27.563   2.859  10.614  1.00  0.00     0.165 A 
ATOM     18  H6  UNL     1      26.954   4.833  10.370  1.00  0.00     0.161 HD
HETATM   19  C11 UNL     1      28.679   1.955  10.255  1.00  0.00     0.082 A 
HETATM   20  N7  UNL     1      29.704   2.550   9.492  1.00  0.00    -0.354 N 
HETATM   21  C12 UNL     1      29.766   3.751   9.095  1.00  0.00     0.161 A 
ATOM     22  H7  UNL     1      30.484   1.946   9.231  1.00  0.00     0.166 HD
HETATM   23  N8  UNL     1      30.866   4.244   8.320  1.00  0.00    -0.079 NA
ENDBRANCH  13  15
ENDBRANCH  11  13
ENDBRANCH   6  10
BRANCH   5  24
HETATM   24  N2  UNL     1      25.361   8.730   8.196  1.00  0.00    -0.319 N 
HETATM   25  C4  UNL     1      25.649   9.682   9.312  1.00  0.00     0.201 A 
HETATM   26  C5  UNL     1      24.706   8.597   9.482  1.00  0.00     0.303 A 
BRANCH  26  27
HETATM   27  N3  UNL     1      23.294   8.990   9.561  1.00  0.00    -0.040 N 
ATOM     28  H33 UNL     1      23.206   9.982   9.343  1.00  0.00     0.278 HD
ATOM     29  H32 UNL     1      22.783   8.578   8.781  1.00  0.00     0.278 HD
ATOM     30  H31 UNL     1      22.801   8.789  10.432  1.00  0.00     0.278 HD
ENDBRANCH  26  27
BRANCH  26  31
HETATM   31  C6  UNL     1      25.071   7.496  10.399  1.00  0.00     0.234 C 
HETATM   32  O1  UNL     1      25.765   6.507  10.007  1.00  0.00    -0.645 OA
HETATM   33  O2  UNL     1      24.674   7.499  11.710  1.00  0.00    -0.645 OA
ENDBRANCH  26  31
ENDBRANCH   5  24
BRANCH   7  34
HETATM   34  N9  UNL     1      28.122   6.969   4.763  1.00  0.00    -0.385 N 
ATOM     35  H92 UNL     1      28.183   6.150   4.159  1.00  0.00     0.157 HD
ATOM     36  H91 UNL     1      28.985   7.393   5.103  1.00  0.00     0.157 HD
ENDBRANCH   7  34
TORSDOF 7
ENDMDL
MODEL 2
REMARK VINA RESULT: -8.281662545      3.780      6.563
REMARK  7 active torsions:
REMARK  status: ('A' for Active; 'I' for Inactive)
REMARK    1  A    between atoms: C3_5  and  N2_6 
REMARK    2  A    between atoms: C5_8  and  N3_9 
REMARK    3  A    between atoms: C5_8  and  C6_13 
REMARK    4  A    between atoms: C7_16  and  C8_17 
REMARK    5  A    between atoms: N4_18  and  N5_20 
REMARK    6  A    between atoms: N5_20  and  C9_22 
REMARK    7  A    between atoms: C13_31  and  N9_32 
ROOT
HETATM    1  C1  UNL     1      32.627  11.945   8.584  1.00  0.00     0.089 C 
HETATM    2  C2  UNL     1      31.455  11.044   8.782  1.00  0.00     0.080 A 
HETATM    3  N1  UNL     1      31.380   9.825   8.231  1.00  0.00    -0.332 N 
ATOM      4  H1  UNL     1      32.142   9.479   7.649  1.00  0.00     0.168 HD
HETATM    5  C3  UNL     1      30.277   9.048   8.453  1.00  0.00     0.122 A 
HETATM    6  C7  UNL     1      29.244   9.510   9.236  1.00  0.00     0.068 A 
HETATM    7  C13 UNL     1      29.343  10.765   9.791  1.00  0.00     0.115 A 
HETATM    8  N10 UNL     1      30.442  11.489   9.547  1.00  0.00    -0.332 N 
ATOM      9  H10 UNL     1      30.514  12.420   9.959  1.00  0.00     0.168 HD
ENDROOT
BRANCH   6  10
HETATM   10  C8  UNL     1      28.068   8.660   9.466  1.00  0.00     0.126 C 
HETATM   11  N4  UNL     1      28.133   7.801  10.397  1.00  0.00    -0.309 N 
ATOM     12  H4  UNL     1      29.005   7.760  10.925  1.00  0.00     0.186 HD
BRANCH  11  13
HETATM   13  N5  UNL     1      27.143   6.918  10.764  1.00  0.00    -0.283 N 
ATOM     14  H5  UNL     1      27.300   5.911  10.722  1.00  0.00     0.188 HD
BRANCH  13  15
HETATM   15  C9  UNL     1      25.897   7.441  11.204  1.00  0.00     0.158 A 
HETATM   16  N6  UNL     1      24.783   7.191  10.665  1.00  0.00    -0.368 N 
HETATM   17  C10 UNL     1      23.516   7.681  11.057  1.00  0.00     0.165 A 
ATOM     18  H6  UNL     1      24.799   6.566   9.858  1.00  0.00     0.161 HD
HETATM   19  C11 UNL     1      23.545   8.586  12.228  1.00  0.00     0.082 A 
HETATM   20  N7  UNL     1      24.825   8.815  12.771  1.00  0.00    -0.354 N 
HETATM   21  C12 UNL     1      25.926   8.338  12.367  1.00  0.00     0.161 A 
ATOM     22  H7  UNL     1      24.869   9.435  13.580  1.00  0.00     0.166 HD
HETATM   23  N8  UNL     1      27.172   8.645  13.005  1.00  0.00    -0.079 NA
ENDBRANCH  13  15
ENDBRANCH  11  13
ENDBRANCH   6  10
BRANCH   5  24
HETATM   24  N2  UNL     1      30.270   7.767   7.830  1.00  0.00    -0.319 N 
HETATM   25  C4  UNL     1      29.626   6.887   6.808  1.00  0.00     0.201 A 
HETATM   26  C5  UNL     1      30.739   6.414   7.604  1.00  0.00     0.303 A 
BRANCH  26  27
HETATM   27  N3  UNL     1      32.009   6.254   6.886  1.00  0.00    -0.040 N 
ATOM     28  H33 UNL     1      32.630   7.029   7.120  1.00  0.00     0.278 HD
ATOM     29  H32 UNL     1      32.527   5.470   7.283  1.00  0.00     0.278 HD
ATOM     30  H31 UNL     1      31.963   6.151   5.872  1.00  0.00     0.278 HD
ENDBRANCH  26  27
BRANCH  26  31
HETATM   31  C6  UNL     1      30.480   5.354   8.601  1.00  0.00     0.234 C 
HETATM   32  O1  UNL     1      29.450   5.380   9.346  1.00  0.00    -0.645 OA
HETATM   33  O2  UNL     1      31.340   4.301   8.763  1.00  0.00    -0.645 OA
ENDBRANCH  26  31
ENDBRANCH   5  24
BRANCH   7  34
HETATM   34  N9  UNL     1      28.373  11.184  10.519  1.00  0.00    -0.385 N 
ATOM     35  H92 UNL     1      28.508  11.747  11.359  1.00  0.00     0.157 HD
ATOM     36  H91 UNL     1      27.422  10.940  10.241  1.00  0.00     0.157 HD
ENDBRANCH   7  34
TORSDOF 7
ENDMDL
MODEL 3
REMARK VINA RESULT: -8.163652275      2.620      5.446
REMARK  7 active torsions:
REMARK  status: ('A' for Active; 'I' for Inactive)
REMARK    1  A    between atoms: C3_5  and  N2_6 
REMARK    2  A    between atoms: C5_8  and  N3_9 
REMARK    3  A    between atoms: C5_8  and  C6_13 
REMARK    4  A    between atoms: C7_16  and  C8_17 
REMARK    5  A    between atoms: N4_18  and  N5_20 
REMARK    6  A    between atoms: N5_20  and  C9_22 
REMARK    7  A    between atoms: C13_31  and  N9_32 
ROOT
HETATM    1  C1  UNL     1      25.687   7.422   2.157  1.00  0.00     0.089 C 
HETATM    2  C2  UNL     1      25.634   7.681   3.625  1.00  0.00     0.080 A 
HETATM    3  N1  UNL     1      26.561   7.219   4.473  1.00  0.00    -0.332 N 
ATOM      4  H1  UNL     1      27.343   6.665   4.125  1.00  0.00     0.168 HD
HETATM    5  C3  UNL     1      26.454   7.493   5.809  1.00  0.00     0.122 A 
HETATM    6  C7  UNL     1      25.401   8.238   6.287  1.00  0.00     0.068 A 
HETATM    7  C13 UNL     1      24.461   8.702   5.396  1.00  0.00     0.115 A 
HETATM    8  N10 UNL     1      24.607   8.410   4.098  1.00  0.00    -0.332 N 
ATOM      9  H10 UNL     1      23.909   8.755   3.439  1.00  0.00     0.168 HD
ENDROOT
BRANCH   6  10
HETATM   10  C8  UNL     1      25.304   8.525   7.724  1.00  0.00     0.126 C 
HETATM   11  N4  UNL     1      24.860   7.609   8.481  1.00  0.00    -0.309 N 
ATOM     12  H4  UNL     1      24.599   6.730   8.034  1.00  0.00     0.186 HD
BRANCH  11  13
HETATM   13  N5  UNL     1      24.695   7.685   9.846  1.00  0.00    -0.283 N 
ATOM     14  H5  UNL     1      24.307   6.901  10.368  1.00  0.00     0.188 HD
BRANCH  13  15
HETATM   15  C9  UNL     1      25.079   8.882  10.509  1.00  0.00     0.158 A 
HETATM   16  N6  UNL     1      26.227   9.104  10.983  1.00  0.00    -0.368 N 
HETATM   17  C10 UNL     1      26.664  10.270  11.652  1.00  0.00     0.165 A 
ATOM     18  H6  UNL     1      26.916   8.359  10.872  1.00  0.00     0.161 HD
HETATM   19  C11 UNL     1      25.629  11.320  11.793  1.00  0.00     0.082 A 
HETATM   20  N7  UNL     1      24.375  10.996  11.238  1.00  0.00    -0.354 N 
HETATM   21  C12 UNL     1      24.051   9.924  10.647  1.00  0.00     0.161 A 
ATOM     22  H7  UNL     1      23.646  11.705  11.322  1.00  0.00     0.166 HD
HETATM   23  N8  UNL     1      22.736   9.708  10.121  1.00  0.00    -0.079 NA
ENDBRANCH  13  15
ENDBRANCH  11  13
ENDBRANCH   6  10
BRANCH   5  24
HETATM   24  N2  UNL     1      27.477   6.962   6.648  1.00  0.00    -0.319 N 
HETATM   25  C4  UNL     1      28.113   5.728   7.201  1.00  0.00     0.201 A 
HETATM   26  C5  UNL     1      28.612   7.043   7.546  1.00  0.00     0.303 A 
BRANCH  26  27
HETATM   27  N3  UNL     1      29.909   7.403   6.959  1.00  0.00    -0.040 N 
ATOM     28  H33 UNL     1      30.496   7.833   7.673  1.00  0.00     0.278 HD
ATOM     29  H32 UNL     1      30.440   6.554   6.763  1.00  0.00     0.278 HD
ATOM     30  H31 UNL     1      29.898   7.994   6.127  1.00  0.00     0.278 HD
ENDBRANCH  26  27
BRANCH  26  31
HETATM   31  C6  UNL     1      28.437   7.511   8.937  1.00  0.00     0.234 C 
HETATM   32  O1  UNL     1      28.914   8.621   9.329  1.00  0.00    -0.645 OA
HETATM   33  O2  UNL     1      27.752   6.765   9.859  1.00  0.00    -0.645 OA
ENDBRANCH  26  31
ENDBRANCH   5  24
BRANCH   7  34
HETATM   34  N9  UNL     1      23.483   9.396   5.854  1.00  0.00    -0.385 N 
ATOM     35  H92 UNL     1      22.556   9.008   6.026  1.00  0.00     0.157 HD
ATOM     36  H91 UNL     1      23.646  10.383   6.055  1.00  0.00     0.157 HD
ENDBRANCH   7  34
TORSDOF 7
ENDMDL
MODEL 4
REMARK VINA RESULT: -8.137611665      3.171      6.970
REMARK  7 active torsions:
REMARK  status: ('A' for Active; 'I' for Inactive)
REMARK    1  A    between atoms: C3_5  and  N2_6 
REMARK    2  A    between atoms: C5_8  and  N3_9 
REMARK    3  A    between atoms: C5_8  and  C6_13 
REMARK    4  A    between atoms: C7_16  and  C8_17 
REMARK    5  A    between atoms: N4_18  and  N5_20 
REMARK    6  A    between atoms: N5_20  and  C9_22 
REMARK    7  A    between atoms: C13_31  and  N9_32 
ROOT
HETATM    1  C1  UNL     1      27.513   4.659   9.953  1.00  0.00     0.089 C 
HETATM    2  C2  UNL     1      26.666   5.817   9.542  1.00  0.00     0.080 A 
HETATM    3  N1  UNL     1      25.763   6.375  10.358  1.00  0.00    -0.332 N 
ATOM      4  H1  UNL     1      25.630   6.012  11.302  1.00  0.00     0.168 HD
HETATM    5  C3  UNL     1      25.018   7.436   9.920  1.00  0.00     0.122 A 
HETATM    6  C7  UNL     1      25.190   7.931   8.648  1.00  0.00     0.068 A 
HETATM    7  C13 UNL     1      26.124   7.341   7.828  1.00  0.00     0.115 A 
HETATM    8  N10 UNL     1      26.830   6.306   8.300  1.00  0.00    -0.332 N 
ATOM      9  H10 UNL     1      27.522   5.870   7.691  1.00  0.00     0.168 HD
ENDROOT
BRANCH   6  10
HETATM   10  C8  UNL     1      24.384   9.073   8.196  1.00  0.00     0.126 C 
HETATM   11  N4  UNL     1      24.788  10.237   8.496  1.00  0.00    -0.309 N 
ATOM     12  H4  UNL     1      25.651  10.299   9.036  1.00  0.00     0.186 HD
BRANCH  11  13
HETATM   13  N5  UNL     1      24.175  11.425   8.167  1.00  0.00    -0.283 N 
ATOM     14  H5  UNL     1      23.430  11.452   7.470  1.00  0.00     0.188 HD
BRANCH  13  15
HETATM   15  C9  UNL     1      24.603  12.613   8.819  1.00  0.00     0.158 A 
HETATM   16  N6  UNL     1      23.942  13.224   9.704  1.00  0.00    -0.368 N 
HETATM   17  C10 UNL     1      24.316  14.405  10.385  1.00  0.00     0.165 A 
ATOM     18  H6  UNL     1      23.040  12.821   9.957  1.00  0.00     0.161 HD
HETATM   19  C11 UNL     1      25.630  14.955   9.982  1.00  0.00     0.082 A 
HETATM   20  N7  UNL     1      26.305  14.216   8.988  1.00  0.00    -0.354 N 
HETATM   21  C12 UNL     1      25.908  13.157   8.419  1.00  0.00     0.161 A 
ATOM     22  H7  UNL     1      27.214  14.575   8.695  1.00  0.00     0.166 HD
HETATM   23  N8  UNL     1      26.686  12.490   7.417  1.00  0.00    -0.079 NA
ENDBRANCH  13  15
ENDBRANCH  11  13
ENDBRANCH   6  10
BRANCH   5  24
HETATM   24  N2  UNL     1      24.076   7.972  10.845  1.00  0.00    -0.319 N 
HETATM   25  C4  UNL     1      22.708   7.850  11.435  1.00  0.00     0.201 A 
HETATM   26  C5  UNL     1      23.613   8.897  11.860  1.00  0.00     0.303 A 
BRANCH  26  27
HETATM   27  N3  UNL     1      24.169   8.745  13.211  1.00  0.00    -0.040 N 
ATOM     28  H33 UNL     1      24.705   7.879  13.261  1.00  0.00     0.278 HD
ATOM     29  H32 UNL     1      24.907   9.434  13.353  1.00  0.00     0.278 HD
ATOM     30  H31 UNL     1      23.514   8.784  13.993  1.00  0.00     0.278 HD
ENDBRANCH  26  27
BRANCH  26  31
HETATM   31  C6  UNL     1      23.277  10.293  11.507  1.00  0.00     0.234 C 
HETATM   32  O1  UNL     1      23.910  11.275  12.007  1.00  0.00    -0.645 OA
HETATM   33  O2  UNL     1      22.269  10.582  10.627  1.00  0.00    -0.645 OA
ENDBRANCH  26  31
ENDBRANCH   5  24
BRANCH   7  34
HETATM   34  N9  UNL     1      26.274   7.813   6.644  1.00  0.00    -0.385 N 
ATOM     35  H92 UNL     1      25.946   8.737   6.366  1.00  0.00     0.157 HD
ATOM     36  H91 UNL     1      26.746   7.231   5.951  1.00  0.00     0.157 HD
ENDBRANCH   7  34
TORSDOF 7
ENDMDL
MODEL 5
REMARK VINA RESULT: -8.130359329      2.753      5.321
REMARK  7 active torsions:
REMARK  status: ('A' for Active; 'I' for Inactive)
REMARK    1  A    between atoms: C3_5  and  N2_6 
REMARK    2  A    between atoms: C5_8  and  N3_9 
REMARK    3  A    between atoms: C5_8  and  C6_13 
REMARK    4  A    between atoms: C7_16  and  C8_17 
REMARK    5  A    between atoms: N4_18  and  N5_20 
REMARK    6  A    between atoms: N5_20  and  C9_22 
REMARK    7  A    between atoms: C13_31  and  N9_32 
ROOT
HETATM    1  C1  UNL     1      25.509   7.375   2.034  1.00  0.00     0.089 C 
HETATM    2  C2  UNL     1      25.483   7.652   3.499  1.00  0.00     0.080 A 
HETATM    3  N1  UNL     1      26.561   7.506   4.282  1.00  0.00    -0.332 N 
ATOM      4  H1  UNL     1      27.445   7.193   3.882  1.00  0.00     0.168 HD
HETATM    5  C3  UNL     1      26.469   7.778   5.619  1.00  0.00     0.122 A 
HETATM    6  C7  UNL     1      25.279   8.199   6.166  1.00  0.00     0.068 A 
HETATM    7  C13 UNL     1      24.186   8.342   5.343  1.00  0.00     0.115 A 
HETATM    8  N10 UNL     1      24.322   8.065   4.040  1.00  0.00    -0.332 N 
ATOM      9  H10 UNL     1      23.511   8.172   3.431  1.00  0.00     0.168 HD
ENDROOT
BRANCH   6  10
HETATM   10  C8  UNL     1      25.200   8.489   7.603  1.00  0.00     0.126 C 
HETATM   11  N4  UNL     1      24.897   7.536   8.383  1.00  0.00    -0.309 N 
ATOM     12  H4  UNL     1      24.728   6.626   7.953  1.00  0.00     0.186 HD
BRANCH  11  13
HETATM   13  N5  UNL     1      24.774   7.608   9.753  1.00  0.00    -0.283 N 
ATOM     14  H5  UNL     1      24.419   6.815  10.287  1.00  0.00     0.188 HD
BRANCH  13  15
HETATM   15  C9  UNL     1      25.153   8.812  10.405  1.00  0.00     0.158 A 
HETATM   16  N6  UNL     1      26.316   9.068  10.822  1.00  0.00    -0.368 N 
HETATM   17  C10 UNL     1      26.749  10.244  11.476  1.00  0.00     0.165 A 
ATOM     18  H6  UNL     1      27.022   8.347  10.670  1.00  0.00     0.161 HD
HETATM   19  C11 UNL     1      25.690  11.259  11.678  1.00  0.00     0.082 A 
HETATM   20  N7  UNL     1      24.419  10.898  11.185  1.00  0.00    -0.354 N 
HETATM   21  C12 UNL     1      24.101   9.819  10.603  1.00  0.00     0.161 A 
ATOM     22  H7  UNL     1      23.673  11.582  11.311  1.00  0.00     0.166 HD
HETATM   23  N8  UNL     1      22.768   9.564  10.143  1.00  0.00    -0.079 NA
ENDBRANCH  13  15
ENDBRANCH  11  13
ENDBRANCH   6  10
BRANCH   5  24
HETATM   24  N2  UNL     1      27.657   7.594   6.384  1.00  0.00    -0.319 N 
HETATM   25  C4  UNL     1      29.120   7.294   6.352  1.00  0.00     0.201 A 
HETATM   26  C5  UNL     1      28.436   7.533   7.605  1.00  0.00     0.303 A 
BRANCH  26  27
HETATM   27  N3  UNL     1      28.749   8.806   8.266  1.00  0.00    -0.040 N 
ATOM     28  H33 UNL     1      29.311   9.383   7.641  1.00  0.00     0.278 HD
ATOM     29  H32 UNL     1      27.902   9.370   8.335  1.00  0.00     0.278 HD
ATOM     30  H31 UNL     1      29.200   8.759   9.181  1.00  0.00     0.278 HD
ENDBRANCH  26  27
BRANCH  26  31
HETATM   31  C6  UNL     1      28.279   6.398   8.540  1.00  0.00     0.234 C 
HETATM   32  O1  UNL     1      28.625   5.219   8.216  1.00  0.00    -0.645 OA
HETATM   33  O2  UNL     1      27.754   6.573   9.792  1.00  0.00    -0.645 OA
ENDBRANCH  26  31
ENDBRANCH   5  24
BRANCH   7  34
HETATM   34  N9  UNL     1      23.081   8.735   5.866  1.00  0.00    -0.385 N 
ATOM     35  H92 UNL     1      22.948   8.848   6.870  1.00  0.00     0.157 HD
ATOM     36  H91 UNL     1      22.302   8.945   5.242  1.00  0.00     0.157 HD
ENDBRANCH   7  34
TORSDOF 7
ENDMDL
