MODEL 1
REMARK VINA RESULT: -8.509084164      0.000      0.000
REMARK  7 active torsions:
REMARK  status: ('A' for Active; 'I' for Inactive)
REMARK    1  A    between atoms: S1_2  and  C2_3 
REMARK    2  A    between atoms: C3_6  and  C4_7 
REMARK    3  A    between atoms: C4_7  and  O1_8 
REMARK    4  A    between atoms: C4_7  and  C5_10 
REMARK    5  A    between atoms: C6_13  and  C7_14 
REMARK    6  A    between atoms: C7_14  and  N4_18 
REMARK    7  A    between atoms: N4_18  and  C8_20 
ROOT
HETATM    1  C5  UNL     1      25.596   7.081  10.410  1.00  0.00     0.120 A 
HETATM    2  N2  UNL     1      25.678   8.377  10.059  1.00  0.00    -0.338 N 
ATOM      3  H2  UNL     1      26.473   8.823   9.601  1.00  0.00     0.167 HD
HETATM    4  C6  UNL     1      24.519   8.992  10.418  1.00  0.00     0.119 A 
HETATM    5  C9  UNL     1      23.697   8.034  11.011  1.00  0.00     0.148 A 
HETATM    6  N9  UNL     1      22.394   8.267  11.526  1.00  0.00    -0.080 NA
HETATM    7  N10 UNL     1      24.405   6.901  10.977  1.00  0.00    -0.330 N 
ATOM      8  H10 UNL     1      24.073   6.008  11.341  1.00  0.00     0.168 HD
ENDROOT
BRANCH   4   9
HETATM    9  C7  UNL     1      24.204  10.394  10.214  1.00  0.00     0.145 C 
HETATM   10  N3  UNL     1      24.011  11.152  11.230  1.00  0.00    -0.383 N 
ATOM     11  H32 UNL     1      24.082  10.748  12.164  1.00  0.00     0.157 HD
ATOM     12  H31 UNL     1      23.790  12.137  11.088  1.00  0.00     0.157 HD
BRANCH   9  13
HETATM   13  N4  UNL     1      24.105  10.953   8.919  1.00  0.00    -0.172 N 
ATOM     14  H4  UNL     1      24.508  11.874   8.746  1.00  0.00     0.186 HD
BRANCH  13  15
HETATM   15  C8  UNL     1      23.522  10.333   7.948  1.00  0.00     0.715 A 
HETATM   16  N5  UNL     1      24.109   9.899   6.822  1.00  0.00    -0.115 N 
HETATM   17  N6  UNL     1      23.170   9.321   6.097  1.00  0.00    -0.213 N 
ATOM     18  H5  UNL     1      25.093   9.996   6.572  1.00  0.00     0.207 HD
HETATM   19  N7  UNL     1      22.013   9.375   6.727  1.00  0.00    -0.213 N 
ATOM     20  H6  UNL     1      23.317   8.895   5.182  1.00  0.00     0.210 HD
HETATM   21  N8  UNL     1      22.229   9.998   7.867  1.00  0.00    -0.115 N 
ATOM     22  H7  UNL     1      21.122   9.006   6.395  1.00  0.00     0.210 HD
ATOM     23  H8  UNL     1      21.522  10.193   8.576  1.00  0.00     0.207 HD
ENDBRANCH  13  15
ENDBRANCH   9  13
ENDBRANCH   4   9
BRANCH   1  24
HETATM   24  C4  UNL     1      26.647   6.036  10.204  1.00  0.00     0.254 C 
BRANCH  24  25
HETATM   25  C3  UNL     1      27.689   6.507   9.238  1.00  0.00     0.135 A 
HETATM   26  N1  UNL     1      27.561   6.639   7.850  1.00  0.00    -0.322 N 
HETATM   27  C2  UNL     1      28.652   7.072   7.311  1.00  0.00     0.162 A 
ATOM     28  H1  UNL     1      26.711   6.420   7.328  1.00  0.00     0.169 HD
HETATM   29  N12 UNL     1      29.563   7.243   8.387  1.00  0.00    -0.274 N 
HETATM   30  N11 UNL     1      28.884   6.868   9.561  1.00  0.00    -0.283 N 
HETATM   31  C10 UNL     1      30.931   7.716   8.267  1.00  0.00     0.180 C 
ATOM     32  H11 UNL     1      29.271   6.879  10.504  1.00  0.00     0.188 HD
BRANCH  27  33
HETATM   33  S1  UNL     1      29.011   7.408   5.594  1.00  0.00    -0.097 SA
HETATM   34  C1  UNL     1      27.739   6.658   4.539  1.00  0.00     0.099 C 
ENDBRANCH  27  33
ENDBRANCH  24  25
BRANCH  24  35
HETATM   35  O1  UNL     1      26.023   4.866   9.742  1.00  0.00    -0.380 OA
ATOM     36  H1  UNL     1      26.264   4.118  10.275  1.00  0.00     0.211 HD
ENDBRANCH  24  35
ENDBRANCH   1  24
TORSDOF 7
ENDMDL
MODEL 2
REMARK VINA RESULT: -8.484873132      0.961      1.848
REMARK  7 active torsions:
REMARK  status: ('A' for Active; 'I' for Inactive)
REMARK    1  A    between atoms: S1_2  and  C2_3 
REMARK    2  A    between atoms: C3_6  and  C4_7 
REMARK    3  A    between atoms: C4_7  and  O1_8 
REMARK    4  A    between atoms: C4_7  and  C5_10 
REMARK    5  A    between atoms: C6_13  and  C7_14 
REMARK    6  A    between atoms: C7_14  and  N4_18 
REMARK    7  A    between atoms: N4_18  and  C8_20 
ROOT
HETATM    1  C5  UNL     1      25.616   7.071  10.396  1.00  0.00     0.120 A 
HETATM    2  N2  UNL     1      25.686   8.365  10.037  1.00  0.00    -0.338 N 
ATOM      3  H2  UNL     1      26.475   8.813   9.570  1.00  0.00     0.167 HD
HETATM    4  C6  UNL     1      24.527   8.976  10.403  1.00  0.00     0.119 A 
HETATM    5  C9  UNL     1      23.717   8.016  11.009  1.00  0.00     0.148 A 
HETATM    6  N9  UNL     1      22.417   8.245  11.535  1.00  0.00    -0.080 NA
HETATM    7  N10 UNL     1      24.430   6.887  10.975  1.00  0.00    -0.330 N 
ATOM      8  H10 UNL     1      24.107   5.994  11.346  1.00  0.00     0.168 HD
ENDROOT
BRANCH   4   9
HETATM    9  C7  UNL     1      24.202  10.375  10.196  1.00  0.00     0.145 C 
HETATM   10  N3  UNL     1      23.994  11.132  11.208  1.00  0.00    -0.383 N 
ATOM     11  H32 UNL     1      24.060  10.730  12.144  1.00  0.00     0.157 HD
ATOM     12  H31 UNL     1      23.765  12.115  11.063  1.00  0.00     0.157 HD
BRANCH   9  13
HETATM   13  N4  UNL     1      24.110  10.931   8.899  1.00  0.00    -0.172 N 
ATOM     14  H4  UNL     1      24.526  11.846   8.723  1.00  0.00     0.186 HD
BRANCH  13  15
HETATM   15  C8  UNL     1      23.517  10.317   7.931  1.00  0.00     0.715 A 
HETATM   16  N5  UNL     1      24.094   9.882   6.799  1.00  0.00    -0.115 N 
HETATM   17  N6  UNL     1      23.147   9.312   6.079  1.00  0.00    -0.213 N 
ATOM     18  H5  UNL     1      25.077   9.973   6.544  1.00  0.00     0.207 HD
HETATM   19  N7  UNL     1      21.994   9.371   6.716  1.00  0.00    -0.213 N 
ATOM     20  H6  UNL     1      23.286   8.886   5.163  1.00  0.00     0.210 HD
HETATM   21  N8  UNL     1      22.221   9.990   7.856  1.00  0.00    -0.115 N 
ATOM     22  H7  UNL     1      21.099   9.008   6.389  1.00  0.00     0.210 HD
ATOM     23  H8  UNL     1      21.520  10.189   8.571  1.00  0.00     0.207 HD
ENDBRANCH  13  15
ENDBRANCH   9  13
ENDBRANCH   4   9
BRANCH   1  24
HETATM   24  C4  UNL     1      26.670   6.031  10.186  1.00  0.00     0.254 C 
BRANCH  24  25
HETATM   25  C3  UNL     1      27.705   6.506   9.214  1.00  0.00     0.135 A 
HETATM   26  N1  UNL     1      28.982   7.000   9.508  1.00  0.00    -0.322 N 
HETATM   27  C2  UNL     1      29.624   7.325   8.436  1.00  0.00     0.162 A 
ATOM     28  H1  UNL     1      29.358   7.091  10.452  1.00  0.00     0.169 HD
HETATM   29  N12 UNL     1      28.740   7.036   7.363  1.00  0.00    -0.274 N 
HETATM   30  N11 UNL     1      27.559   6.527   7.932  1.00  0.00    -0.283 N 
HETATM   31  C10 UNL     1      29.027   7.240   5.954  1.00  0.00     0.180 C 
ATOM     32  H11 UNL     1      26.730   6.226   7.420  1.00  0.00     0.188 HD
BRANCH  27  33
HETATM   33  S1  UNL     1      31.270   7.995   8.261  1.00  0.00    -0.097 SA
HETATM   34  C1  UNL     1      32.357   7.304   9.539  1.00  0.00     0.099 C 
ENDBRANCH  27  33
ENDBRANCH  24  25
BRANCH  24  35
HETATM   35  O1  UNL     1      26.050   4.857   9.728  1.00  0.00    -0.380 OA
ATOM     36  H1  UNL     1      26.583   4.094   9.917  1.00  0.00     0.211 HD
ENDBRANCH  24  35
ENDBRANCH   1  24
TORSDOF 7
ENDMDL
MODEL 3
REMARK VINA RESULT: -8.393313472      2.406      4.650
REMARK  7 active torsions:
REMARK  status: ('A' for Active; 'I' for Inactive)
REMARK    1  A    between atoms: S1_2  and  C2_3 
REMARK    2  A    between atoms: C3_6  and  C4_7 
REMARK    3  A    between atoms: C4_7  and  O1_8 
REMARK    4  A    between atoms: C4_7  and  C5_10 
REMARK    5  A    between atoms: C6_13  and  C7_14 
REMARK    6  A    between atoms: C7_14  and  N4_18 
REMARK    7  A    between atoms: N4_18  and  C8_20 
ROOT
HETATM    1  C5  UNL     1      24.138   9.701   8.167  1.00  0.00     0.120 A 
HETATM    2  N2  UNL     1      24.287   8.564   8.870  1.00  0.00    -0.338 N 
ATOM      3  H2  UNL     1      24.788   7.731   8.560  1.00  0.00     0.167 HD
HETATM    4  C6  UNL     1      23.655   8.713  10.065  1.00  0.00     0.119 A 
HETATM    5  C9  UNL     1      23.098   9.991  10.094  1.00  0.00     0.148 A 
HETATM    6  N9  UNL     1      22.352  10.545  11.168  1.00  0.00    -0.080 NA
HETATM    7  N10 UNL     1      23.425  10.538   8.918  1.00  0.00    -0.330 N 
ATOM      8  H10 UNL     1      23.160  11.480   8.632  1.00  0.00     0.168 HD
ENDROOT
BRANCH   4   9
HETATM    9  C7  UNL     1      23.579   7.714  11.116  1.00  0.00     0.145 C 
HETATM   10  N3  UNL     1      22.440   7.412  11.619  1.00  0.00    -0.383 N 
ATOM     11  H32 UNL     1      21.607   7.885  11.268  1.00  0.00     0.157 HD
ATOM     12  H31 UNL     1      22.386   6.710  12.357  1.00  0.00     0.157 HD
BRANCH   9  13
HETATM   13  N4  UNL     1      24.734   7.060  11.603  1.00  0.00    -0.172 N 
ATOM     14  H4  UNL     1      24.732   6.043  11.674  1.00  0.00     0.186 HD
BRANCH  13  15
HETATM   15  C8  UNL     1      25.791   7.710  11.959  1.00  0.00     0.715 A 
HETATM   16  N5  UNL     1      26.983   7.680  11.342  1.00  0.00    -0.115 N 
HETATM   17  N6  UNL     1      27.786   8.479  12.018  1.00  0.00    -0.213 N 
ATOM     18  H5  UNL     1      27.223   7.142  10.510  1.00  0.00     0.207 HD
HETATM   19  N7  UNL     1      27.143   9.012  13.038  1.00  0.00    -0.213 N 
ATOM     20  H6  UNL     1      28.763   8.659  11.786  1.00  0.00     0.210 HD
HETATM   21  N8  UNL     1      25.914   8.540  13.002  1.00  0.00    -0.115 N 
ATOM     22  H7  UNL     1      27.524   9.666  13.723  1.00  0.00     0.210 HD
ATOM     23  H8  UNL     1      25.173   8.770  13.664  1.00  0.00     0.207 HD
ENDBRANCH  13  15
ENDBRANCH   9  13
ENDBRANCH   4   9
BRANCH   1  24
HETATM   24  C4  UNL     1      24.672   9.976   6.797  1.00  0.00     0.254 C 
BRANCH  24  25
HETATM   25  C3  UNL     1      25.856   9.109   6.500  1.00  0.00     0.135 A 
HETATM   26  N1  UNL     1      27.077   9.076   7.186  1.00  0.00    -0.322 N 
HETATM   27  C2  UNL     1      27.888   8.213   6.671  1.00  0.00     0.162 A 
ATOM     28  H1  UNL     1      27.298   9.661   7.992  1.00  0.00     0.169 HD
HETATM   29  N12 UNL     1      27.182   7.632   5.584  1.00  0.00    -0.274 N 
HETATM   30  N11 UNL     1      25.917   8.247   5.543  1.00  0.00    -0.283 N 
HETATM   31  C10 UNL     1      27.695   6.601   4.699  1.00  0.00     0.180 C 
ATOM     32  H11 UNL     1      25.176   8.045   4.872  1.00  0.00     0.188 HD
BRANCH  27  33
HETATM   33  S1  UNL     1      29.550   7.786   7.164  1.00  0.00    -0.097 SA
HETATM   34  C1  UNL     1      29.501   6.656   8.583  1.00  0.00     0.099 C 
ENDBRANCH  27  33
ENDBRANCH  24  25
BRANCH  24  35
HETATM   35  O1  UNL     1      25.011  11.336   6.719  1.00  0.00    -0.380 OA
ATOM     36  H1  UNL     1      25.073  11.621   5.814  1.00  0.00     0.211 HD
ENDBRANCH  24  35
ENDBRANCH   1  24
TORSDOF 7
ENDMDL
MODEL 4
REMARK VINA RESULT: -8.317447132      2.558      3.829
REMARK  7 active torsions:
REMARK  status: ('A' for Active; 'I' for Inactive)
REMARK    1  A    between atoms: S1_2  and  C2_3 
REMARK    2  A    between atoms: C3_6  and  C4_7 
REMARK    3  A    between atoms: C4_7  and  O1_8 
REMARK    4  A    between atoms: C4_7  and  C5_10 
REMARK    5  A    between atoms: C6_13  and  C7_14 
REMARK    6  A    between atoms: C7_14  and  N4_18 
REMARK    7  A    between atoms: N4_18  and  C8_20 
ROOT
HETATM    1  C5  UNL     1      25.752   8.071   9.264  1.00  0.00     0.120 A 
HETATM    2  N2  UNL     1      24.661   8.084   8.477  1.00  0.00    -0.338 N 
ATOM      3  H2  UNL     1      23.865   7.451   8.551  1.00  0.00     0.167 HD
HETATM    4  C6  UNL     1      24.802   9.084   7.566  1.00  0.00     0.119 A 
HETATM    5  C9  UNL     1      26.026   9.707   7.806  1.00  0.00     0.148 A 
HETATM    6  N9  UNL     1      26.554  10.803   7.073  1.00  0.00    -0.080 NA
HETATM    7  N10 UNL     1      26.553   9.049   8.843  1.00  0.00    -0.330 N 
ATOM      8  H10 UNL     1      27.457   9.269   9.261  1.00  0.00     0.168 HD
ENDROOT
BRANCH   4   9
HETATM    9  C7  UNL     1      23.843   9.432   6.533  1.00  0.00     0.145 C 
HETATM   10  N3  UNL     1      22.589   9.331   6.776  1.00  0.00    -0.383 N 
ATOM     11  H32 UNL     1      22.292   9.004   7.696  1.00  0.00     0.157 HD
ATOM     12  H31 UNL     1      21.914   9.576   6.051  1.00  0.00     0.157 HD
BRANCH   9  13
HETATM   13  N4  UNL     1      24.255   9.885   5.259  1.00  0.00    -0.172 N 
ATOM     14  H4  UNL     1      24.370  10.887   5.103  1.00  0.00     0.186 HD
BRANCH  13  15
HETATM   15  C8  UNL     1      24.492   9.070   4.286  1.00  0.00     0.715 A 
HETATM   16  N5  UNL     1      23.866   9.052   3.099  1.00  0.00    -0.115 N 
HETATM   17  N6  UNL     1      24.403   8.074   2.395  1.00  0.00    -0.213 N 
ATOM     18  H5  UNL     1      23.118   9.676   2.797  1.00  0.00     0.207 HD
HETATM   19  N7  UNL     1      25.346   7.475   3.096  1.00  0.00    -0.213 N 
ATOM     20  H6  UNL     1      24.130   7.818   1.447  1.00  0.00     0.210 HD
HETATM   21  N8  UNL     1      25.402   8.088   4.260  1.00  0.00    -0.115 N 
ATOM     22  H7  UNL     1      25.921   6.688   2.794  1.00  0.00     0.210 HD
ATOM     23  H8  UNL     1      26.038   7.851   5.022  1.00  0.00     0.207 HD
ENDBRANCH  13  15
ENDBRANCH   9  13
ENDBRANCH   4   9
BRANCH   1  24
HETATM   24  C4  UNL     1      26.020   7.134  10.399  1.00  0.00     0.254 C 
BRANCH  24  25
HETATM   25  C3  UNL     1      27.050   6.115  10.021  1.00  0.00     0.135 A 
HETATM   26  N1  UNL     1      28.236   6.332   9.309  1.00  0.00    -0.322 N 
HETATM   27  C2  UNL     1      28.902   5.237   9.150  1.00  0.00     0.162 A 
ATOM     28  H1  UNL     1      28.537   7.242   8.959  1.00  0.00     0.169 HD
HETATM   29  N12 UNL     1      28.129   4.229   9.787  1.00  0.00    -0.274 N 
HETATM   30  N11 UNL     1      26.984   4.859  10.307  1.00  0.00    -0.283 N 
HETATM   31  C10 UNL     1      28.480   2.822   9.868  1.00  0.00     0.180 C 
ATOM     32  H11 UNL     1      26.232   4.402  10.822  1.00  0.00     0.188 HD
BRANCH  27  33
HETATM   33  S1  UNL     1      30.462   4.969   8.324  1.00  0.00    -0.097 SA
HETATM   34  C1  UNL     1      30.952   6.471   7.431  1.00  0.00     0.099 C 
ENDBRANCH  27  33
ENDBRANCH  24  25
BRANCH  24  35
HETATM   35  O1  UNL     1      24.810   6.519  10.759  1.00  0.00    -0.380 OA
ATOM     36  H1  UNL     1      24.945   5.881  11.450  1.00  0.00     0.211 HD
ENDBRANCH  24  35
ENDBRANCH   1  24
TORSDOF 7
ENDMDL
MODEL 5
REMARK VINA RESULT: -8.304670476      2.733      4.557
REMARK  7 active torsions:
REMARK  status: ('A' for Active; 'I' for Inactive)
REMARK    1  A    between atoms: S1_2  and  C2_3 
REMARK    2  A    between atoms: C3_6  and  C4_7 
REMARK    3  A    between atoms: C4_7  and  O1_8 
REMARK    4  A    between atoms: C4_7  and  C5_10 
REMARK    5  A    between atoms: C6_13  and  C7_14 
REMARK    6  A    between atoms: C7_14  and  N4_18 
REMARK    7  A    between atoms: N4_18  and  C8_20 
ROOT
HETATM    1  C5  UNL     1      23.595   9.808   7.133  1.00  0.00     0.120 A 
HETATM    2  N2  UNL     1      24.537  10.547   7.747  1.00  0.00    -0.338 N 
ATOM      3  H2  UNL     1      25.489  10.697   7.413  1.00  0.00     0.167 HD
HETATM    4  C6  UNL     1      24.003  11.059   8.889  1.00  0.00     0.119 A 
HETATM    5  C9  UNL     1      22.684  10.617   8.975  1.00  0.00     0.148 A 
HETATM    6  N9  UNL     1      21.774  10.928  10.021  1.00  0.00    -0.080 NA
HETATM    7  N10 UNL     1      22.497   9.865   7.886  1.00  0.00    -0.330 N 
ATOM      8  H10 UNL     1      21.622   9.393   7.659  1.00  0.00     0.168 HD
ENDROOT
BRANCH   4   9
HETATM    9  C7  UNL     1      24.693  11.913   9.839  1.00  0.00     0.145 C 
HETATM   10  N3  UNL     1      25.526  12.787   9.413  1.00  0.00    -0.383 N 
ATOM     11  H32 UNL     1      25.688  12.864   8.408  1.00  0.00     0.157 HD
ATOM     12  H31 UNL     1      26.011  13.388  10.080  1.00  0.00     0.157 HD
BRANCH   9  13
HETATM   13  N4  UNL     1      24.468  11.807  11.231  1.00  0.00    -0.172 N 
ATOM     14  H4  UNL     1      24.153  12.629  11.745  1.00  0.00     0.186 HD
BRANCH  13  15
HETATM   15  C8  UNL     1      24.650  10.701  11.872  1.00  0.00     0.715 A 
HETATM   16  N5  UNL     1      25.826  10.086  12.073  1.00  0.00    -0.115 N 
HETATM   17  N6  UNL     1      25.576   8.994  12.769  1.00  0.00    -0.213 N 
ATOM     18  H5  UNL     1      26.740  10.404  11.749  1.00  0.00     0.207 HD
HETATM   19  N7  UNL     1      24.285   8.898  13.015  1.00  0.00    -0.213 N 
ATOM     20  H6  UNL     1      26.280   8.321  13.073  1.00  0.00     0.210 HD
HETATM   21  N8  UNL     1      23.713   9.948  12.463  1.00  0.00    -0.115 N 
ATOM     22  H7  UNL     1      23.818   8.153  13.533  1.00  0.00     0.210 HD
ATOM     23  H8  UNL     1      22.715  10.156  12.483  1.00  0.00     0.207 HD
ENDBRANCH  13  15
ENDBRANCH   9  13
ENDBRANCH   4   9
BRANCH   1  24
HETATM   24  C4  UNL     1      23.749   9.061   5.847  1.00  0.00     0.254 C 
BRANCH  24  25
HETATM   25  C3  UNL     1      25.024   8.277   5.832  1.00  0.00     0.135 A 
HETATM   26  N1  UNL     1      25.669   7.686   6.926  1.00  0.00    -0.322 N 
HETATM   27  C2  UNL     1      26.753   7.082   6.568  1.00  0.00     0.162 A 
ATOM     28  H1  UNL     1      25.326   7.727   7.885  1.00  0.00     0.169 HD
HETATM   29  N12 UNL     1      26.846   7.272   5.164  1.00  0.00    -0.274 N 
HETATM   30  N11 UNL     1      25.726   8.030   4.778  1.00  0.00    -0.283 N 
HETATM   31  C10 UNL     1      27.909   6.768   4.312  1.00  0.00     0.180 C 
ATOM     32  H11 UNL     1      25.507   8.333   3.830  1.00  0.00     0.188 HD
BRANCH  27  33
HETATM   33  S1  UNL     1      27.929   6.180   7.565  1.00  0.00    -0.097 SA
HETATM   34  C1  UNL     1      27.299   6.010   9.258  1.00  0.00     0.099 C 
ENDBRANCH  27  33
ENDBRANCH  24  25
BRANCH  24  35
HETATM   35  O1  UNL     1      23.713   9.986   4.790  1.00  0.00    -0.380 OA
ATOM     36  H1  UNL     1      24.036  10.835   5.070  1.00  0.00     0.211 HD
ENDBRANCH  24  35
ENDBRANCH   1  24
TORSDOF 7
ENDMDL
