MODEL 1
REMARK VINA RESULT: -7.973523492      0.000      0.000
REMARK  19 active torsions:
REMARK  status: ('A' for Active; 'I' for Inactive)
REMARK    1  A    between atoms: C2_2  and  C3_3 
REMARK    2  A    between atoms: C3_3  and  C5_5 
REMARK    3  A    between atoms: C5_5  and  O1_6 
REMARK    4  A    between atoms: C5_5  and  C6_8 
REMARK    5  A    between atoms: C6_8  and  O2_9 
REMARK    6  A    between atoms: C6_8  and  C7_11 
REMARK    7  A    between atoms: C7_11  and  O3_12 
REMARK    8  A    between atoms: C7_11  and  C8_14 
REMARK    9  A    between atoms: C11_17  and  C12_18 
REMARK   10  A    between atoms: C12_18  and  C13_19 
REMARK   11  A    between atoms: C13_19  and  O4_20 
REMARK   12  A    between atoms: C13_19  and  C14_22 
REMARK   13  A    between atoms: C15_23  and  C17_25 
REMARK   14  A    between atoms: C17_25  and  C18_27 
REMARK   15  A    between atoms: C18_27  and  C19_28 
REMARK   16  A    between atoms: C19_28  and  C20_29 
REMARK   17  A    between atoms: C20_29  and  O7_31 
REMARK   18  A    between atoms: O7_31  and  C21_32 
REMARK   19  A    between atoms: C26_37  and  O8_38 
ROOT
HETATM    1  C13 UNL     1      28.541  28.859  17.829  1.00  0.00     0.144 C 
ENDROOT
BRANCH   1   2
HETATM    2  C12 UNL     1      27.165  29.422  17.703  1.00  0.00     0.067 C 
BRANCH   2   3
HETATM    3  C11 UNL     1      26.345  29.434  18.940  1.00  0.00     0.124 C 
HETATM    4  C10 UNL     1      26.914  30.265  20.041  1.00  0.00     0.032 C 
HETATM    5  C9  UNL     1      25.829  30.510  21.051  1.00  0.00     0.012 C 
HETATM    6  C8  UNL     1      24.688  29.542  20.834  1.00  0.00     0.041 C 
HETATM    7  C27 UNL     1      25.131  28.186  20.423  1.00  0.00     0.175 C 
HETATM    8  O9  UNL     1      26.130  28.163  19.449  1.00  0.00    -0.385 OA
BRANCH   6   9
HETATM    9  C7  UNL     1      23.982  29.421  22.191  1.00  0.00     0.155 C 
BRANCH   9  10
HETATM   10  C6  UNL     1      22.502  29.270  22.078  1.00  0.00     0.176 C 
BRANCH  10  11
HETATM   11  C5  UNL     1      21.884  29.978  23.279  1.00  0.00     0.153 C 
BRANCH  11  12
HETATM   12  C3  UNL     1      20.387  30.001  23.222  1.00  0.00     0.012 C 
HETATM   13  C4  UNL     1      19.799  29.395  24.451  1.00  0.00     0.012 C 
BRANCH  12  14
HETATM   14  C2  UNL     1      19.872  31.433  23.124  1.00  0.00     0.002 C 
HETATM   15  C1  UNL     1      20.026  32.197  24.405  1.00  0.00     0.005 C 
ENDBRANCH  12  14
ENDBRANCH  11  12
BRANCH  11  16
HETATM   16  O1  UNL     1      22.295  29.486  24.488  1.00  0.00    -0.393 OA
ATOM     17  H1  UNL     1      23.058  29.966  24.789  1.00  0.00     0.210 HD
ENDBRANCH  11  16
ENDBRANCH  10  11
BRANCH  10  18
HETATM   18  O2  UNL     1      22.017  27.994  22.028  1.00  0.00    -0.390 OA
ATOM     19  H2  UNL     1      22.449  27.533  21.318  1.00  0.00     0.210 HD
ENDBRANCH  10  18
ENDBRANCH   9  10
BRANCH   9  20
HETATM   20  O3  UNL     1      24.201  30.689  22.792  1.00  0.00    -0.392 OA
ATOM     21  H3  UNL     1      24.707  31.191  22.164  1.00  0.00     0.210 HD
ENDBRANCH   9  20
ENDBRANCH   6   9
ENDBRANCH   2   3
ENDBRANCH   1   2
BRANCH   1  22
HETATM   22  O4  UNL     1      28.609  27.537  17.327  1.00  0.00    -0.392 OA
ATOM     23  H4  UNL     1      29.452  27.359  16.926  1.00  0.00     0.210 HD
ENDBRANCH   1  22
BRANCH   1  24
HETATM   24  C14 UNL     1      29.598  29.651  17.209  1.00  0.00     0.015 C 
HETATM   25  C15 UNL     1      30.582  30.235  17.893  1.00  0.00    -0.018 C 
HETATM   26  C16 UNL     1      30.631  30.090  19.354  1.00  0.00     0.052 C 
BRANCH  25  27
HETATM   27  C17 UNL     1      31.617  31.000  17.206  1.00  0.00     0.155 C 
HETATM   28  O5  UNL     1      31.482  31.284  15.962  1.00  0.00    -0.293 OA
BRANCH  27  29
HETATM   29  C18 UNL     1      32.814  31.456  17.894  1.00  0.00     0.093 C 
BRANCH  29  30
HETATM   30  C19 UNL     1      34.036  30.621  17.700  1.00  0.00     0.118 C 
BRANCH  30  31
HETATM   31  C20 UNL     1      34.910  30.474  18.855  1.00  0.00     0.259 C 
HETATM   32  O6  UNL     1      36.171  30.637  18.689  1.00  0.00    -0.265 OA
BRANCH  31  33
HETATM   33  O7  UNL     1      34.548  30.171  20.157  1.00  0.00    -0.313 OA
BRANCH  33  34
HETATM   34  C21 UNL     1      34.823  28.882  20.722  1.00  0.00     0.161 C 
HETATM   35  C22 UNL     1      33.619  28.494  21.550  1.00  0.00     0.039 C 
HETATM   36  C23 UNL     1      34.184  27.292  22.319  1.00  0.00    -0.014 C 
HETATM   37  C24 UNL     1      33.992  26.066  21.418  1.00  0.00     0.010 C 
HETATM   38  C25 UNL     1      35.646  27.586  22.494  1.00  0.00     0.038 C 
HETATM   39  C26 UNL     1      35.907  28.907  21.753  1.00  0.00     0.148 C 
BRANCH  39  40
HETATM   40  O8  UNL     1      35.748  29.967  22.625  1.00  0.00    -0.393 OA
ATOM     41  H8  UNL     1      36.587  30.300  22.922  1.00  0.00     0.210 HD
ENDBRANCH  39  40
ENDBRANCH  33  34
ENDBRANCH  31  33
ENDBRANCH  30  31
ENDBRANCH  29  30
ENDBRANCH  27  29
ENDBRANCH  25  27
ENDBRANCH   1  24
TORSDOF 19
ENDMDL
MODEL 2
REMARK VINA RESULT: -7.735923085      2.215     10.083
REMARK  19 active torsions:
REMARK  status: ('A' for Active; 'I' for Inactive)
REMARK    1  A    between atoms: C2_2  and  C3_3 
REMARK    2  A    between atoms: C3_3  and  C5_5 
REMARK    3  A    between atoms: C5_5  and  O1_6 
REMARK    4  A    between atoms: C5_5  and  C6_8 
REMARK    5  A    between atoms: C6_8  and  O2_9 
REMARK    6  A    between atoms: C6_8  and  C7_11 
REMARK    7  A    between atoms: C7_11  and  O3_12 
REMARK    8  A    between atoms: C7_11  and  C8_14 
REMARK    9  A    between atoms: C11_17  and  C12_18 
REMARK   10  A    between atoms: C12_18  and  C13_19 
REMARK   11  A    between atoms: C13_19  and  O4_20 
REMARK   12  A    between atoms: C13_19  and  C14_22 
REMARK   13  A    between atoms: C15_23  and  C17_25 
REMARK   14  A    between atoms: C17_25  and  C18_27 
REMARK   15  A    between atoms: C18_27  and  C19_28 
REMARK   16  A    between atoms: C19_28  and  C20_29 
REMARK   17  A    between atoms: C20_29  and  O7_31 
REMARK   18  A    between atoms: O7_31  and  C21_32 
REMARK   19  A    between atoms: C26_37  and  O8_38 
ROOT
HETATM    1  C13 UNL     1      30.396  30.844  15.837  1.00  0.00     0.144 C 
ENDROOT
BRANCH   1   2
HETATM    2  C12 UNL     1      31.813  30.709  15.392  1.00  0.00     0.067 C 
BRANCH   2   3
HETATM    3  C11 UNL     1      32.837  30.662  16.465  1.00  0.00     0.124 C 
HETATM    4  C10 UNL     1      32.553  31.564  17.619  1.00  0.00     0.032 C 
HETATM    5  C9  UNL     1      33.418  31.137  18.771  1.00  0.00     0.012 C 
HETATM    6  C8  UNL     1      34.530  30.238  18.281  1.00  0.00     0.041 C 
HETATM    7  C27 UNL     1      35.071  30.631  16.955  1.00  0.00     0.175 C 
HETATM    8  O9  UNL     1      34.107  30.966  16.004  1.00  0.00    -0.385 OA
BRANCH   6   9
HETATM    9  C7  UNL     1      35.658  30.372  19.313  1.00  0.00     0.155 C 
BRANCH   9  10
HETATM   10  C6  UNL     1      35.861  29.143  20.134  1.00  0.00     0.176 C 
BRANCH  10  11
HETATM   11  C5  UNL     1      35.191  29.385  21.482  1.00  0.00     0.153 C 
BRANCH  11  12
HETATM   12  C3  UNL     1      34.157  28.349  21.802  1.00  0.00     0.012 C 
HETATM   13  C4  UNL     1      32.830  28.735  21.243  1.00  0.00     0.012 C 
BRANCH  12  14
HETATM   14  C2  UNL     1      34.536  27.002  21.196  1.00  0.00     0.002 C 
HETATM   15  C1  UNL     1      35.224  26.095  22.172  1.00  0.00     0.005 C 
ENDBRANCH  12  14
ENDBRANCH  11  12
BRANCH  11  16
HETATM   16  O1  UNL     1      36.068  29.504  22.526  1.00  0.00    -0.393 OA
ATOM     17  H1  UNL     1      36.961  29.455  22.205  1.00  0.00     0.210 HD
ENDBRANCH  11  16
ENDBRANCH  10  11
BRANCH  10  18
HETATM   18  O2  UNL     1      37.153  28.757  20.352  1.00  0.00    -0.390 OA
ATOM     19  H2  UNL     1      37.626  28.802  19.529  1.00  0.00     0.210 HD
ENDBRANCH  10  18
ENDBRANCH   9  10
BRANCH   9  20
HETATM   20  O3  UNL     1      35.171  31.363  20.208  1.00  0.00    -0.392 OA
ATOM     21  H3  UNL     1      35.934  31.705  20.658  1.00  0.00     0.210 HD
ENDBRANCH   9  20
ENDBRANCH   6   9
ENDBRANCH   2   3
ENDBRANCH   1   2
BRANCH   1  22
HETATM   22  O4  UNL     1      29.701  31.811  15.071  1.00  0.00    -0.392 OA
ATOM     23  H4  UNL     1      28.843  31.497  14.809  1.00  0.00     0.210 HD
ENDBRANCH   1  22
BRANCH   1  24
HETATM   24  C14 UNL     1      29.623  29.606  15.843  1.00  0.00     0.015 C 
HETATM   25  C15 UNL     1      29.187  29.012  16.954  1.00  0.00    -0.018 C 
HETATM   26  C16 UNL     1      29.486  29.615  18.260  1.00  0.00     0.052 C 
BRANCH  25  27
HETATM   27  C17 UNL     1      28.404  27.783  16.885  1.00  0.00     0.155 C 
HETATM   28  O5  UNL     1      28.995  26.646  16.939  1.00  0.00    -0.293 OA
BRANCH  27  29
HETATM   29  C18 UNL     1      26.956  27.806  16.754  1.00  0.00     0.093 C 
BRANCH  29  30
HETATM   30  C19 UNL     1      26.196  27.034  17.780  1.00  0.00     0.118 C 
BRANCH  30  31
HETATM   31  C20 UNL     1      25.739  27.779  18.944  1.00  0.00     0.259 C 
HETATM   32  O6  UNL     1      25.056  27.159  19.834  1.00  0.00    -0.265 OA
BRANCH  31  33
HETATM   33  O7  UNL     1      25.950  29.118  19.228  1.00  0.00    -0.313 OA
BRANCH  33  34
HETATM   34  C21 UNL     1      25.601  29.670  20.504  1.00  0.00     0.161 C 
HETATM   35  C22 UNL     1      24.408  30.573  20.286  1.00  0.00     0.039 C 
HETATM   36  C23 UNL     1      24.365  31.310  21.631  1.00  0.00    -0.014 C 
HETATM   37  C24 UNL     1      23.554  30.428  22.588  1.00  0.00     0.010 C 
HETATM   38  C25 UNL     1      25.795  31.392  22.084  1.00  0.00     0.038 C 
HETATM   39  C26 UNL     1      26.619  30.631  21.032  1.00  0.00     0.148 C 
BRANCH  39  40
HETATM   40  O8  UNL     1      27.042  31.507  20.051  1.00  0.00    -0.393 OA
ATOM     41  H8  UNL     1      27.939  31.331  19.793  1.00  0.00     0.210 HD
ENDBRANCH  39  40
ENDBRANCH  33  34
ENDBRANCH  31  33
ENDBRANCH  30  31
ENDBRANCH  29  30
ENDBRANCH  27  29
ENDBRANCH  25  27
ENDBRANCH   1  24
TORSDOF 19
ENDMDL
MODEL 3
REMARK VINA RESULT: -7.651608717      1.309     11.358
REMARK  19 active torsions:
REMARK  status: ('A' for Active; 'I' for Inactive)
REMARK    1  A    between atoms: C2_2  and  C3_3 
REMARK    2  A    between atoms: C3_3  and  C5_5 
REMARK    3  A    between atoms: C5_5  and  O1_6 
REMARK    4  A    between atoms: C5_5  and  C6_8 
REMARK    5  A    between atoms: C6_8  and  O2_9 
REMARK    6  A    between atoms: C6_8  and  C7_11 
REMARK    7  A    between atoms: C7_11  and  O3_12 
REMARK    8  A    between atoms: C7_11  and  C8_14 
REMARK    9  A    between atoms: C11_17  and  C12_18 
REMARK   10  A    between atoms: C12_18  and  C13_19 
REMARK   11  A    between atoms: C13_19  and  O4_20 
REMARK   12  A    between atoms: C13_19  and  C14_22 
REMARK   13  A    between atoms: C15_23  and  C17_25 
REMARK   14  A    between atoms: C17_25  and  C18_27 
REMARK   15  A    between atoms: C18_27  and  C19_28 
REMARK   16  A    between atoms: C19_28  and  C20_29 
REMARK   17  A    between atoms: C20_29  and  O7_31 
REMARK   18  A    between atoms: O7_31  and  C21_32 
REMARK   19  A    between atoms: C26_37  and  O8_38 
ROOT
HETATM    1  C13 UNL     1      29.273  29.419  17.469  1.00  0.00     0.144 C 
ENDROOT
BRANCH   1   2
HETATM    2  C12 UNL     1      30.185  30.481  16.953  1.00  0.00     0.067 C 
BRANCH   2   3
HETATM    3  C11 UNL     1      31.532  30.546  17.571  1.00  0.00     0.124 C 
HETATM    4  C10 UNL     1      31.596  31.375  18.810  1.00  0.00     0.032 C 
HETATM    5  C9  UNL     1      32.871  31.041  19.532  1.00  0.00     0.012 C 
HETATM    6  C8  UNL     1      33.816  30.310  18.606  1.00  0.00     0.041 C 
HETATM    7  C27 UNL     1      33.775  30.803  17.206  1.00  0.00     0.175 C 
HETATM    8  O9  UNL     1      32.495  31.029  16.699  1.00  0.00    -0.385 OA
BRANCH   6   9
HETATM    9  C7  UNL     1      35.224  30.569  19.160  1.00  0.00     0.155 C 
BRANCH   9  10
HETATM   10  C6  UNL     1      36.006  29.322  19.401  1.00  0.00     0.176 C 
BRANCH  10  11
HETATM   11  C5  UNL     1      35.712  28.874  20.828  1.00  0.00     0.153 C 
BRANCH  11  12
HETATM   12  C3  UNL     1      35.110  27.504  20.886  1.00  0.00     0.012 C 
HETATM   13  C4  UNL     1      35.763  26.681  21.944  1.00  0.00     0.012 C 
BRANCH  12  14
HETATM   14  C2  UNL     1      33.624  27.581  21.218  1.00  0.00     0.002 C 
HETATM   15  C1  UNL     1      33.308  28.627  22.245  1.00  0.00     0.005 C 
ENDBRANCH  12  14
ENDBRANCH  11  12
BRANCH  11  16
HETATM   16  O1  UNL     1      36.792  28.943  21.667  1.00  0.00    -0.393 OA
ATOM     17  H1  UNL     1      37.532  28.494  21.277  1.00  0.00     0.210 HD
ENDBRANCH  11  16
ENDBRANCH  10  11
BRANCH  10  18
HETATM   18  O2  UNL     1      37.360  29.406  19.241  1.00  0.00    -0.390 OA
ATOM     19  H2  UNL     1      37.561  29.333  18.315  1.00  0.00     0.210 HD
ENDBRANCH  10  18
ENDBRANCH   9  10
BRANCH   9  20
HETATM   20  O3  UNL     1      34.976  31.129  20.442  1.00  0.00    -0.392 OA
ATOM     21  H3  UNL     1      35.667  31.763  20.588  1.00  0.00     0.210 HD
ENDBRANCH   9  20
ENDBRANCH   6   9
ENDBRANCH   2   3
ENDBRANCH   1   2
BRANCH   1  22
HETATM   22  O4  UNL     1      29.995  28.290  17.925  1.00  0.00    -0.392 OA
ATOM     23  H4  UNL     1      29.461  27.504  17.909  1.00  0.00     0.210 HD
ENDBRANCH   1  22
BRANCH   1  24
HETATM   24  C14 UNL     1      28.352  29.842  18.519  1.00  0.00     0.015 C 
HETATM   25  C15 UNL     1      27.087  29.432  18.603  1.00  0.00    -0.018 C 
HETATM   26  C16 UNL     1      26.561  28.501  17.595  1.00  0.00     0.052 C 
BRANCH  25  27
HETATM   27  C17 UNL     1      26.227  29.883  19.691  1.00  0.00     0.155 C 
HETATM   28  O5  UNL     1      26.458  31.008  20.264  1.00  0.00    -0.293 OA
BRANCH  27  29
HETATM   29  C18 UNL     1      25.101  29.088  20.155  1.00  0.00     0.093 C 
BRANCH  29  30
HETATM   30  C19 UNL     1      24.429  29.572  21.397  1.00  0.00     0.118 C 
BRANCH  30  31
HETATM   31  C20 UNL     1      23.737  28.568  22.192  1.00  0.00     0.259 C 
HETATM   32  O6  UNL     1      23.798  27.344  21.814  1.00  0.00    -0.265 OA
BRANCH  31  33
HETATM   33  O7  UNL     1      22.995  28.766  23.344  1.00  0.00    -0.313 OA
BRANCH  33  34
HETATM   34  C21 UNL     1      21.810  29.574  23.334  1.00  0.00     0.161 C 
HETATM   35  C22 UNL     1      21.572  30.033  24.754  1.00  0.00     0.039 C 
HETATM   36  C23 UNL     1      20.148  30.589  24.634  1.00  0.00    -0.014 C 
HETATM   37  C24 UNL     1      20.283  32.042  24.161  1.00  0.00     0.010 C 
HETATM   38  C25 UNL     1      19.485  29.756  23.575  1.00  0.00     0.038 C 
HETATM   39  C26 UNL     1      20.565  28.794  23.053  1.00  0.00     0.148 C 
BRANCH  39  40
HETATM   40  O8  UNL     1      20.531  27.619  23.779  1.00  0.00    -0.393 OA
ATOM     41  H8  UNL     1      20.041  27.725  24.586  1.00  0.00     0.210 HD
ENDBRANCH  39  40
ENDBRANCH  33  34
ENDBRANCH  31  33
ENDBRANCH  30  31
ENDBRANCH  29  30
ENDBRANCH  27  29
ENDBRANCH  25  27
ENDBRANCH   1  24
TORSDOF 19
ENDMDL
MODEL 4
REMARK VINA RESULT: -7.574799999      1.591      2.838
REMARK  19 active torsions:
REMARK  status: ('A' for Active; 'I' for Inactive)
REMARK    1  A    between atoms: C2_2  and  C3_3 
REMARK    2  A    between atoms: C3_3  and  C5_5 
REMARK    3  A    between atoms: C5_5  and  O1_6 
REMARK    4  A    between atoms: C5_5  and  C6_8 
REMARK    5  A    between atoms: C6_8  and  O2_9 
REMARK    6  A    between atoms: C6_8  and  C7_11 
REMARK    7  A    between atoms: C7_11  and  O3_12 
REMARK    8  A    between atoms: C7_11  and  C8_14 
REMARK    9  A    between atoms: C11_17  and  C12_18 
REMARK   10  A    between atoms: C12_18  and  C13_19 
REMARK   11  A    between atoms: C13_19  and  O4_20 
REMARK   12  A    between atoms: C13_19  and  C14_22 
REMARK   13  A    between atoms: C15_23  and  C17_25 
REMARK   14  A    between atoms: C17_25  and  C18_27 
REMARK   15  A    between atoms: C18_27  and  C19_28 
REMARK   16  A    between atoms: C19_28  and  C20_29 
REMARK   17  A    between atoms: C20_29  and  O7_31 
REMARK   18  A    between atoms: O7_31  and  C21_32 
REMARK   19  A    between atoms: C26_37  and  O8_38 
ROOT
HETATM    1  C13 UNL     1      26.303  30.545  19.965  1.00  0.00     0.144 C 
ENDROOT
BRANCH   1   2
HETATM    2  C12 UNL     1      25.912  30.299  21.383  1.00  0.00     0.067 C 
BRANCH   2   3
HETATM    3  C11 UNL     1      24.568  29.710  21.602  1.00  0.00     0.124 C 
HETATM    4  C10 UNL     1      24.555  28.219  21.650  1.00  0.00     0.032 C 
HETATM    5  C9  UNL     1      23.252  27.782  22.258  1.00  0.00     0.012 C 
HETATM    6  C8  UNL     1      22.263  28.925  22.245  1.00  0.00     0.041 C 
HETATM    7  C27 UNL     1      22.354  29.775  21.030  1.00  0.00     0.175 C 
HETATM    8  O9  UNL     1      23.652  30.101  20.638  1.00  0.00    -0.385 OA
BRANCH   6   9
HETATM    9  C7  UNL     1      20.873  28.273  22.264  1.00  0.00     0.155 C 
BRANCH   9  10
HETATM   10  C6  UNL     1      19.779  29.218  22.632  1.00  0.00     0.176 C 
BRANCH  10  11
HETATM   11  C5  UNL     1      19.564  29.096  24.136  1.00  0.00     0.153 C 
BRANCH  11  12
HETATM   12  C3  UNL     1      20.006  30.319  24.879  1.00  0.00     0.012 C 
HETATM   13  C4  UNL     1      21.333  30.098  25.523  1.00  0.00     0.012 C 
BRANCH  12  14
HETATM   14  C2  UNL     1      20.147  31.505  23.932  1.00  0.00     0.002 C 
HETATM   15  C1  UNL     1      20.350  32.806  24.650  1.00  0.00     0.005 C 
ENDBRANCH  12  14
ENDBRANCH  11  12
BRANCH  11  16
HETATM   16  O1  UNL     1      18.281  28.774  24.491  1.00  0.00    -0.393 OA
ATOM     17  H1  UNL     1      18.281  27.984  25.018  1.00  0.00     0.210 HD
ENDBRANCH  11  16
ENDBRANCH  10  11
BRANCH  10  18
HETATM   18  O2  UNL     1      18.579  29.041  22.004  1.00  0.00    -0.390 OA
ATOM     19  H2  UNL     1      18.501  29.686  21.310  1.00  0.00     0.210 HD
ENDBRANCH  10  18
ENDBRANCH   9  10
BRANCH   9  20
HETATM   20  O3  UNL     1      20.961  27.342  23.334  1.00  0.00    -0.392 OA
ATOM     21  H3  UNL     1      21.642  26.727  23.089  1.00  0.00     0.210 HD
ENDBRANCH   9  20
ENDBRANCH   6   9
ENDBRANCH   2   3
ENDBRANCH   1   2
BRANCH   1  22
HETATM   22  O4  UNL     1      25.804  31.785  19.497  1.00  0.00    -0.392 OA
ATOM     23  H4  UNL     1      25.793  32.439  20.186  1.00  0.00     0.210 HD
ENDBRANCH   1  22
BRANCH   1  24
HETATM   24  C14 UNL     1      27.735  30.482  19.692  1.00  0.00     0.015 C 
HETATM   25  C15 UNL     1      28.258  29.875  18.627  1.00  0.00    -0.018 C 
HETATM   26  C16 UNL     1      27.368  29.222  17.657  1.00  0.00     0.052 C 
BRANCH  25  27
HETATM   27  C17 UNL     1      29.700  29.865  18.408  1.00  0.00     0.155 C 
HETATM   28  O5  UNL     1      30.199  29.145  17.471  1.00  0.00    -0.293 OA
BRANCH  27  29
HETATM   29  C18 UNL     1      30.604  30.654  19.229  1.00  0.00     0.093 C 
BRANCH  29  30
HETATM   30  C19 UNL     1      31.681  29.895  19.929  1.00  0.00     0.118 C 
BRANCH  30  31
HETATM   31  C20 UNL     1      33.049  30.192  19.527  1.00  0.00     0.259 C 
HETATM   32  O6  UNL     1      33.252  30.635  18.342  1.00  0.00    -0.265 OA
BRANCH  31  33
HETATM   33  O7  UNL     1      34.201  30.054  20.283  1.00  0.00    -0.313 OA
BRANCH  33  34
HETATM   34  C21 UNL     1      34.634  28.767  20.745  1.00  0.00     0.161 C 
HETATM   35  C22 UNL     1      33.671  28.337  21.828  1.00  0.00     0.039 C 
HETATM   36  C23 UNL     1      34.432  27.143  22.421  1.00  0.00    -0.014 C 
HETATM   37  C24 UNL     1      34.062  25.922  21.571  1.00  0.00     0.010 C 
HETATM   38  C25 UNL     1      35.886  27.476  22.249  1.00  0.00     0.038 C 
HETATM   39  C26 UNL     1      35.931  28.812  21.490  1.00  0.00     0.148 C 
BRANCH  39  40
HETATM   40  O8  UNL     1      35.958  29.858  22.392  1.00  0.00    -0.393 OA
ATOM     41  H8  UNL     1      35.761  29.562  23.273  1.00  0.00     0.210 HD
ENDBRANCH  39  40
ENDBRANCH  33  34
ENDBRANCH  31  33
ENDBRANCH  30  31
ENDBRANCH  29  30
ENDBRANCH  27  29
ENDBRANCH  25  27
ENDBRANCH   1  24
TORSDOF 19
ENDMDL
MODEL 5
REMARK VINA RESULT: -7.567722909      1.893     10.418
REMARK  19 active torsions:
REMARK  status: ('A' for Active; 'I' for Inactive)
REMARK    1  A    between atoms: C2_2  and  C3_3 
REMARK    2  A    between atoms: C3_3  and  C5_5 
REMARK    3  A    between atoms: C5_5  and  O1_6 
REMARK    4  A    between atoms: C5_5  and  C6_8 
REMARK    5  A    between atoms: C6_8  and  O2_9 
REMARK    6  A    between atoms: C6_8  and  C7_11 
REMARK    7  A    between atoms: C7_11  and  O3_12 
REMARK    8  A    between atoms: C7_11  and  C8_14 
REMARK    9  A    between atoms: C11_17  and  C12_18 
REMARK   10  A    between atoms: C12_18  and  C13_19 
REMARK   11  A    between atoms: C13_19  and  O4_20 
REMARK   12  A    between atoms: C13_19  and  C14_22 
REMARK   13  A    between atoms: C15_23  and  C17_25 
REMARK   14  A    between atoms: C17_25  and  C18_27 
REMARK   15  A    between atoms: C18_27  and  C19_28 
REMARK   16  A    between atoms: C19_28  and  C20_29 
REMARK   17  A    between atoms: C20_29  and  O7_31 
REMARK   18  A    between atoms: O7_31  and  C21_32 
REMARK   19  A    between atoms: C26_37  and  O8_38 
ROOT
HETATM    1  C13 UNL     1      30.310  30.936  16.033  1.00  0.00     0.144 C 
ENDROOT
BRANCH   1   2
HETATM    2  C12 UNL     1      31.670  30.539  15.567  1.00  0.00     0.067 C 
BRANCH   2   3
HETATM    3  C11 UNL     1      32.748  30.568  16.586  1.00  0.00     0.124 C 
HETATM    4  C10 UNL     1      32.496  31.509  17.715  1.00  0.00     0.032 C 
HETATM    5  C9  UNL     1      33.431  31.157  18.837  1.00  0.00     0.012 C 
HETATM    6  C8  UNL     1      34.544  30.271  18.326  1.00  0.00     0.041 C 
HETATM    7  C27 UNL     1      35.004  30.624  16.959  1.00  0.00     0.175 C 
HETATM    8  O9  UNL     1      33.983  30.890  16.046  1.00  0.00    -0.385 OA
BRANCH   6   9
HETATM    9  C7  UNL     1      35.719  30.482  19.291  1.00  0.00     0.155 C 
BRANCH   9  10
HETATM   10  C6  UNL     1      36.329  29.207  19.771  1.00  0.00     0.176 C 
BRANCH  10  11
HETATM   11  C5  UNL     1      35.680  28.873  21.110  1.00  0.00     0.153 C 
BRANCH  11  12
HETATM   12  C3  UNL     1      34.892  27.601  21.062  1.00  0.00     0.012 C 
HETATM   13  C4  UNL     1      35.623  26.497  21.747  1.00  0.00     0.012 C 
BRANCH  12  14
HETATM   14  C2  UNL     1      33.551  27.769  21.768  1.00  0.00     0.002 C 
HETATM   15  C1  UNL     1      32.610  28.673  21.028  1.00  0.00     0.005 C 
ENDBRANCH  12  14
ENDBRANCH  11  12
BRANCH  11  16
HETATM   16  O1  UNL     1      36.557  28.838  22.160  1.00  0.00    -0.393 OA
ATOM     17  H1  UNL     1      36.366  29.546  22.764  1.00  0.00     0.210 HD
ENDBRANCH  11  16
ENDBRANCH  10  11
BRANCH  10  18
HETATM   18  O2  UNL     1      37.686  29.198  19.930  1.00  0.00    -0.390 OA
ATOM     19  H2  UNL     1      38.035  28.423  19.507  1.00  0.00     0.210 HD
ENDBRANCH  10  18
ENDBRANCH   9  10
BRANCH   9  20
HETATM   20  O3  UNL     1      35.109  31.076  20.429  1.00  0.00    -0.392 OA
ATOM     21  H3  UNL     1      34.972  31.988  20.205  1.00  0.00     0.210 HD
ENDBRANCH   9  20
ENDBRANCH   6   9
ENDBRANCH   2   3
ENDBRANCH   1   2
BRANCH   1  22
HETATM   22  O4  UNL     1      29.775  31.983  15.244  1.00  0.00    -0.392 OA
ATOM     23  H4  UNL     1      29.456  31.661  14.408  1.00  0.00     0.210 HD
ENDBRANCH   1  22
BRANCH   1  24
HETATM   24  C14 UNL     1      29.334  29.854  16.102  1.00  0.00     0.015 C 
HETATM   25  C15 UNL     1      28.894  29.326  17.244  1.00  0.00    -0.018 C 
HETATM   26  C16 UNL     1      29.404  29.842  18.522  1.00  0.00     0.052 C 
BRANCH  25  27
HETATM   27  C17 UNL     1      27.903  28.256  17.239  1.00  0.00     0.155 C 
HETATM   28  O5  UNL     1      28.203  27.109  16.747  1.00  0.00    -0.293 OA
BRANCH  27  29
HETATM   29  C18 UNL     1      26.567  28.449  17.779  1.00  0.00     0.093 C 
BRANCH  29  30
HETATM   30  C19 UNL     1      25.807  27.205  18.099  1.00  0.00     0.118 C 
BRANCH  30  31
HETATM   31  C20 UNL     1      25.544  26.952  19.509  1.00  0.00     0.259 C 
HETATM   32  O6  UNL     1      25.133  25.786  19.851  1.00  0.00    -0.265 OA
BRANCH  31  33
HETATM   33  O7  UNL     1      25.685  27.833  20.567  1.00  0.00    -0.313 OA
BRANCH  33  34
HETATM   34  C21 UNL     1      24.628  28.734  20.927  1.00  0.00     0.161 C 
HETATM   35  C22 UNL     1      25.247  29.837  21.754  1.00  0.00     0.039 C 
HETATM   36  C23 UNL     1      23.986  30.510  22.312  1.00  0.00    -0.014 C 
HETATM   37  C24 UNL     1      23.528  31.524  21.258  1.00  0.00     0.010 C 
HETATM   38  C25 UNL     1      22.976  29.408  22.448  1.00  0.00     0.038 C 
HETATM   39  C26 UNL     1      23.649  28.143  21.891  1.00  0.00     0.148 C 
BRANCH  39  40
HETATM   40  O8  UNL     1      24.291  27.470  22.913  1.00  0.00    -0.393 OA
ATOM     41  H8  UNL     1      24.834  26.766  22.577  1.00  0.00     0.210 HD
ENDBRANCH  39  40
ENDBRANCH  33  34
ENDBRANCH  31  33
ENDBRANCH  30  31
ENDBRANCH  29  30
ENDBRANCH  27  29
ENDBRANCH  25  27
ENDBRANCH   1  24
TORSDOF 19
ENDMDL
