MODEL 1
REMARK VINA RESULT: -6.583465785      0.000      0.000
REMARK  2 active torsions:
REMARK  status: ('A' for Active; 'I' for Inactive)
REMARK    1  A    between atoms: C2_3  and  C3_4 
REMARK    2  A    between atoms: C2_3  and  N2_10 
ROOT
HETATM    1  N1  UNL     1      50.033  25.702  38.639  1.00  0.00    -0.195 NA
HETATM    2  C1  UNL     1      49.230  25.123  39.234  1.00  0.00     0.091 C 
HETATM    3  C2  UNL     1      48.198  24.397  39.975  1.00  0.00     0.266 C 
ENDROOT
BRANCH   3   4
HETATM    4  C3  UNL     1      47.643  25.292  41.046  1.00  0.00     0.028 C 
HETATM    5  C4  UNL     1      46.742  26.362  40.520  1.00  0.00     0.008 C 
HETATM    6  C5  UNL     1      46.779  27.521  41.496  1.00  0.00     0.000 C 
HETATM    7  C6  UNL     1      47.022  27.033  42.917  1.00  0.00     0.000 C 
HETATM    8  C7  UNL     1      48.393  26.465  43.098  1.00  0.00     0.000 C 
HETATM    9  C8  UNL     1      48.846  25.917  41.761  1.00  0.00     0.008 C 
ENDBRANCH   3   4
BRANCH   3  10
HETATM   10  N2  UNL     1      48.785  23.190  40.478  1.00  0.00    -0.136 N 
HETATM   11  O1  UNL     1      50.003  22.931  40.511  1.00  0.00    -0.535 OA
HETATM   12  O2  UNL     1      47.933  22.230  40.967  1.00  0.00    -0.535 OA
ENDBRANCH   3  10
TORSDOF 2
ENDMDL
MODEL 2
REMARK VINA RESULT: -6.562705618      1.111      1.169
REMARK  2 active torsions:
REMARK  status: ('A' for Active; 'I' for Inactive)
REMARK    1  A    between atoms: C2_3  and  C3_4 
REMARK    2  A    between atoms: C2_3  and  N2_10 
ROOT
HETATM    1  N1  UNL     1      50.341  25.812  38.427  1.00  0.00    -0.195 NA
HETATM    2  C1  UNL     1      49.876  25.102  39.210  1.00  0.00     0.091 C 
HETATM    3  C2  UNL     1      49.270  24.197  40.188  1.00  0.00     0.266 C 
ENDROOT
BRANCH   3   4
HETATM    4  C3  UNL     1      48.268  24.960  41.007  1.00  0.00     0.028 C 
HETATM    5  C4  UNL     1      47.148  25.529  40.198  1.00  0.00     0.008 C 
HETATM    6  C5  UNL     1      46.614  26.742  40.934  1.00  0.00     0.000 C 
HETATM    7  C6  UNL     1      46.779  26.586  42.438  1.00  0.00     0.000 C 
HETATM    8  C7  UNL     1      48.212  26.605  42.862  1.00  0.00     0.000 C 
HETATM    9  C8  UNL     1      49.041  26.084  41.706  1.00  0.00     0.008 C 
ENDBRANCH   3   4
BRANCH   3  10
HETATM   10  N2  UNL     1      50.327  23.615  40.962  1.00  0.00    -0.136 N 
HETATM   11  O1  UNL     1      51.547  23.789  40.776  1.00  0.00    -0.535 OA
HETATM   12  O2  UNL     1      49.968  22.793  42.002  1.00  0.00    -0.535 OA
ENDBRANCH   3  10
TORSDOF 2
ENDMDL
MODEL 3
REMARK VINA RESULT: -6.534598133      0.742      1.862
REMARK  2 active torsions:
REMARK  status: ('A' for Active; 'I' for Inactive)
REMARK    1  A    between atoms: C2_3  and  C3_4 
REMARK    2  A    between atoms: C2_3  and  N2_10 
ROOT
HETATM    1  N1  UNL     1      50.863  25.825  38.319  1.00  0.00    -0.195 NA
HETATM    2  C1  UNL     1      49.952  25.452  38.923  1.00  0.00     0.091 C 
HETATM    3  C2  UNL     1      48.785  24.987  39.674  1.00  0.00     0.266 C 
ENDROOT
BRANCH   3   4
HETATM    4  C3  UNL     1      48.361  26.063  40.634  1.00  0.00     0.028 C 
HETATM    5  C4  UNL     1      48.852  25.845  42.028  1.00  0.00     0.008 C 
HETATM    6  C5  UNL     1      47.892  26.541  42.972  1.00  0.00     0.000 C 
HETATM    7  C6  UNL     1      47.268  27.764  42.315  1.00  0.00     0.000 C 
HETATM    8  C7  UNL     1      46.350  27.403  41.192  1.00  0.00     0.000 C 
HETATM    9  C8  UNL     1      46.828  26.089  40.610  1.00  0.00     0.008 C 
ENDBRANCH   3   4
BRANCH   3  10
HETATM   10  N2  UNL     1      49.134  23.751  40.309  1.00  0.00    -0.136 N 
HETATM   11  O1  UNL     1      48.331  22.895  40.727  1.00  0.00    -0.535 OA
HETATM   12  O2  UNL     1      50.471  23.481  40.474  1.00  0.00    -0.535 OA
ENDBRANCH   3  10
TORSDOF 2
ENDMDL
MODEL 4
REMARK VINA RESULT: -6.418456224      1.081      1.821
REMARK  2 active torsions:
REMARK  status: ('A' for Active; 'I' for Inactive)
REMARK    1  A    between atoms: C2_3  and  C3_4 
REMARK    2  A    between atoms: C2_3  and  N2_10 
ROOT
HETATM    1  N1  UNL     1      51.232  25.102  39.369  1.00  0.00    -0.195 NA
HETATM    2  C1  UNL     1      50.083  25.123  39.482  1.00  0.00     0.091 C 
HETATM    3  C2  UNL     1      48.626  25.165  39.609  1.00  0.00     0.266 C 
ENDROOT
BRANCH   3   4
HETATM    4  C3  UNL     1      48.252  26.212  40.620  1.00  0.00     0.028 C 
HETATM    5  C4  UNL     1      48.784  25.936  41.988  1.00  0.00     0.008 C 
HETATM    6  C5  UNL     1      47.868  26.615  42.987  1.00  0.00     0.000 C 
HETATM    7  C6  UNL     1      47.246  27.871  42.395  1.00  0.00     0.000 C 
HETATM    8  C7  UNL     1      46.286  27.567  41.290  1.00  0.00     0.000 C 
HETATM    9  C8  UNL     1      46.720  26.267  40.647  1.00  0.00     0.008 C 
ENDBRANCH   3   4
BRANCH   3  10
HETATM   10  N2  UNL     1      48.176  23.848  39.949  1.00  0.00    -0.136 N 
HETATM   11  O1  UNL     1      48.691  23.100  40.802  1.00  0.00    -0.535 OA
HETATM   12  O2  UNL     1      47.080  23.361  39.278  1.00  0.00    -0.535 OA
ENDBRANCH   3  10
TORSDOF 2
ENDMDL
MODEL 5
REMARK VINA RESULT: -6.382542424      2.454      3.198
REMARK  2 active torsions:
REMARK  status: ('A' for Active; 'I' for Inactive)
REMARK    1  A    between atoms: C2_3  and  C3_4 
REMARK    2  A    between atoms: C2_3  and  N2_10 
ROOT
HETATM    1  N1  UNL     1      52.561  24.663  39.540  1.00  0.00    -0.195 NA
HETATM    2  C1  UNL     1      51.748  23.998  40.020  1.00  0.00     0.091 C 
HETATM    3  C2  UNL     1      50.714  23.146  40.607  1.00  0.00     0.266 C 
ENDROOT
BRANCH   3   4
HETATM    4  C3  UNL     1      49.399  23.871  40.564  1.00  0.00     0.028 C 
HETATM    5  C4  UNL     1      48.252  23.002  40.163  1.00  0.00     0.008 C 
HETATM    6  C5  UNL     1      47.193  23.890  39.539  1.00  0.00     0.000 C 
HETATM    7  C6  UNL     1      47.222  25.285  40.145  1.00  0.00     0.000 C 
HETATM    8  C7  UNL     1      48.466  26.036  39.794  1.00  0.00     0.000 C 
HETATM    9  C8  UNL     1      49.567  25.022  39.566  1.00  0.00     0.008 C 
ENDBRANCH   3   4
BRANCH   3  10
HETATM   10  N2  UNL     1      51.135  22.791  41.930  1.00  0.00    -0.136 N 
HETATM   11  O1  UNL     1      50.642  23.221  42.991  1.00  0.00    -0.535 OA
HETATM   12  O2  UNL     1      52.174  21.900  42.045  1.00  0.00    -0.535 OA
ENDBRANCH   3  10
TORSDOF 2
ENDMDL
