MODEL 1
REMARK VINA RESULT: -7.197479658      0.000      0.000
REMARK  10 active torsions:
REMARK  status: ('A' for Active; 'I' for Inactive)
REMARK    1  A    between atoms: C2_2  and  C3_3 
REMARK    2  A    between atoms: C3_3  and  C4_4 
REMARK    3  A    between atoms: C4_4  and  C5_5 
REMARK    4  A    between atoms: C5_5  and  C6_6 
REMARK    5  A    between atoms: C6_6  and  C7_7 
REMARK    6  A    between atoms: C6_6  and  C10_13 
REMARK    7  A    between atoms: C7_7  and  C8_8 
REMARK       I    between atoms: C8_8  and  N1_10 
REMARK       I    between atoms: C10_13  and  N2_15 
REMARK    8  A    between atoms: C14_19  and  C15_20 
REMARK    9  A    between atoms: C15_20  and  N3_21 
REMARK       I    between atoms: N3_21  and  C16_23 
REMARK       I    between atoms: C16_23  and  N6_29 
REMARK       I    between atoms: N4_24  and  C17_26 
REMARK   10  A    between atoms: N6_29  and  C18_31 
ROOT
HETATM    1  C10 UNL     1      26.386  41.733  31.423  1.00  0.00     0.224 C 
HETATM    2  O2  UNL     1      25.794  42.733  31.972  1.00  0.00    -0.273 OA
HETATM    3  N2  UNL     1      27.486  41.985  30.578  1.00  0.00    -0.345 N 
HETATM    4  C11 UNL     1      28.384  41.178  29.824  1.00  0.00     0.126 C 
HETATM    5  C12 UNL     1      28.769  41.995  28.586  1.00  0.00     0.022 C 
HETATM    6  C13 UNL     1      28.045  43.309  28.786  1.00  0.00     0.028 C 
HETATM    7  C14 UNL     1      27.961  43.362  30.296  1.00  0.00     0.105 C 
ENDROOT
BRANCH   7   8
HETATM    8  C15 UNL     1      29.306  43.592  30.929  1.00  0.00     0.163 C 
BRANCH   8   9
HETATM    9  N3  UNL     1      29.120  44.290  32.161  1.00  0.00    -0.224 N 
HETATM   10  C16 UNL     1      29.632  43.870  33.414  1.00  0.00     0.678 C 
HETATM   11  N4  UNL     1      29.053  42.951  34.053  1.00  0.00    -0.144 N 
HETATM   12  N6  UNL     1      30.789  44.507  33.907  1.00  0.00    -0.218 N 
HETATM   13  C17 UNL     1      29.411  42.412  35.294  1.00  0.00     0.346 C 
ATOM     14  H4  UNL     1      28.223  42.552  33.613  1.00  0.00     0.188 HD
HETATM   15  N5  UNL     1      28.401  42.268  36.292  1.00  0.00    -0.039 NA
HETATM   16  O3  UNL     1      30.573  42.037  35.604  1.00  0.00    -0.250 OA
ATOM     17  H6  UNL     1      31.667  43.990  33.844  1.00  0.00     0.178 HD
ATOM     18  H3  UNL     1      28.579  45.154  32.138  1.00  0.00     0.177 HD
BRANCH  12  19
HETATM   19  C18 UNL     1      30.842  45.810  34.485  1.00  0.00     0.036 C 
HETATM   20  C19 UNL     1      31.339  45.692  35.918  1.00  0.00     0.038 C 
HETATM   21  C20 UNL     1      29.529  46.545  34.459  1.00  0.00     0.038 C 
HETATM   22  C21 UNL     1      31.853  46.661  33.748  1.00  0.00     0.038 C 
ENDBRANCH  12  19
ENDBRANCH   8   9
ENDBRANCH   7   8
BRANCH   1  23
HETATM   23  C6  UNL     1      25.847  40.389  31.734  1.00  0.00     0.086 C 
BRANCH  23  24
HETATM   24  C5  UNL     1      25.504  39.604  30.503  1.00  0.00     0.014 C 
BRANCH  24  25
HETATM   25  C4  UNL     1      24.440  40.347  29.674  1.00  0.00     0.001 C 
BRANCH  25  26
HETATM   26  C3  UNL     1      24.898  40.513  28.249  1.00  0.00    -0.000 C 
BRANCH  26  27
HETATM   27  C2  UNL     1      24.927  41.949  27.801  1.00  0.00    -0.005 C 
HETATM   28  C1  UNL     1      23.614  42.223  27.055  1.00  0.00     0.005 C 
ENDBRANCH  26  27
ENDBRANCH  25  26
ENDBRANCH  24  25
ENDBRANCH  23  24
BRANCH  23  29
HETATM   29  C7  UNL     1      26.676  39.651  32.734  1.00  0.00     0.117 C 
BRANCH  29  30
HETATM   30  C8  UNL     1      26.163  39.607  34.097  1.00  0.00     0.217 C 
HETATM   31  O1  UNL     1      24.930  39.722  34.334  1.00  0.00    -0.274 OA
HETATM   32  N1  UNL     1      27.059  39.432  35.184  1.00  0.00    -0.365 N 
HETATM   33  C9  UNL     1      26.600  39.380  36.558  1.00  0.00     0.149 C 
ATOM     34  H1  UNL     1      28.057  39.339  34.993  1.00  0.00     0.161 HD
ENDBRANCH  29  30
ENDBRANCH  23  29
ENDBRANCH   1  23
TORSDOF 10
ENDMDL
MODEL 2
REMARK VINA RESULT: -7.091583630      3.159      7.817
REMARK  10 active torsions:
REMARK  status: ('A' for Active; 'I' for Inactive)
REMARK    1  A    between atoms: C2_2  and  C3_3 
REMARK    2  A    between atoms: C3_3  and  C4_4 
REMARK    3  A    between atoms: C4_4  and  C5_5 
REMARK    4  A    between atoms: C5_5  and  C6_6 
REMARK    5  A    between atoms: C6_6  and  C7_7 
REMARK    6  A    between atoms: C6_6  and  C10_13 
REMARK    7  A    between atoms: C7_7  and  C8_8 
REMARK       I    between atoms: C8_8  and  N1_10 
REMARK       I    between atoms: C10_13  and  N2_15 
REMARK    8  A    between atoms: C14_19  and  C15_20 
REMARK    9  A    between atoms: C15_20  and  N3_21 
REMARK       I    between atoms: N3_21  and  C16_23 
REMARK       I    between atoms: C16_23  and  N6_29 
REMARK       I    between atoms: N4_24  and  C17_26 
REMARK   10  A    between atoms: N6_29  and  C18_31 
ROOT
HETATM    1  C10 UNL     1      29.439  43.514  31.954  1.00  0.00     0.224 C 
HETATM    2  O2  UNL     1      30.039  44.089  30.973  1.00  0.00    -0.273 OA
HETATM    3  N2  UNL     1      28.377  42.633  31.667  1.00  0.00    -0.345 N 
HETATM    4  C11 UNL     1      27.504  41.819  32.444  1.00  0.00     0.126 C 
HETATM    5  C12 UNL     1      26.170  41.770  31.692  1.00  0.00     0.022 C 
HETATM    6  C13 UNL     1      26.438  42.575  30.438  1.00  0.00     0.028 C 
HETATM    7  C14 UNL     1      27.928  42.368  30.279  1.00  0.00     0.105 C 
ENDROOT
BRANCH   7   8
HETATM    8  C15 UNL     1      28.263  40.957  29.879  1.00  0.00     0.163 C 
BRANCH   8   9
HETATM    9  N3  UNL     1      29.015  40.990  28.665  1.00  0.00    -0.224 N 
HETATM   10  C16 UNL     1      28.985  39.983  27.668  1.00  0.00     0.678 C 
HETATM   11  N4  UNL     1      29.636  38.916  27.834  1.00  0.00    -0.144 N 
HETATM   12  N6  UNL     1      28.217  40.216  26.509  1.00  0.00    -0.218 N 
HETATM   13  C17 UNL     1      29.724  37.822  26.965  1.00  0.00     0.346 C 
ATOM     14  H4  UNL     1      30.160  38.841  28.706  1.00  0.00     0.188 HD
HETATM   15  N5  UNL     1      31.015  37.293  26.666  1.00  0.00    -0.039 NA
HETATM   16  O3  UNL     1      28.740  37.259  26.419  1.00  0.00    -0.250 OA
ATOM     17  H6  UNL     1      27.323  39.729  26.438  1.00  0.00     0.178 HD
ATOM     18  H3  UNL     1      29.617  41.797  28.504  1.00  0.00     0.177 HD
BRANCH  12  19
HETATM   19  C18 UNL     1      28.578  41.074  25.428  1.00  0.00     0.036 C 
HETATM   20  C19 UNL     1      27.484  41.023  24.373  1.00  0.00     0.038 C 
HETATM   21  C20 UNL     1      29.907  40.743  24.802  1.00  0.00     0.038 C 
HETATM   22  C21 UNL     1      28.648  42.508  25.907  1.00  0.00     0.038 C 
ENDBRANCH  12  19
ENDBRANCH   8   9
ENDBRANCH   7   8
BRANCH   1  23
HETATM   23  C6  UNL     1      29.928  43.838  33.313  1.00  0.00     0.086 C 
BRANCH  23  24
HETATM   24  C5  UNL     1      30.044  45.315  33.549  1.00  0.00     0.014 C 
BRANCH  24  25
HETATM   25  C4  UNL     1      31.520  45.713  33.732  1.00  0.00     0.001 C 
BRANCH  25  26
HETATM   26  C3  UNL     1      31.666  46.710  34.851  1.00  0.00    -0.000 C 
BRANCH  26  27
HETATM   27  C2  UNL     1      30.447  46.796  35.728  1.00  0.00    -0.005 C 
HETATM   28  C1  UNL     1      30.867  46.365  37.140  1.00  0.00     0.005 C 
ENDBRANCH  26  27
ENDBRANCH  25  26
ENDBRANCH  24  25
ENDBRANCH  23  24
BRANCH  23  29
HETATM   29  C7  UNL     1      29.201  43.091  34.383  1.00  0.00     0.117 C 
BRANCH  29  30
HETATM   30  C8  UNL     1      30.020  42.501  35.434  1.00  0.00     0.217 C 
HETATM   31  O1  UNL     1      31.065  43.072  35.844  1.00  0.00    -0.274 OA
HETATM   32  N1  UNL     1      29.641  41.260  36.012  1.00  0.00    -0.365 N 
HETATM   33  C9  UNL     1      30.420  40.632  37.061  1.00  0.00     0.149 C 
ATOM     34  H1  UNL     1      28.795  40.798  35.680  1.00  0.00     0.161 HD
ENDBRANCH  29  30
ENDBRANCH  23  29
ENDBRANCH   1  23
TORSDOF 10
ENDMDL
MODEL 3
REMARK VINA RESULT: -7.040949008      3.252      8.048
REMARK  10 active torsions:
REMARK  status: ('A' for Active; 'I' for Inactive)
REMARK    1  A    between atoms: C2_2  and  C3_3 
REMARK    2  A    between atoms: C3_3  and  C4_4 
REMARK    3  A    between atoms: C4_4  and  C5_5 
REMARK    4  A    between atoms: C5_5  and  C6_6 
REMARK    5  A    between atoms: C6_6  and  C7_7 
REMARK    6  A    between atoms: C6_6  and  C10_13 
REMARK    7  A    between atoms: C7_7  and  C8_8 
REMARK       I    between atoms: C8_8  and  N1_10 
REMARK       I    between atoms: C10_13  and  N2_15 
REMARK    8  A    between atoms: C14_19  and  C15_20 
REMARK    9  A    between atoms: C15_20  and  N3_21 
REMARK       I    between atoms: N3_21  and  C16_23 
REMARK       I    between atoms: C16_23  and  N6_29 
REMARK       I    between atoms: N4_24  and  C17_26 
REMARK   10  A    between atoms: N6_29  and  C18_31 
ROOT
HETATM    1  C10 UNL     1      29.294  43.660  32.120  1.00  0.00     0.224 C 
HETATM    2  O2  UNL     1      30.130  44.145  31.273  1.00  0.00    -0.273 OA
HETATM    3  N2  UNL     1      28.283  42.799  31.648  1.00  0.00    -0.345 N 
HETATM    4  C11 UNL     1      27.216  42.072  32.248  1.00  0.00     0.126 C 
HETATM    5  C12 UNL     1      26.089  42.019  31.211  1.00  0.00     0.022 C 
HETATM    6  C13 UNL     1      26.676  42.727  30.008  1.00  0.00     0.028 C 
HETATM    7  C14 UNL     1      28.151  42.457  30.211  1.00  0.00     0.105 C 
ENDROOT
BRANCH   7   8
HETATM    8  C15 UNL     1      28.497  41.011  29.982  1.00  0.00     0.163 C 
BRANCH   8   9
HETATM    9  N3  UNL     1      29.148  40.889  28.716  1.00  0.00    -0.224 N 
HETATM   10  C16 UNL     1      28.862  39.890  27.752  1.00  0.00     0.678 C 
HETATM   11  N4  UNL     1      29.321  38.725  27.901  1.00  0.00    -0.144 N 
HETATM   12  N6  UNL     1      28.063  40.242  26.646  1.00  0.00    -0.218 N 
HETATM   13  C17 UNL     1      29.145  37.621  27.059  1.00  0.00     0.346 C 
ATOM     14  H4  UNL     1      29.888  38.569  28.735  1.00  0.00     0.188 HD
HETATM   15  N5  UNL     1      30.294  36.862  26.682  1.00  0.00    -0.039 NA
HETATM   16  O3  UNL     1      28.037  37.238  26.601  1.00  0.00    -0.250 OA
ATOM     17  H6  UNL     1      27.093  39.924  26.653  1.00  0.00     0.178 HD
ATOM     18  H3  UNL     1      29.872  41.571  28.490  1.00  0.00     0.177 HD
BRANCH  12  19
HETATM   19  C18 UNL     1      28.489  41.004  25.518  1.00  0.00     0.036 C 
HETATM   20  C19 UNL     1      27.422  40.924  24.438  1.00  0.00     0.038 C 
HETATM   21  C20 UNL     1      29.818  40.574  24.956  1.00  0.00     0.038 C 
HETATM   22  C21 UNL     1      28.609  42.464  25.897  1.00  0.00     0.038 C 
ENDBRANCH  12  19
ENDBRANCH   8   9
ENDBRANCH   7   8
BRANCH   1  23
HETATM   23  C6  UNL     1      29.475  44.059  33.535  1.00  0.00     0.086 C 
BRANCH  23  24
HETATM   24  C5  UNL     1      30.199  43.022  34.340  1.00  0.00     0.014 C 
BRANCH  24  25
HETATM   25  C4  UNL     1      29.229  42.325  35.311  1.00  0.00     0.001 C 
BRANCH  25  26
HETATM   26  C3  UNL     1      29.656  42.545  36.738  1.00  0.00    -0.000 C 
BRANCH  26  27
HETATM   27  C2  UNL     1      29.439  41.339  37.612  1.00  0.00    -0.005 C 
HETATM   28  C1  UNL     1      30.403  40.245  37.132  1.00  0.00     0.005 C 
ENDBRANCH  26  27
ENDBRANCH  25  26
ENDBRANCH  24  25
ENDBRANCH  23  24
BRANCH  23  29
HETATM   29  C7  UNL     1      30.008  45.446  33.680  1.00  0.00     0.117 C 
BRANCH  29  30
HETATM   30  C8  UNL     1      31.330  45.575  34.281  1.00  0.00     0.217 C 
HETATM   31  O1  UNL     1      32.374  45.363  33.608  1.00  0.00    -0.274 OA
HETATM   32  N1  UNL     1      31.453  45.944  35.647  1.00  0.00    -0.365 N 
HETATM   33  C9  UNL     1      32.744  46.085  36.290  1.00  0.00     0.149 C 
ATOM     34  H1  UNL     1      30.608  46.114  36.191  1.00  0.00     0.161 HD
ENDBRANCH  29  30
ENDBRANCH  23  29
ENDBRANCH   1  23
TORSDOF 10
ENDMDL
MODEL 4
REMARK VINA RESULT: -7.005006973      3.951      9.959
REMARK  10 active torsions:
REMARK  status: ('A' for Active; 'I' for Inactive)
REMARK    1  A    between atoms: C2_2  and  C3_3 
REMARK    2  A    between atoms: C3_3  and  C4_4 
REMARK    3  A    between atoms: C4_4  and  C5_5 
REMARK    4  A    between atoms: C5_5  and  C6_6 
REMARK    5  A    between atoms: C6_6  and  C7_7 
REMARK    6  A    between atoms: C6_6  and  C10_13 
REMARK    7  A    between atoms: C7_7  and  C8_8 
REMARK       I    between atoms: C8_8  and  N1_10 
REMARK       I    between atoms: C10_13  and  N2_15 
REMARK    8  A    between atoms: C14_19  and  C15_20 
REMARK    9  A    between atoms: C15_20  and  N3_21 
REMARK       I    between atoms: N3_21  and  C16_23 
REMARK       I    between atoms: C16_23  and  N6_29 
REMARK       I    between atoms: N4_24  and  C17_26 
REMARK   10  A    between atoms: N6_29  and  C18_31 
ROOT
HETATM    1  C10 UNL     1      32.673  46.467  34.868  1.00  0.00     0.224 C 
HETATM    2  O2  UNL     1      32.795  47.223  33.835  1.00  0.00    -0.273 OA
HETATM    3  N2  UNL     1      31.550  45.621  34.953  1.00  0.00    -0.345 N 
HETATM    4  C11 UNL     1      31.079  44.659  35.892  1.00  0.00     0.126 C 
HETATM    5  C12 UNL     1      29.549  44.706  35.833  1.00  0.00     0.022 C 
HETATM    6  C13 UNL     1      29.264  45.727  34.752  1.00  0.00     0.028 C 
HETATM    7  C14 UNL     1      30.506  45.593  33.899  1.00  0.00     0.105 C 
ENDROOT
BRANCH   7   8
HETATM    8  C15 UNL     1      30.544  44.285  33.158  1.00  0.00     0.163 C 
BRANCH   8   9
HETATM    9  N3  UNL     1      29.227  43.983  32.692  1.00  0.00    -0.224 N 
HETATM   10  C16 UNL     1      28.934  43.226  31.530  1.00  0.00     0.678 C 
HETATM   11  N4  UNL     1      29.022  43.762  30.393  1.00  0.00    -0.144 N 
HETATM   12  N6  UNL     1      28.550  41.880  31.693  1.00  0.00    -0.218 N 
HETATM   13  C17 UNL     1      28.774  43.175  29.147  1.00  0.00     0.346 C 
ATOM     14  H4  UNL     1      29.310  44.741  30.379  1.00  0.00     0.188 HD
HETATM   15  N5  UNL     1      27.942  43.872  28.220  1.00  0.00    -0.039 NA
HETATM   16  O3  UNL     1      29.233  42.064  28.773  1.00  0.00    -0.250 OA
ATOM     17  H6  UNL     1      29.247  41.167  31.475  1.00  0.00     0.178 HD
ATOM     18  H3  UNL     1      28.441  44.339  33.235  1.00  0.00     0.177 HD
BRANCH  12  19
HETATM   19  C18 UNL     1      27.272  41.426  32.135  1.00  0.00     0.036 C 
HETATM   20  C19 UNL     1      26.971  40.088  31.479  1.00  0.00     0.038 C 
HETATM   21  C20 UNL     1      26.150  42.392  31.863  1.00  0.00     0.038 C 
HETATM   22  C21 UNL     1      27.301  41.175  33.628  1.00  0.00     0.038 C 
ENDBRANCH  12  19
ENDBRANCH   8   9
ENDBRANCH   7   8
BRANCH   1  23
HETATM   23  C6  UNL     1      33.742  46.561  35.889  1.00  0.00     0.086 C 
BRANCH  23  24
HETATM   24  C5  UNL     1      35.090  46.839  35.292  1.00  0.00     0.014 C 
BRANCH  24  25
HETATM   25  C4  UNL     1      36.081  45.721  35.665  1.00  0.00     0.001 C 
BRANCH  25  26
HETATM   26  C3  UNL     1      37.305  46.297  36.326  1.00  0.00    -0.000 C 
BRANCH  26  27
HETATM   27  C2  UNL     1      38.333  45.255  36.675  1.00  0.00    -0.005 C 
HETATM   28  C1  UNL     1      38.836  45.563  38.092  1.00  0.00     0.005 C 
ENDBRANCH  26  27
ENDBRANCH  25  26
ENDBRANCH  24  25
ENDBRANCH  23  24
BRANCH  23  29
HETATM   29  C7  UNL     1      33.373  47.446  37.033  1.00  0.00     0.117 C 
BRANCH  29  30
HETATM   30  C8  UNL     1      34.470  48.133  37.704  1.00  0.00     0.217 C 
HETATM   31  O1  UNL     1      35.259  47.512  38.466  1.00  0.00    -0.274 OA
HETATM   32  N1  UNL     1      34.661  49.526  37.502  1.00  0.00    -0.365 N 
HETATM   33  C9  UNL     1      35.737  50.255  38.145  1.00  0.00     0.149 C 
ATOM     34  H1  UNL     1      34.022  50.028  36.886  1.00  0.00     0.161 HD
ENDBRANCH  29  30
ENDBRANCH  23  29
ENDBRANCH   1  23
TORSDOF 10
ENDMDL
MODEL 5
REMARK VINA RESULT: -6.919057905      1.302      2.476
REMARK  10 active torsions:
REMARK  status: ('A' for Active; 'I' for Inactive)
REMARK    1  A    between atoms: C2_2  and  C3_3 
REMARK    2  A    between atoms: C3_3  and  C4_4 
REMARK    3  A    between atoms: C4_4  and  C5_5 
REMARK    4  A    between atoms: C5_5  and  C6_6 
REMARK    5  A    between atoms: C6_6  and  C7_7 
REMARK    6  A    between atoms: C6_6  and  C10_13 
REMARK    7  A    between atoms: C7_7  and  C8_8 
REMARK       I    between atoms: C8_8  and  N1_10 
REMARK       I    between atoms: C10_13  and  N2_15 
REMARK    8  A    between atoms: C14_19  and  C15_20 
REMARK    9  A    between atoms: C15_20  and  N3_21 
REMARK       I    between atoms: N3_21  and  C16_23 
REMARK       I    between atoms: C16_23  and  N6_29 
REMARK       I    between atoms: N4_24  and  C17_26 
REMARK   10  A    between atoms: N6_29  and  C18_31 
ROOT
HETATM    1  C10 UNL     1      26.473  41.491  31.662  1.00  0.00     0.224 C 
HETATM    2  O2  UNL     1      25.824  42.450  32.221  1.00  0.00    -0.273 OA
HETATM    3  N2  UNL     1      27.492  41.815  30.744  1.00  0.00    -0.345 N 
HETATM    4  C11 UNL     1      28.415  41.069  29.957  1.00  0.00     0.126 C 
HETATM    5  C12 UNL     1      28.648  41.878  28.677  1.00  0.00     0.022 C 
HETATM    6  C13 UNL     1      27.819  43.127  28.887  1.00  0.00     0.028 C 
HETATM    7  C14 UNL     1      27.820  43.219  30.398  1.00  0.00     0.105 C 
ENDROOT
BRANCH   7   8
HETATM    8  C15 UNL     1      29.173  43.590  30.939  1.00  0.00     0.163 C 
BRANCH   8   9
HETATM    9  N3  UNL     1      28.999  44.274  32.182  1.00  0.00    -0.224 N 
HETATM   10  C16 UNL     1      29.535  43.847  33.423  1.00  0.00     0.678 C 
HETATM   11  N4  UNL     1      28.975  42.915  34.061  1.00  0.00    -0.144 N 
HETATM   12  N6  UNL     1      30.692  44.491  33.904  1.00  0.00    -0.218 N 
HETATM   13  C17 UNL     1      29.358  42.367  35.290  1.00  0.00     0.346 C 
ATOM     14  H4  UNL     1      28.143  42.512  33.629  1.00  0.00     0.188 HD
HETATM   15  N5  UNL     1      28.365  42.202  36.302  1.00  0.00    -0.039 NA
HETATM   16  O3  UNL     1      30.527  42.002  35.579  1.00  0.00    -0.250 OA
ATOM     17  H6  UNL     1      31.574  43.984  33.823  1.00  0.00     0.178 HD
ATOM     18  H3  UNL     1      28.448  45.132  32.175  1.00  0.00     0.177 HD
BRANCH  12  19
HETATM   19  C18 UNL     1      30.739  45.789  34.495  1.00  0.00     0.036 C 
HETATM   20  C19 UNL     1      31.196  45.655  35.939  1.00  0.00     0.038 C 
HETATM   21  C20 UNL     1      29.434  46.535  34.438  1.00  0.00     0.038 C 
HETATM   22  C21 UNL     1      31.777  46.638  33.793  1.00  0.00     0.038 C 
ENDBRANCH  12  19
ENDBRANCH   8   9
ENDBRANCH   7   8
BRANCH   1  23
HETATM   23  C6  UNL     1      26.079  40.114  32.041  1.00  0.00     0.086 C 
BRANCH  23  24
HETATM   24  C5  UNL     1      25.973  39.197  30.859  1.00  0.00     0.014 C 
BRANCH  24  25
HETATM   25  C4  UNL     1      26.062  37.728  31.312  1.00  0.00     0.001 C 
BRANCH  25  26
HETATM   26  C3  UNL     1      27.138  37.002  30.549  1.00  0.00    -0.000 C 
BRANCH  26  27
HETATM   27  C2  UNL     1      27.505  35.678  31.162  1.00  0.00    -0.005 C 
HETATM   28  C1  UNL     1      28.098  35.962  32.548  1.00  0.00     0.005 C 
ENDBRANCH  26  27
ENDBRANCH  25  26
ENDBRANCH  24  25
ENDBRANCH  23  24
BRANCH  23  29
HETATM   29  C7  UNL     1      26.884  39.576  33.178  1.00  0.00     0.117 C 
BRANCH  29  30
HETATM   30  C8  UNL     1      26.240  39.571  34.485  1.00  0.00     0.217 C 
HETATM   31  O1  UNL     1      25.005  39.792  34.604  1.00  0.00    -0.274 OA
HETATM   32  N1  UNL     1      27.010  39.317  35.651  1.00  0.00    -0.365 N 
HETATM   33  C9  UNL     1      26.417  39.302  36.974  1.00  0.00     0.149 C 
ATOM     34  H1  UNL     1      28.009  39.140  35.555  1.00  0.00     0.161 HD
ENDBRANCH  29  30
ENDBRANCH  23  29
ENDBRANCH   1  23
TORSDOF 10
ENDMDL
