MODEL 1
REMARK VINA RESULT: -3.686542419      0.000      0.000
REMARK  2 active torsions:
REMARK  status: ('A' for Active; 'I' for Inactive)
REMARK    1  A    between atoms: C1_2  and  N1_3 
REMARK    2  A    between atoms: N1_3  and  C2_5 
ROOT
HETATM    1  N1  UNL     1      71.583  16.186  15.451  1.00  0.00    -0.364 N 
ATOM      2  H1  UNL     1      71.885  15.652  14.636  1.00  0.00     0.162 HD
ENDROOT
BRANCH   1   3
HETATM    3  C1  UNL     1      72.430  16.283  16.562  1.00  0.00     0.348 C 
HETATM    4  O1  UNL     1      73.542  16.867  16.475  1.00  0.00    -0.284 OA
ENDBRANCH   1   3
BRANCH   1   5
HETATM    5  C2  UNL     1      70.287  16.827  15.436  1.00  0.00     0.083 A 
HETATM    6  C3  UNL     1      70.124  18.268  15.672  1.00  0.00     0.027 A 
HETATM    7  C4  UNL     1      69.848  17.298  16.813  1.00  0.00     0.027 A 
ENDBRANCH   1   5
TORSDOF 2
ENDMDL
MODEL 2
REMARK VINA RESULT: -3.652815843      0.949      1.183
REMARK  2 active torsions:
REMARK  status: ('A' for Active; 'I' for Inactive)
REMARK    1  A    between atoms: C1_2  and  N1_3 
REMARK    2  A    between atoms: N1_3  and  C2_5 
ROOT
HETATM    1  N1  UNL     1      71.586  16.203  15.339  1.00  0.00    -0.364 N 
ATOM      2  H1  UNL     1      71.466  15.244  15.009  1.00  0.00     0.162 HD
ENDROOT
BRANCH   1   3
HETATM    3  C1  UNL     1      72.308  16.438  16.516  1.00  0.00     0.348 C 
HETATM    4  O1  UNL     1      73.456  16.954  16.475  1.00  0.00    -0.284 OA
ENDBRANCH   1   3
BRANCH   1   5
HETATM    5  C2  UNL     1      71.008  17.290  14.581  1.00  0.00     0.083 A 
HETATM    6  C3  UNL     1      70.024  18.213  15.162  1.00  0.00     0.027 A 
HETATM    7  C4  UNL     1      69.535  17.075  14.276  1.00  0.00     0.027 A 
ENDBRANCH   1   5
TORSDOF 2
ENDMDL
MODEL 3
REMARK VINA RESULT: -3.590639467      6.366      6.978
REMARK  2 active torsions:
REMARK  status: ('A' for Active; 'I' for Inactive)
REMARK    1  A    between atoms: C1_2  and  N1_3 
REMARK    2  A    between atoms: N1_3  and  C2_5 
ROOT
HETATM    1  N1  UNL     1      74.811  13.085  12.891  1.00  0.00    -0.364 N 
ATOM      2  H1  UNL     1      74.745  14.085  13.083  1.00  0.00     0.162 HD
ENDROOT
BRANCH   1   3
HETATM    3  C1  UNL     1      75.645  12.638  11.859  1.00  0.00     0.348 C 
HETATM    4  O1  UNL     1      75.206  11.871  10.962  1.00  0.00    -0.284 OA
ENDBRANCH   1   3
BRANCH   1   5
HETATM    5  C2  UNL     1      74.041  12.158  13.690  1.00  0.00     0.083 A 
HETATM    6  C3  UNL     1      74.090  12.162  15.159  1.00  0.00     0.027 A 
HETATM    7  C4  UNL     1      74.909  11.129  14.395  1.00  0.00     0.027 A 
ENDBRANCH   1   5
TORSDOF 2
ENDMDL
MODEL 4
REMARK VINA RESULT: -3.488408616      3.906      4.282
REMARK  2 active torsions:
REMARK  status: ('A' for Active; 'I' for Inactive)
REMARK    1  A    between atoms: C1_2  and  N1_3 
REMARK    2  A    between atoms: N1_3  and  C2_5 
ROOT
HETATM    1  N1  UNL     1      73.090  13.633  17.745  1.00  0.00    -0.364 N 
ATOM      2  H1  UNL     1      73.393  13.573  18.718  1.00  0.00     0.162 HD
ENDROOT
BRANCH   1   3
HETATM    3  C1  UNL     1      74.028  13.946  16.752  1.00  0.00     0.348 C 
HETATM    4  O1  UNL     1      74.133  15.121  16.313  1.00  0.00    -0.284 OA
ENDBRANCH   1   3
BRANCH   1   5
HETATM    5  C2  UNL     1      71.702  13.395  17.419  1.00  0.00     0.083 A 
HETATM    6  C3  UNL     1      71.133  12.042  17.358  1.00  0.00     0.027 A 
HETATM    7  C4  UNL     1      71.522  12.737  16.060  1.00  0.00     0.027 A 
ENDBRANCH   1   5
TORSDOF 2
ENDMDL
MODEL 5
REMARK VINA RESULT: -3.476175775      6.983      7.812
REMARK  2 active torsions:
REMARK  status: ('A' for Active; 'I' for Inactive)
REMARK    1  A    between atoms: C1_2  and  N1_3 
REMARK    2  A    between atoms: N1_3  and  C2_5 
ROOT
HETATM    1  N1  UNL     1      75.789  13.306  13.066  1.00  0.00    -0.364 N 
ATOM      2  H1  UNL     1      76.035  14.261  12.802  1.00  0.00     0.162 HD
ENDROOT
BRANCH   1   3
HETATM    3  C1  UNL     1      74.731  12.664  12.411  1.00  0.00     0.348 C 
HETATM    4  O1  UNL     1      74.888  12.168  11.264  1.00  0.00    -0.284 OA
ENDBRANCH   1   3
BRANCH   1   5
HETATM    5  C2  UNL     1      76.540  12.644  14.109  1.00  0.00     0.083 A 
HETATM    6  C3  UNL     1      77.662  11.742  13.814  1.00  0.00     0.027 A 
HETATM    7  C4  UNL     1      76.300  11.143  14.143  1.00  0.00     0.027 A 
ENDBRANCH   1   5
TORSDOF 2
ENDMDL
