MODEL 1
REMARK VINA RESULT: -5.432517379      0.000      0.000
REMARK  3 active torsions:
REMARK  status: ('A' for Active; 'I' for Inactive)
REMARK    1  A    between atoms: C4_4  and  C5_5 
REMARK    2  A    between atoms: C5_5  and  N1_6 
REMARK    3  A    between atoms: C5_5  and  N2_10 
ROOT
HETATM    1  C1  UNL     1      28.394  23.850  69.026  1.00  0.00     0.017 C 
HETATM    2  C2  UNL     1      28.044  23.742  70.177  1.00  0.00    -0.090 C 
HETATM    3  C3  UNL     1      27.580  23.633  71.527  1.00  0.00     0.063 C 
HETATM    4  C4  UNL     1      27.270  22.452  72.057  1.00  0.00     0.046 C 
ENDROOT
BRANCH   4   5
HETATM    5  C5  UNL     1      26.785  22.323  73.435  1.00  0.00     0.441 C 
BRANCH   5   6
HETATM    6  N1  UNL     1      27.354  21.098  73.981  1.00  0.00    -0.044 N 
ATOM      7  H13 UNL     1      27.152  20.275  73.412  1.00  0.00     0.277 HD
ATOM      8  H12 UNL     1      28.370  21.063  73.907  1.00  0.00     0.277 HD
ATOM      9  H11 UNL     1      27.020  21.011  74.941  1.00  0.00     0.277 HD
ENDBRANCH   5   6
BRANCH   5  10
HETATM   10  N2  UNL     1      25.379  22.207  73.483  1.00  0.00     0.126 N 
HETATM   11  C6  UNL     1      24.562  23.410  73.700  1.00  0.00     0.305 A 
HETATM   12  C7  UNL     1      24.549  22.695  72.423  1.00  0.00     0.305 A 
ENDBRANCH   5  10
ENDBRANCH   4   5
TORSDOF 3
ENDMDL
MODEL 2
REMARK VINA RESULT: -5.242581812      0.967      1.011
REMARK  3 active torsions:
REMARK  status: ('A' for Active; 'I' for Inactive)
REMARK    1  A    between atoms: C4_4  and  C5_5 
REMARK    2  A    between atoms: C5_5  and  N1_6 
REMARK    3  A    between atoms: C5_5  and  N2_10 
ROOT
HETATM    1  C1  UNL     1      28.914  23.431  68.471  1.00  0.00     0.017 C 
HETATM    2  C2  UNL     1      28.344  23.689  69.504  1.00  0.00    -0.090 C 
HETATM    3  C3  UNL     1      27.623  23.994  70.703  1.00  0.00     0.063 C 
HETATM    4  C4  UNL     1      27.387  23.063  71.623  1.00  0.00     0.046 C 
ENDROOT
BRANCH   4   5
HETATM    5  C5  UNL     1      26.642  23.357  72.852  1.00  0.00     0.441 C 
BRANCH   5   6
HETATM    6  N1  UNL     1      27.564  23.191  73.968  1.00  0.00    -0.044 N 
ATOM      7  H13 UNL     1      27.446  23.900  74.692  1.00  0.00     0.277 HD
ATOM      8  H12 UNL     1      27.351  22.377  74.544  1.00  0.00     0.277 HD
ATOM      9  H11 UNL     1      28.507  23.170  73.580  1.00  0.00     0.277 HD
ENDBRANCH   5   6
BRANCH   5  10
HETATM   10  N2  UNL     1      25.570  22.457  73.038  1.00  0.00     0.126 N 
HETATM   11  C6  UNL     1      24.324  22.935  73.656  1.00  0.00     0.305 A 
HETATM   12  C7  UNL     1      24.378  22.536  72.249  1.00  0.00     0.305 A 
ENDBRANCH   5  10
ENDBRANCH   4   5
TORSDOF 3
ENDMDL
MODEL 3
REMARK VINA RESULT: -4.768002372      3.452      5.837
REMARK  3 active torsions:
REMARK  status: ('A' for Active; 'I' for Inactive)
REMARK    1  A    between atoms: C4_4  and  C5_5 
REMARK    2  A    between atoms: C5_5  and  N1_6 
REMARK    3  A    between atoms: C5_5  and  N2_10 
ROOT
HETATM    1  C1  UNL     1      27.161  23.716  73.227  1.00  0.00     0.017 C 
HETATM    2  C2  UNL     1      27.391  23.659  72.042  1.00  0.00    -0.090 C 
HETATM    3  C3  UNL     1      27.621  23.623  70.630  1.00  0.00     0.063 C 
HETATM    4  C4  UNL     1      28.590  24.343  70.069  1.00  0.00     0.046 C 
ENDROOT
BRANCH   4   5
HETATM    5  C5  UNL     1      28.833  24.325  68.622  1.00  0.00     0.441 C 
BRANCH   5   6
HETATM    6  N1  UNL     1      27.824  23.459  68.025  1.00  0.00    -0.044 N 
ATOM      7  H13 UNL     1      28.220  22.759  67.398  1.00  0.00     0.277 HD
ATOM      8  H12 UNL     1      27.405  22.815  68.695  1.00  0.00     0.277 HD
ATOM      9  H11 UNL     1      27.140  24.063  67.569  1.00  0.00     0.277 HD
ENDBRANCH   5   6
BRANCH   5  10
HETATM   10  N2  UNL     1      30.101  23.789  68.314  1.00  0.00     0.126 N 
HETATM   11  C6  UNL     1      30.712  24.084  67.009  1.00  0.00     0.305 A 
HETATM   12  C7  UNL     1      31.270  24.615  68.254  1.00  0.00     0.305 A 
ENDBRANCH   5  10
ENDBRANCH   4   5
TORSDOF 3
ENDMDL
MODEL 4
REMARK VINA RESULT: -4.508729290      1.375      2.272
REMARK  3 active torsions:
REMARK  status: ('A' for Active; 'I' for Inactive)
REMARK    1  A    between atoms: C4_4  and  C5_5 
REMARK    2  A    between atoms: C5_5  and  N1_6 
REMARK    3  A    between atoms: C5_5  and  N2_10 
ROOT
HETATM    1  C1  UNL     1      29.658  24.815  69.326  1.00  0.00     0.017 C 
HETATM    2  C2  UNL     1      28.656  24.319  69.783  1.00  0.00    -0.090 C 
HETATM    3  C3  UNL     1      27.479  23.686  70.296  1.00  0.00     0.063 C 
HETATM    4  C4  UNL     1      27.443  23.192  71.532  1.00  0.00     0.046 C 
ENDROOT
BRANCH   4   5
HETATM    5  C5  UNL     1      26.248  22.532  72.069  1.00  0.00     0.441 C 
BRANCH   5   6
HETATM    6  N1  UNL     1      25.099  23.343  71.690  1.00  0.00    -0.044 N 
ATOM      7  H13 UNL     1      24.467  23.530  72.469  1.00  0.00     0.277 HD
ATOM      8  H12 UNL     1      25.344  24.311  71.484  1.00  0.00     0.277 HD
ATOM      9  H11 UNL     1      24.641  22.873  70.910  1.00  0.00     0.277 HD
ENDBRANCH   5   6
BRANCH   5  10
HETATM   10  N2  UNL     1      26.282  22.461  73.478  1.00  0.00     0.126 N 
HETATM   11  C6  UNL     1      27.212  21.528  74.132  1.00  0.00     0.305 A 
HETATM   12  C7  UNL     1      27.388  22.978  74.229  1.00  0.00     0.305 A 
ENDBRANCH   5  10
ENDBRANCH   4   5
TORSDOF 3
ENDMDL
MODEL 5
REMARK VINA RESULT: -4.338230835      1.359      2.297
REMARK  3 active torsions:
REMARK  status: ('A' for Active; 'I' for Inactive)
REMARK    1  A    between atoms: C4_4  and  C5_5 
REMARK    2  A    between atoms: C5_5  and  N1_6 
REMARK    3  A    between atoms: C5_5  and  N2_10 
ROOT
HETATM    1  C1  UNL     1      29.768  24.107  68.700  1.00  0.00     0.017 C 
HETATM    2  C2  UNL     1      28.776  24.108  69.390  1.00  0.00    -0.090 C 
HETATM    3  C3  UNL     1      27.579  24.075  70.174  1.00  0.00     0.063 C 
HETATM    4  C4  UNL     1      27.515  23.382  71.309  1.00  0.00     0.046 C 
ENDROOT
BRANCH   4   5
HETATM    5  C5  UNL     1      26.293  23.329  72.119  1.00  0.00     0.441 C 
BRANCH   5   6
HETATM    6  N1  UNL     1      26.346  24.444  73.055  1.00  0.00    -0.044 N 
ATOM      7  H13 UNL     1      25.449  24.634  73.502  1.00  0.00     0.277 HD
ATOM      8  H12 UNL     1      26.872  24.229  73.902  1.00  0.00     0.277 HD
ATOM      9  H11 UNL     1      26.718  25.247  72.548  1.00  0.00     0.277 HD
ENDBRANCH   5   6
BRANCH   5  10
HETATM   10  N2  UNL     1      26.217  22.137  72.869  1.00  0.00     0.126 N 
HETATM   11  C6  UNL     1      27.169  21.050  72.596  1.00  0.00     0.305 A 
HETATM   12  C7  UNL     1      27.205  21.803  73.850  1.00  0.00     0.305 A 
ENDBRANCH   5  10
ENDBRANCH   4   5
TORSDOF 3
ENDMDL
