MODEL 1
REMARK VINA RESULT: -6.152995774      0.000      0.000
REMARK  1 active torsions:
REMARK  status: ('A' for Active; 'I' for Inactive)
REMARK    1  A    between atoms: N2_4  and  N3_6 
ROOT
HETATM    1  N3  UNL     1      27.566  23.327  70.599  1.00  0.00    -0.295 N 
ATOM      2  H3  UNL     1      27.533  22.521  69.976  1.00  0.00     0.187 HD
HETATM    3  C1  UNL     1      27.278  23.107  71.812  1.00  0.00     0.005 C 
HETATM    4  C2  UNL     1      26.909  21.770  72.347  1.00  0.00     0.054 C 
HETATM    5  C3  UNL     1      27.144  21.787  73.818  1.00  0.00     0.006 C 
HETATM    6  C4  UNL     1      27.154  23.239  74.197  1.00  0.00     0.006 C 
HETATM    7  C5  UNL     1      27.233  24.045  72.948  1.00  0.00     0.054 C 
ENDROOT
BRANCH   1   8
HETATM    8  N2  UNL     1      27.917  24.525  70.023  1.00  0.00    -0.249 N 
HETATM    9  N1  UNL     1      28.993  24.740  69.385  1.00  0.00    -0.331 N 
ATOM     10  H12 UNL     1      29.636  23.952  69.303  1.00  0.00     0.178 HD
ATOM     11  H11 UNL     1      29.253  25.628  68.958  1.00  0.00     0.178 HD
ATOM     12  H2  UNL     1      27.262  25.301  70.115  1.00  0.00     0.207 HD
ENDBRANCH   1   8
TORSDOF 1
ENDMDL
MODEL 2
REMARK VINA RESULT: -5.965405490      0.757      1.565
REMARK  1 active torsions:
REMARK  status: ('A' for Active; 'I' for Inactive)
REMARK    1  A    between atoms: N2_4  and  N3_6 
ROOT
HETATM    1  N3  UNL     1      27.540  24.244  70.793  1.00  0.00    -0.295 N 
ATOM      2  H3  UNL     1      27.495  25.261  70.843  1.00  0.00     0.187 HD
HETATM    3  C1  UNL     1      27.284  23.620  71.865  1.00  0.00     0.005 C 
HETATM    4  C2  UNL     1      26.933  24.285  73.147  1.00  0.00     0.054 C 
HETATM    5  C3  UNL     1      26.221  23.290  73.996  1.00  0.00     0.006 C 
HETATM    6  C4  UNL     1      26.604  21.951  73.436  1.00  0.00     0.006 C 
HETATM    7  C5  UNL     1      27.265  22.169  72.120  1.00  0.00     0.054 C 
ENDROOT
BRANCH   1   8
HETATM    8  N2  UNL     1      27.871  23.711  69.570  1.00  0.00    -0.249 N 
HETATM    9  N1  UNL     1      28.813  24.124  68.825  1.00  0.00    -0.331 N 
ATOM     10  H12 UNL     1      29.356  24.912  69.176  1.00  0.00     0.178 HD
ATOM     11  H11 UNL     1      29.058  23.729  67.917  1.00  0.00     0.178 HD
ATOM     12  H2  UNL     1      27.317  22.923  69.234  1.00  0.00     0.207 HD
ENDBRANCH   1   8
TORSDOF 1
ENDMDL
MODEL 3
REMARK VINA RESULT: -5.625674063      4.148      5.178
REMARK  1 active torsions:
REMARK  status: ('A' for Active; 'I' for Inactive)
REMARK    1  A    between atoms: N2_4  and  N3_6 
ROOT
HETATM    1  N3  UNL     1      27.955  23.668  69.083  1.00  0.00    -0.295 N 
ATOM      2  H3  UNL     1      27.248  23.067  68.661  1.00  0.00     0.187 HD
HETATM    3  C1  UNL     1      29.063  23.738  68.475  1.00  0.00     0.005 C 
HETATM    4  C2  UNL     1      29.366  23.008  67.217  1.00  0.00     0.054 C 
HETATM    5  C3  UNL     1      30.500  23.703  66.547  1.00  0.00     0.006 C 
HETATM    6  C4  UNL     1      31.168  24.496  67.632  1.00  0.00     0.006 C 
HETATM    7  C5  UNL     1      30.272  24.507  68.821  1.00  0.00     0.054 C 
ENDROOT
BRANCH   1   8
HETATM    8  N2  UNL     1      27.592  24.306  70.245  1.00  0.00    -0.249 N 
HETATM    9  N1  UNL     1      27.169  23.729  71.294  1.00  0.00    -0.331 N 
ATOM     10  H12 UNL     1      27.100  22.712  71.254  1.00  0.00     0.178 HD
ATOM     11  H11 UNL     1      26.900  24.203  72.155  1.00  0.00     0.178 HD
ATOM     12  H2  UNL     1      27.668  25.324  70.267  1.00  0.00     0.207 HD
ENDBRANCH   1   8
TORSDOF 1
ENDMDL
MODEL 4
REMARK VINA RESULT: -5.609916827      4.104      5.301
REMARK  1 active torsions:
REMARK  status: ('A' for Active; 'I' for Inactive)
REMARK    1  A    between atoms: N2_4  and  N3_6 
ROOT
HETATM    1  N3  UNL     1      28.645  24.485  69.803  1.00  0.00    -0.295 N 
ATOM      2  H3  UNL     1      29.166  25.108  70.420  1.00  0.00     0.187 HD
HETATM    3  C1  UNL     1      29.182  24.230  68.685  1.00  0.00     0.005 C 
HETATM    4  C2  UNL     1      30.493  24.779  68.250  1.00  0.00     0.054 C 
HETATM    5  C3  UNL     1      31.023  23.896  67.174  1.00  0.00     0.006 C 
HETATM    6  C4  UNL     1      29.825  23.162  66.645  1.00  0.00     0.006 C 
HETATM    7  C5  UNL     1      28.692  23.380  67.586  1.00  0.00     0.054 C 
ENDROOT
BRANCH   1   8
HETATM    8  N2  UNL     1      27.443  24.023  70.283  1.00  0.00    -0.249 N 
HETATM    9  N1  UNL     1      27.210  23.716  71.493  1.00  0.00    -0.331 N 
ATOM     10  H12 UNL     1      27.985  23.828  72.146  1.00  0.00     0.178 HD
ATOM     11  H11 UNL     1      26.318  23.373  71.849  1.00  0.00     0.178 HD
ATOM     12  H2  UNL     1      26.679  23.918  69.616  1.00  0.00     0.207 HD
ENDBRANCH   1   8
TORSDOF 1
ENDMDL
MODEL 5
REMARK VINA RESULT: -5.559792491      1.529      1.850
REMARK  1 active torsions:
REMARK  status: ('A' for Active; 'I' for Inactive)
REMARK    1  A    between atoms: N2_4  and  N3_6 
ROOT
HETATM    1  N3  UNL     1      27.460  23.857  71.450  1.00  0.00    -0.295 N 
ATOM      2  H3  UNL     1      28.333  24.134  71.898  1.00  0.00     0.187 HD
HETATM    3  C1  UNL     1      26.565  23.390  72.214  1.00  0.00     0.005 C 
HETATM    4  C2  UNL     1      26.728  23.234  73.683  1.00  0.00     0.054 C 
HETATM    5  C3  UNL     1      25.369  23.160  74.288  1.00  0.00     0.006 C 
HETATM    6  C4  UNL     1      24.460  22.765  73.160  1.00  0.00     0.006 C 
HETATM    7  C5  UNL     1      25.212  22.908  71.884  1.00  0.00     0.054 C 
ENDROOT
BRANCH   1   8
HETATM    8  N2  UNL     1      27.393  24.036  70.089  1.00  0.00    -0.249 N 
HETATM    9  N1  UNL     1      28.393  24.069  69.307  1.00  0.00    -0.331 N 
ATOM     10  H12 UNL     1      29.310  23.951  69.739  1.00  0.00     0.178 HD
ATOM     11  H11 UNL     1      28.343  24.201  68.297  1.00  0.00     0.178 HD
ATOM     12  H2  UNL     1      26.468  24.151  69.674  1.00  0.00     0.207 HD
ENDBRANCH   1   8
TORSDOF 1
ENDMDL
