MODEL 1
REMARK VINA RESULT: -7.363765718      0.000      0.000
REMARK  13 active torsions:
REMARK  status: ('A' for Active; 'I' for Inactive)
REMARK    1  A    between atoms: O1_2  and  C2_3 
REMARK    2  A    between atoms: C3_6  and  N2_7 
REMARK    3  A    between atoms: C4_12  and  N4_13 
REMARK    4  A    between atoms: N4_13  and  C5_15 
REMARK    5  A    between atoms: C5_15  and  C6_16 
REMARK    6  A    between atoms: C6_16  and  C7_17 
REMARK    7  A    between atoms: C7_17  and  N5_18 
REMARK    8  A    between atoms: N5_18  and  C9_20 
REMARK    9  A    between atoms: C9_20  and  C10_21 
REMARK   10  A    between atoms: C10_21  and  C11_22 
REMARK   11  A    between atoms: C11_22  and  N6_23 
REMARK   12  A    between atoms: N6_23  and  C12_25 
REMARK   13  A    between atoms: C13_30  and  N9_31 
ROOT
HETATM    1  C7  UNL     1      -0.735  83.616  37.846  1.00  0.00     0.273 C 
ENDROOT
BRANCH   1   2
HETATM    2  C6  UNL     1       0.751  83.679  37.909  1.00  0.00     0.050 C 
BRANCH   2   3
HETATM    3  C5  UNL     1       1.261  84.060  39.302  1.00  0.00     0.140 C 
BRANCH   3   4
HETATM    4  N4  UNL     1       2.462  84.835  39.086  1.00  0.00    -0.225 N 
ATOM      5  H4  UNL     1       2.375  85.793  38.749  1.00  0.00     0.177 HD
BRANCH   4   6
HETATM    6  C4  UNL     1       3.615  84.367  39.300  1.00  0.00     0.695 A 
HETATM    7  N3  UNL     1       4.303  84.658  40.414  1.00  0.00    -0.022 N 
HETATM    8  C3  UNL     1       5.544  84.150  40.636  1.00  0.00     0.693 A 
ATOM      9  H3  UNL     1       3.886  85.274  41.111  1.00  0.00     0.203 HD
HETATM   10  N1  UNL     1       6.065  83.341  39.700  1.00  0.00    -0.154 N 
HETATM   11  C2  UNL     1       5.386  83.036  38.570  1.00  0.00     0.252 A 
ATOM     12  H1  UNL     1       6.995  82.946  39.844  1.00  0.00     0.188 HD
HETATM   13  N11 UNL     1       4.163  83.549  38.372  1.00  0.00    -0.154 N 
ATOM     14  H11 UNL     1       3.646  83.322  37.523  1.00  0.00     0.188 HD
BRANCH   8  15
HETATM   15  N2  UNL     1       6.221  84.416  41.698  1.00  0.00    -0.234 N 
ATOM     16  H22 UNL     1       7.239  84.369  41.726  1.00  0.00     0.174 HD
ATOM     17  H21 UNL     1       5.736  84.687  42.554  1.00  0.00     0.174 HD
ENDBRANCH   8  15
BRANCH  11  18
HETATM   18  O1  UNL     1       5.907  82.203  37.594  1.00  0.00    -0.326 OA
HETATM   19  C1  UNL     1       6.125  82.660  36.287  1.00  0.00     0.213 C 
ENDBRANCH  11  18
ENDBRANCH   4   6
ENDBRANCH   3   4
ENDBRANCH   2   3
ENDBRANCH   1   2
BRANCH   1  20
HETATM   20  N5  UNL     1      -1.303  82.392  38.313  1.00  0.00     0.084 N 
HETATM   21  C8  UNL     1      -2.714  82.435  38.529  1.00  0.00     0.309 C 
BRANCH  20  22
HETATM   22  C9  UNL     1      -0.900  81.331  37.434  1.00  0.00     0.273 C 
BRANCH  22  23
HETATM   23  C10 UNL     1      -1.820  80.135  37.464  1.00  0.00     0.050 C 
BRANCH  23  24
HETATM   24  C11 UNL     1      -1.014  78.937  37.071  1.00  0.00     0.140 C 
BRANCH  24  25
HETATM   25  N6  UNL     1      -1.779  77.729  36.954  1.00  0.00    -0.224 N 
ATOM     26  H6  UNL     1      -2.270  77.339  37.758  1.00  0.00     0.177 HD
BRANCH  25  27
HETATM   27  C12 UNL     1      -1.827  77.153  35.803  1.00  0.00     0.707 A 
HETATM   28  N7  UNL     1      -2.401  75.979  35.479  1.00  0.00    -0.117 N 
HETATM   29  N8  UNL     1      -2.237  75.727  34.201  1.00  0.00    -0.118 N 
ATOM     30  H7  UNL     1      -2.893  75.372  36.134  1.00  0.00     0.206 HD
HETATM   31  C13 UNL     1      -1.548  76.745  33.681  1.00  0.00     0.705 A 
ATOM     32  H8  UNL     1      -2.573  74.906  33.698  1.00  0.00     0.206 HD
HETATM   33  N10 UNL     1      -1.293  77.632  34.676  1.00  0.00    -0.020 N 
ATOM     34  H10 UNL     1      -0.783  78.510  34.580  1.00  0.00     0.203 HD
BRANCH  31  35
HETATM   35  N9  UNL     1      -1.189  76.855  32.438  1.00  0.00    -0.233 N 
ATOM     36  H92 UNL     1      -1.717  76.539  31.624  1.00  0.00     0.174 HD
ATOM     37  H91 UNL     1      -0.323  77.279  32.108  1.00  0.00     0.174 HD
ENDBRANCH  31  35
ENDBRANCH  25  27
ENDBRANCH  24  25
ENDBRANCH  23  24
ENDBRANCH  22  23
ENDBRANCH  20  22
ENDBRANCH   1  20
TORSDOF 13
ENDMDL
MODEL 2
REMARK VINA RESULT: -7.251312202      2.299      9.121
REMARK  13 active torsions:
REMARK  status: ('A' for Active; 'I' for Inactive)
REMARK    1  A    between atoms: O1_2  and  C2_3 
REMARK    2  A    between atoms: C3_6  and  N2_7 
REMARK    3  A    between atoms: C4_12  and  N4_13 
REMARK    4  A    between atoms: N4_13  and  C5_15 
REMARK    5  A    between atoms: C5_15  and  C6_16 
REMARK    6  A    between atoms: C6_16  and  C7_17 
REMARK    7  A    between atoms: C7_17  and  N5_18 
REMARK    8  A    between atoms: N5_18  and  C9_20 
REMARK    9  A    between atoms: C9_20  and  C10_21 
REMARK   10  A    between atoms: C10_21  and  C11_22 
REMARK   11  A    between atoms: C11_22  and  N6_23 
REMARK   12  A    between atoms: N6_23  and  C12_25 
REMARK   13  A    between atoms: C13_30  and  N9_31 
ROOT
HETATM    1  C7  UNL     1      -0.821  81.823  37.974  1.00  0.00     0.273 C 
ENDROOT
BRANCH   1   2
HETATM    2  C6  UNL     1      -2.241  81.479  38.260  1.00  0.00     0.050 C 
BRANCH   2   3
HETATM    3  C5  UNL     1      -2.422  80.003  38.625  1.00  0.00     0.140 C 
BRANCH   3   4
HETATM    4  N4  UNL     1      -2.640  79.310  37.375  1.00  0.00    -0.225 N 
ATOM      5  H4  UNL     1      -3.330  79.680  36.722  1.00  0.00     0.177 HD
BRANCH   4   6
HETATM    6  C4  UNL     1      -2.007  78.263  37.064  1.00  0.00     0.695 A 
HETATM    7  N3  UNL     1      -2.515  77.039  37.272  1.00  0.00    -0.022 N 
HETATM    8  C3  UNL     1      -1.827  75.917  36.934  1.00  0.00     0.693 A 
ATOM      9  H3  UNL     1      -3.439  76.948  37.693  1.00  0.00     0.203 HD
HETATM   10  N1  UNL     1      -0.613  76.071  36.381  1.00  0.00    -0.154 N 
HETATM   11  C2  UNL     1      -0.084  77.297  36.164  1.00  0.00     0.252 A 
ATOM     12  H1  UNL     1      -0.077  75.243  36.118  1.00  0.00     0.188 HD
HETATM   13  N11 UNL     1      -0.781  78.390  36.505  1.00  0.00    -0.154 N 
ATOM     14  H11 UNL     1      -0.388  79.317  36.343  1.00  0.00     0.188 HD
BRANCH   8  15
HETATM   15  N2  UNL     1      -2.296  74.733  37.124  1.00  0.00    -0.234 N 
ATOM     16  H22 UNL     1      -2.360  74.041  36.377  1.00  0.00     0.174 HD
ATOM     17  H21 UNL     1      -2.620  74.460  38.052  1.00  0.00     0.174 HD
ENDBRANCH   8  15
BRANCH  11  18
HETATM   18  O1  UNL     1       1.166  77.475  35.595  1.00  0.00    -0.326 OA
HETATM   19  C1  UNL     1       1.339  78.267  34.451  1.00  0.00     0.213 C 
ENDBRANCH  11  18
ENDBRANCH   4   6
ENDBRANCH   3   4
ENDBRANCH   2   3
ENDBRANCH   1   2
BRANCH   1  20
HETATM   20  N5  UNL     1      -0.592  83.194  37.643  1.00  0.00     0.084 N 
HETATM   21  C8  UNL     1      -1.499  84.112  38.252  1.00  0.00     0.309 C 
BRANCH  20  22
HETATM   22  C9  UNL     1       0.785  83.507  37.899  1.00  0.00     0.273 C 
BRANCH  22  23
HETATM   23  C10 UNL     1       0.977  84.636  38.882  1.00  0.00     0.050 C 
BRANCH  23  24
HETATM   24  C11 UNL     1       2.240  84.365  39.639  1.00  0.00     0.140 C 
BRANCH  24  25
HETATM   25  N6  UNL     1       3.410  84.957  39.058  1.00  0.00    -0.224 N 
ATOM     26  H6  UNL     1       3.343  85.545  38.227  1.00  0.00     0.177 HD
BRANCH  25  27
HETATM   27  C12 UNL     1       4.547  84.725  39.617  1.00  0.00     0.707 A 
HETATM   28  N7  UNL     1       5.728  84.457  39.029  1.00  0.00    -0.117 N 
HETATM   29  N8  UNL     1       6.659  84.274  39.938  1.00  0.00    -0.118 N 
ATOM     30  H7  UNL     1       5.878  84.404  38.022  1.00  0.00     0.206 HD
HETATM   31  C13 UNL     1       6.083  84.422  41.131  1.00  0.00     0.705 A 
ATOM     32  H8  UNL     1       7.641  84.059  39.763  1.00  0.00     0.206 HD
HETATM   33  N10 UNL     1       4.770  84.702  40.934  1.00  0.00    -0.020 N 
ATOM     34  H10 UNL     1       4.076  84.867  41.663  1.00  0.00     0.203 HD
BRANCH  31  35
HETATM   35  N9  UNL     1       6.685  84.313  42.278  1.00  0.00    -0.233 N 
ATOM     36  H92 UNL     1       6.538  83.581  42.972  1.00  0.00     0.174 HD
ATOM     37  H91 UNL     1       7.394  84.952  42.636  1.00  0.00     0.174 HD
ENDBRANCH  31  35
ENDBRANCH  25  27
ENDBRANCH  24  25
ENDBRANCH  23  24
ENDBRANCH  22  23
ENDBRANCH  20  22
ENDBRANCH   1  20
TORSDOF 13
ENDMDL
MODEL 3
REMARK VINA RESULT: -7.123979054      6.409      9.936
REMARK  13 active torsions:
REMARK  status: ('A' for Active; 'I' for Inactive)
REMARK    1  A    between atoms: O1_2  and  C2_3 
REMARK    2  A    between atoms: C3_6  and  N2_7 
REMARK    3  A    between atoms: C4_12  and  N4_13 
REMARK    4  A    between atoms: N4_13  and  C5_15 
REMARK    5  A    between atoms: C5_15  and  C6_16 
REMARK    6  A    between atoms: C6_16  and  C7_17 
REMARK    7  A    between atoms: C7_17  and  N5_18 
REMARK    8  A    between atoms: N5_18  and  C9_20 
REMARK    9  A    between atoms: C9_20  and  C10_21 
REMARK   10  A    between atoms: C10_21  and  C11_22 
REMARK   11  A    between atoms: C11_22  and  N6_23 
REMARK   12  A    between atoms: N6_23  and  C12_25 
REMARK   13  A    between atoms: C13_30  and  N9_31 
ROOT
HETATM    1  C7  UNL     1      -4.466  78.319  36.315  1.00  0.00     0.273 C 
ENDROOT
BRANCH   1   2
HETATM    2  C6  UNL     1      -4.462  78.450  34.831  1.00  0.00     0.050 C 
BRANCH   2   3
HETATM    3  C5  UNL     1      -5.741  77.900  34.193  1.00  0.00     0.140 C 
BRANCH   3   4
HETATM    4  N4  UNL     1      -5.472  76.510  33.901  1.00  0.00    -0.225 N 
ATOM      5  H4  UNL     1      -5.767  75.800  34.572  1.00  0.00     0.177 HD
BRANCH   4   6
HETATM    6  C4  UNL     1      -4.884  76.143  32.846  1.00  0.00     0.695 A 
HETATM    7  N3  UNL     1      -4.313  74.934  32.736  1.00  0.00    -0.022 N 
HETATM    8  C3  UNL     1      -3.682  74.547  31.596  1.00  0.00     0.693 A 
ATOM      9  H3  UNL     1      -4.353  74.290  33.526  1.00  0.00     0.203 HD
HETATM   10  N1  UNL     1      -3.647  75.417  30.575  1.00  0.00    -0.154 N 
HETATM   11  C2  UNL     1      -4.217  76.641  30.667  1.00  0.00     0.252 A 
ATOM     12  H1  UNL     1      -3.179  75.150  29.708  1.00  0.00     0.188 HD
HETATM   13  N11 UNL     1      -4.834  77.002  31.801  1.00  0.00    -0.154 N 
ATOM     14  H11 UNL     1      -5.266  77.922  31.876  1.00  0.00     0.188 HD
BRANCH   8  15
HETATM   15  N2  UNL     1      -3.128  73.391  31.469  1.00  0.00    -0.234 N 
ATOM     16  H22 UNL     1      -3.313  72.779  30.675  1.00  0.00     0.174 HD
ATOM     17  H21 UNL     1      -2.476  73.062  32.181  1.00  0.00     0.174 HD
ENDBRANCH   8  15
BRANCH  11  18
HETATM   18  O1  UNL     1      -4.191  77.552  29.624  1.00  0.00    -0.326 OA
HETATM   19  C1  UNL     1      -4.211  77.129  28.288  1.00  0.00     0.213 C 
ENDBRANCH  11  18
ENDBRANCH   4   6
ENDBRANCH   3   4
ENDBRANCH   2   3
ENDBRANCH   1   2
BRANCH   1  20
HETATM   20  N5  UNL     1      -3.210  78.580  36.942  1.00  0.00     0.084 N 
HETATM   21  C8  UNL     1      -3.037  79.924  37.390  1.00  0.00     0.309 C 
BRANCH  20  22
HETATM   22  C9  UNL     1      -3.001  77.610  37.979  1.00  0.00     0.273 C 
BRANCH  22  23
HETATM   23  C10 UNL     1      -3.153  76.182  37.514  1.00  0.00     0.050 C 
BRANCH  23  24
HETATM   24  C11 UNL     1      -1.882  75.795  36.823  1.00  0.00     0.140 C 
BRANCH  24  25
HETATM   25  N6  UNL     1      -2.007  75.661  35.401  1.00  0.00    -0.224 N 
ATOM     26  H6  UNL     1      -2.623  74.959  34.991  1.00  0.00     0.177 HD
BRANCH  25  27
HETATM   27  C12 UNL     1      -1.317  76.453  34.656  1.00  0.00     0.707 A 
HETATM   28  N7  UNL     1      -1.421  76.655  33.329  1.00  0.00    -0.117 N 
HETATM   29  N8  UNL     1      -0.537  77.542  32.930  1.00  0.00    -0.118 N 
ATOM     30  H7  UNL     1      -2.091  76.186  32.719  1.00  0.00     0.206 HD
HETATM   31  C13 UNL     1       0.153  77.925  34.006  1.00  0.00     0.705 A 
ATOM     32  H8  UNL     1      -0.403  77.876  31.976  1.00  0.00     0.206 HD
HETATM   33  N10 UNL     1      -0.330  77.249  35.079  1.00  0.00    -0.020 N 
ATOM     34  H10 UNL     1       0.002  77.334  36.040  1.00  0.00     0.203 HD
BRANCH  31  35
HETATM   35  N9  UNL     1       1.119  78.793  34.012  1.00  0.00    -0.233 N 
ATOM     36  H92 UNL     1       1.446  79.342  33.216  1.00  0.00     0.174 HD
ATOM     37  H91 UNL     1       1.683  79.045  34.823  1.00  0.00     0.174 HD
ENDBRANCH  31  35
ENDBRANCH  25  27
ENDBRANCH  24  25
ENDBRANCH  23  24
ENDBRANCH  22  23
ENDBRANCH  20  22
ENDBRANCH   1  20
TORSDOF 13
ENDMDL
MODEL 4
REMARK VINA RESULT: -7.095071854      6.466     10.008
REMARK  13 active torsions:
REMARK  status: ('A' for Active; 'I' for Inactive)
REMARK    1  A    between atoms: O1_2  and  C2_3 
REMARK    2  A    between atoms: C3_6  and  N2_7 
REMARK    3  A    between atoms: C4_12  and  N4_13 
REMARK    4  A    between atoms: N4_13  and  C5_15 
REMARK    5  A    between atoms: C5_15  and  C6_16 
REMARK    6  A    between atoms: C6_16  and  C7_17 
REMARK    7  A    between atoms: C7_17  and  N5_18 
REMARK    8  A    between atoms: N5_18  and  C9_20 
REMARK    9  A    between atoms: C9_20  and  C10_21 
REMARK   10  A    between atoms: C10_21  and  C11_22 
REMARK   11  A    between atoms: C11_22  and  N6_23 
REMARK   12  A    between atoms: N6_23  and  C12_25 
REMARK   13  A    between atoms: C13_30  and  N9_31 
ROOT
HETATM    1  C7  UNL     1      -4.388  77.918  35.738  1.00  0.00     0.273 C 
ENDROOT
BRANCH   1   2
HETATM    2  C6  UNL     1      -4.120  78.281  34.319  1.00  0.00     0.050 C 
BRANCH   2   3
HETATM    3  C5  UNL     1      -5.399  78.333  33.478  1.00  0.00     0.140 C 
BRANCH   3   4
HETATM    4  N4  UNL     1      -5.656  76.971  33.065  1.00  0.00    -0.225 N 
ATOM      5  H4  UNL     1      -6.449  76.475  33.471  1.00  0.00     0.177 HD
BRANCH   4   6
HETATM    6  C4  UNL     1      -4.933  76.375  32.219  1.00  0.00     0.695 A 
HETATM    7  N3  UNL     1      -4.483  75.128  32.425  1.00  0.00    -0.022 N 
HETATM    8  C3  UNL     1      -3.705  74.492  31.510  1.00  0.00     0.693 A 
ATOM      9  H3  UNL     1      -4.731  74.645  33.288  1.00  0.00     0.203 HD
HETATM   10  N1  UNL     1      -3.397  75.155  30.383  1.00  0.00    -0.154 N 
HETATM   11  C2  UNL     1      -3.841  76.414  30.158  1.00  0.00     0.252 A 
ATOM     12  H1  UNL     1      -2.815  74.700  29.680  1.00  0.00     0.188 HD
HETATM   13  N11 UNL     1      -4.608  77.021  31.075  1.00  0.00    -0.154 N 
ATOM     14  H11 UNL     1      -4.946  77.968  30.911  1.00  0.00     0.188 HD
BRANCH   8  15
HETATM   15  N2  UNL     1      -3.263  73.296  31.687  1.00  0.00    -0.234 N 
ATOM     16  H22 UNL     1      -3.581  72.701  32.451  1.00  0.00     0.174 HD
ATOM     17  H21 UNL     1      -2.569  72.913  31.045  1.00  0.00     0.174 HD
ENDBRANCH   8  15
BRANCH  11  18
HETATM   18  O1  UNL     1      -3.535  77.113  29.003  1.00  0.00    -0.326 OA
HETATM   19  C1  UNL     1      -4.493  77.320  28.001  1.00  0.00     0.213 C 
ENDBRANCH  11  18
ENDBRANCH   4   6
ENDBRANCH   3   4
ENDBRANCH   2   3
ENDBRANCH   1   2
BRANCH   1  20
HETATM   20  N5  UNL     1      -3.526  78.544  36.689  1.00  0.00     0.084 N 
HETATM   21  C8  UNL     1      -3.918  79.863  37.070  1.00  0.00     0.309 C 
BRANCH  20  22
HETATM   22  C9  UNL     1      -3.354  77.662  37.808  1.00  0.00     0.273 C 
BRANCH  22  23
HETATM   23  C10 UNL     1      -1.970  77.703  38.408  1.00  0.00     0.050 C 
BRANCH  23  24
HETATM   24  C11 UNL     1      -1.076  76.878  37.536  1.00  0.00     0.140 C 
BRANCH  24  25
HETATM   25  N6  UNL     1      -0.015  77.619  36.917  1.00  0.00    -0.224 N 
ATOM     26  H6  UNL     1       0.700  78.080  37.478  1.00  0.00     0.177 HD
BRANCH  25  27
HETATM   27  C12 UNL     1       0.007  77.684  35.631  1.00  0.00     0.707 A 
HETATM   28  N7  UNL     1       0.911  78.293  34.840  1.00  0.00    -0.117 N 
HETATM   29  N8  UNL     1       0.588  78.140  33.576  1.00  0.00    -0.118 N 
ATOM     30  H7  UNL     1       1.729  78.800  35.175  1.00  0.00     0.206 HD
HETATM   31  C13 UNL     1      -0.537  77.425  33.537  1.00  0.00     0.705 A 
ATOM     32  H8  UNL     1       1.103  78.501  32.772  1.00  0.00     0.206 HD
HETATM   33  N10 UNL     1      -0.900  77.141  34.813  1.00  0.00    -0.020 N 
ATOM     34  H10 UNL     1      -1.721  76.607  35.099  1.00  0.00     0.203 HD
BRANCH  31  35
HETATM   35  N9  UNL     1      -1.169  77.071  32.458  1.00  0.00    -0.233 N 
ATOM     36  H92 UNL     1      -0.828  77.156  31.501  1.00  0.00     0.174 HD
ATOM     37  H91 UNL     1      -2.098  76.654  32.427  1.00  0.00     0.174 HD
ENDBRANCH  31  35
ENDBRANCH  25  27
ENDBRANCH  24  25
ENDBRANCH  23  24
ENDBRANCH  22  23
ENDBRANCH  20  22
ENDBRANCH   1  20
TORSDOF 13
ENDMDL
MODEL 5
REMARK VINA RESULT: -7.083415563      6.625     10.039
REMARK  13 active torsions:
REMARK  status: ('A' for Active; 'I' for Inactive)
REMARK    1  A    between atoms: O1_2  and  C2_3 
REMARK    2  A    between atoms: C3_6  and  N2_7 
REMARK    3  A    between atoms: C4_12  and  N4_13 
REMARK    4  A    between atoms: N4_13  and  C5_15 
REMARK    5  A    between atoms: C5_15  and  C6_16 
REMARK    6  A    between atoms: C6_16  and  C7_17 
REMARK    7  A    between atoms: C7_17  and  N5_18 
REMARK    8  A    between atoms: N5_18  and  C9_20 
REMARK    9  A    between atoms: C9_20  and  C10_21 
REMARK   10  A    between atoms: C10_21  and  C11_22 
REMARK   11  A    between atoms: C11_22  and  N6_23 
REMARK   12  A    between atoms: N6_23  and  C12_25 
REMARK   13  A    between atoms: C13_30  and  N9_31 
ROOT
HETATM    1  C7  UNL     1      -5.173  77.306  35.632  1.00  0.00     0.273 C 
ENDROOT
BRANCH   1   2
HETATM    2  C6  UNL     1      -4.543  78.279  34.697  1.00  0.00     0.050 C 
BRANCH   2   3
HETATM    3  C5  UNL     1      -5.325  78.420  33.387  1.00  0.00     0.140 C 
BRANCH   3   4
HETATM    4  N4  UNL     1      -5.643  77.073  32.969  1.00  0.00    -0.225 N 
ATOM      5  H4  UNL     1      -6.473  76.622  33.353  1.00  0.00     0.177 HD
BRANCH   4   6
HETATM    6  C4  UNL     1      -4.928  76.436  32.146  1.00  0.00     0.695 A 
HETATM    7  N3  UNL     1      -4.540  75.172  32.373  1.00  0.00    -0.022 N 
HETATM    8  C3  UNL     1      -3.771  74.493  31.482  1.00  0.00     0.693 A 
ATOM      9  H3  UNL     1      -4.828  74.710  33.236  1.00  0.00     0.203 HD
HETATM   10  N1  UNL     1      -3.409  75.130  30.357  1.00  0.00    -0.154 N 
HETATM   11  C2  UNL     1      -3.791  76.404  30.110  1.00  0.00     0.252 A 
ATOM     12  H1  UNL     1      -2.832  74.641  29.671  1.00  0.00     0.188 HD
HETATM   13  N11 UNL     1      -4.550  77.055  31.003  1.00  0.00    -0.154 N 
ATOM     14  H11 UNL     1      -4.841  78.014  30.822  1.00  0.00     0.188 HD
BRANCH   8  15
HETATM   15  N2  UNL     1      -3.388  73.280  31.681  1.00  0.00    -0.234 N 
ATOM     16  H22 UNL     1      -4.023  72.485  31.612  1.00  0.00     0.174 HD
ATOM     17  H21 UNL     1      -2.414  73.089  31.916  1.00  0.00     0.174 HD
ENDBRANCH   8  15
BRANCH  11  18
HETATM   18  O1  UNL     1      -3.428  77.076  28.955  1.00  0.00    -0.326 OA
HETATM   19  C1  UNL     1      -4.374  77.404  27.974  1.00  0.00     0.213 C 
ENDBRANCH  11  18
ENDBRANCH   4   6
ENDBRANCH   3   4
ENDBRANCH   2   3
ENDBRANCH   1   2
BRANCH   1  20
HETATM   20  N5  UNL     1      -5.047  77.638  37.015  1.00  0.00     0.084 N 
HETATM   21  C8  UNL     1      -4.734  76.534  37.865  1.00  0.00     0.309 C 
BRANCH  20  22
HETATM   22  C9  UNL     1      -4.124  78.729  37.146  1.00  0.00     0.273 C 
BRANCH  22  23
HETATM   23  C10 UNL     1      -3.046  78.493  38.175  1.00  0.00     0.050 C 
BRANCH  23  24
HETATM   24  C11 UNL     1      -1.725  78.644  37.487  1.00  0.00     0.140 C 
BRANCH  24  25
HETATM   25  N6  UNL     1      -1.097  77.400  37.146  1.00  0.00    -0.224 N 
ATOM     26  H6  UNL     1      -0.504  76.910  37.816  1.00  0.00     0.177 HD
BRANCH  25  27
HETATM   27  C12 UNL     1      -1.304  76.921  35.968  1.00  0.00     0.707 A 
HETATM   28  N7  UNL     1      -1.871  75.748  35.631  1.00  0.00    -0.117 N 
HETATM   29  N8  UNL     1      -1.903  75.614  34.325  1.00  0.00    -0.118 N 
ATOM     30  H7  UNL     1      -2.226  75.060  36.296  1.00  0.00     0.206 HD
HETATM   31  C13 UNL     1      -1.350  76.709  33.801  1.00  0.00     0.705 A 
ATOM     32  H8  UNL     1      -2.279  74.820  33.807  1.00  0.00     0.206 HD
HETATM   33  N10 UNL     1      -0.977  77.522  34.821  1.00  0.00    -0.020 N 
ATOM     34  H10 UNL     1      -0.527  78.433  34.727  1.00  0.00     0.203 HD
BRANCH  31  35
HETATM   35  N9  UNL     1      -1.200  76.944  32.532  1.00  0.00    -0.233 N 
ATOM     36  H92 UNL     1      -0.907  76.273  31.821  1.00  0.00     0.174 HD
ATOM     37  H91 UNL     1      -1.359  77.840  32.073  1.00  0.00     0.174 HD
ENDBRANCH  31  35
ENDBRANCH  25  27
ENDBRANCH  24  25
ENDBRANCH  23  24
ENDBRANCH  22  23
ENDBRANCH  20  22
ENDBRANCH   1  20
TORSDOF 13
ENDMDL
