MODEL 1
REMARK VINA RESULT: -7.582168859      0.000      0.000
REMARK  8 active torsions:
REMARK  status: ('A' for Active; 'I' for Inactive)
REMARK    1  A    between atoms: C8_8  and  O1_9 
REMARK    2  A    between atoms: O1_9  and  C9_10 
REMARK    3  A    between atoms: C9_10  and  C10_12 
REMARK    4  A    between atoms: C10_12  and  S1_13 
REMARK    5  A    between atoms: S1_13  and  C11_14 
REMARK    6  A    between atoms: C11_14  and  C12_15 
REMARK    7  A    between atoms: C12_15  and  O3_18 
REMARK    8  A    between atoms: O3_18  and  N1_19 
ROOT
HETATM    1  C1  UNL     1       6.230  -8.167 -10.101  1.00  0.00     0.014 C 
HETATM    2  C2  UNL     1       5.996  -8.578  -8.871  1.00  0.00    -0.085 C 
HETATM    3  C3  UNL     1       7.011  -8.876  -7.837  1.00  0.00     0.034 C 
HETATM    4  C4  UNL     1       6.285  -8.449  -6.556  1.00  0.00     0.010 C 
HETATM    5  C5  UNL     1       4.896  -8.131  -6.882  1.00  0.00     0.003 C 
HETATM    6  C6  UNL     1       4.693  -8.849  -8.198  1.00  0.00     0.021 C 
HETATM    7  C7  UNL     1       3.599  -8.303  -9.039  1.00  0.00     0.042 C 
HETATM    8  C8  UNL     1       2.269  -8.469  -8.346  1.00  0.00     0.135 C 
HETATM    9  C18 UNL     1       2.105  -7.707  -7.107  1.00  0.00     0.065 C 
HETATM   10  C19 UNL     1       2.973  -6.557  -6.826  1.00  0.00     0.135 C 
HETATM   11  O4  UNL     1       2.674  -5.398  -7.580  1.00  0.00    -0.350 OA
HETATM   12  C20 UNL     1       3.377  -4.368  -6.955  1.00  0.00     0.158 C 
HETATM   13  C21 UNL     1       4.059  -3.522  -8.021  1.00  0.00     0.078 C 
HETATM   14  C22 UNL     1       2.272  -3.442  -6.399  1.00  0.00     0.078 C 
HETATM   15  O5  UNL     1       4.147  -4.703  -5.913  1.00  0.00    -0.345 OA
HETATM   16  C23 UNL     1       5.053  -5.737  -6.024  1.00  0.00     0.063 C 
HETATM   17  C24 UNL     1       5.179  -6.333  -4.619  1.00  0.00     0.046 C 
HETATM   18  C25 UNL     1       6.342  -5.146  -6.516  1.00  0.00     0.046 C 
HETATM   19  C26 UNL     1       4.457  -6.749  -6.997  1.00  0.00     0.053 C 
ENDROOT
BRANCH   8  20
HETATM   20  O1  UNL     1       1.271  -8.266  -9.328  1.00  0.00    -0.315 OA
BRANCH  20  21
HETATM   21  C9  UNL     1       0.613  -9.307  -9.940  1.00  0.00     0.268 C 
HETATM   22  O2  UNL     1       0.250  -9.131 -11.145  1.00  0.00    -0.264 OA
BRANCH  21  23
HETATM   23  C10 UNL     1       0.300 -10.595  -9.306  1.00  0.00     0.184 C 
BRANCH  23  24
HETATM   24  S1  UNL     1      -1.057 -10.451  -8.131  1.00  0.00    -0.156 SA
BRANCH  24  25
HETATM   25  C11 UNL     1      -2.446  -9.510  -8.767  1.00  0.00     0.114 C 
BRANCH  25  26
HETATM   26  C12 UNL     1      -2.687  -8.344  -7.820  1.00  0.00     0.090 C 
HETATM   27  C13 UNL     1      -3.921  -8.577  -6.976  1.00  0.00     0.049 C 
HETATM   28  C14 UNL     1      -1.530  -8.146  -6.864  1.00  0.00     0.049 C 
BRANCH  26  29
HETATM   29  O3  UNL     1      -2.911  -7.197  -8.608  1.00  0.00    -0.269 OA
BRANCH  29  30
HETATM   30  N1  UNL     1      -2.646  -7.149  -9.949  1.00  0.00    -0.275 N 
HETATM   31  C15 UNL     1      -1.771  -6.319 -10.380  1.00  0.00     0.002 C 
HETATM   32  C16 UNL     1      -1.060  -5.431  -9.457  1.00  0.00     0.065 C 
HETATM   33  C17 UNL     1      -1.475  -6.258 -11.828  1.00  0.00     0.065 C 
ATOM     34  H1  UNL     1      -3.137  -7.765 -10.597  1.00  0.00     0.193 HD
ENDBRANCH  29  30
ENDBRANCH  26  29
ENDBRANCH  25  26
ENDBRANCH  24  25
ENDBRANCH  23  24
ENDBRANCH  21  23
ENDBRANCH  20  21
ENDBRANCH   8  20
TORSDOF 8
ENDMDL
MODEL 2
REMARK VINA RESULT: -7.552916910      3.017      8.037
REMARK  8 active torsions:
REMARK  status: ('A' for Active; 'I' for Inactive)
REMARK    1  A    between atoms: C8_8  and  O1_9 
REMARK    2  A    between atoms: O1_9  and  C9_10 
REMARK    3  A    between atoms: C9_10  and  C10_12 
REMARK    4  A    between atoms: C10_12  and  S1_13 
REMARK    5  A    between atoms: S1_13  and  C11_14 
REMARK    6  A    between atoms: C11_14  and  C12_15 
REMARK    7  A    between atoms: C12_15  and  O3_18 
REMARK    8  A    between atoms: O3_18  and  N1_19 
ROOT
HETATM    1  C1  UNL     1      -1.306  -4.904 -10.309  1.00  0.00     0.014 C 
HETATM    2  C2  UNL     1      -1.639  -5.432  -9.149  1.00  0.00    -0.085 C 
HETATM    3  C3  UNL     1      -2.976  -5.937  -8.765  1.00  0.00     0.034 C 
HETATM    4  C4  UNL     1      -2.614  -7.105  -7.840  1.00  0.00     0.010 C 
HETATM    5  C5  UNL     1      -1.172  -7.088  -7.597  1.00  0.00     0.003 C 
HETATM    6  C6  UNL     1      -0.797  -5.663  -7.940  1.00  0.00     0.021 C 
HETATM    7  C7  UNL     1       0.628  -5.470  -8.308  1.00  0.00     0.042 C 
HETATM    8  C8  UNL     1       1.522  -5.790  -7.136  1.00  0.00     0.135 C 
HETATM    9  C18 UNL     1       1.512  -7.188  -6.699  1.00  0.00     0.065 C 
HETATM   10  C19 UNL     1       1.030  -8.241  -7.601  1.00  0.00     0.135 C 
HETATM   11  O4  UNL     1       1.924  -8.573  -8.645  1.00  0.00    -0.350 OA
HETATM   12  C20 UNL     1       1.436  -9.768  -9.174  1.00  0.00     0.158 C 
HETATM   13  C21 UNL     1       1.461  -9.680 -10.693  1.00  0.00     0.078 C 
HETATM   14  C22 UNL     1       2.535 -10.802  -8.844  1.00  0.00     0.078 C 
HETATM   15  O5  UNL     1       0.301 -10.246  -8.649  1.00  0.00    -0.345 OA
HETATM   16  C23 UNL     1      -0.805  -9.431  -8.529  1.00  0.00     0.063 C 
HETATM   17  C24 UNL     1      -1.574  -9.950  -7.311  1.00  0.00     0.046 C 
HETATM   18  C25 UNL     1      -1.589  -9.557  -9.802  1.00  0.00     0.046 C 
HETATM   19  C26 UNL     1      -0.291  -8.014  -8.290  1.00  0.00     0.053 C 
ENDROOT
BRANCH   8  20
HETATM   20  O1  UNL     1       2.796  -5.252  -7.437  1.00  0.00    -0.315 OA
BRANCH  20  21
HETATM   21  C9  UNL     1       3.589  -4.653  -6.487  1.00  0.00     0.268 C 
HETATM   22  O2  UNL     1       3.999  -3.476  -6.736  1.00  0.00    -0.264 OA
BRANCH  21  23
HETATM   23  C10 UNL     1       3.994  -5.271  -5.216  1.00  0.00     0.184 C 
BRANCH  23  24
HETATM   24  S1  UNL     1       5.647  -5.980  -5.314  1.00  0.00    -0.156 SA
BRANCH  24  25
HETATM   25  C11 UNL     1       6.065  -6.573  -6.955  1.00  0.00     0.114 C 
BRANCH  25  26
HETATM   26  C12 UNL     1       6.454  -8.039  -6.831  1.00  0.00     0.090 C 
HETATM   27  C13 UNL     1       6.663  -8.425  -5.383  1.00  0.00     0.049 C 
HETATM   28  C14 UNL     1       5.380  -8.953  -7.381  1.00  0.00     0.049 C 
BRANCH  26  29
HETATM   29  O3  UNL     1       7.678  -8.212  -7.507  1.00  0.00    -0.269 OA
BRANCH  29  30
HETATM   30  N1  UNL     1       7.934  -9.275  -8.331  1.00  0.00    -0.275 N 
HETATM   31  C15 UNL     1       8.766 -10.169  -7.949  1.00  0.00     0.002 C 
HETATM   32  C16 UNL     1       9.438 -10.066  -6.651  1.00  0.00     0.065 C 
HETATM   33  C17 UNL     1       9.050 -11.324  -8.830  1.00  0.00     0.065 C 
ATOM     34  H1  UNL     1       7.469  -9.353  -9.235  1.00  0.00     0.193 HD
ENDBRANCH  29  30
ENDBRANCH  26  29
ENDBRANCH  25  26
ENDBRANCH  24  25
ENDBRANCH  23  24
ENDBRANCH  21  23
ENDBRANCH  20  21
ENDBRANCH   8  20
TORSDOF 8
ENDMDL
MODEL 3
REMARK VINA RESULT: -7.494931058      2.668      7.232
REMARK  8 active torsions:
REMARK  status: ('A' for Active; 'I' for Inactive)
REMARK    1  A    between atoms: C8_8  and  O1_9 
REMARK    2  A    between atoms: O1_9  and  C9_10 
REMARK    3  A    between atoms: C9_10  and  C10_12 
REMARK    4  A    between atoms: C10_12  and  S1_13 
REMARK    5  A    between atoms: S1_13  and  C11_14 
REMARK    6  A    between atoms: C11_14  and  C12_15 
REMARK    7  A    between atoms: C12_15  and  O3_18 
REMARK    8  A    between atoms: O3_18  and  N1_19 
ROOT
HETATM    1  C1  UNL     1       0.082  -5.348  -8.367  1.00  0.00     0.014 C 
HETATM    2  C2  UNL     1       0.072  -6.389  -7.559  1.00  0.00    -0.085 C 
HETATM    3  C3  UNL     1      -0.951  -6.695  -6.535  1.00  0.00     0.034 C 
HETATM    4  C4  UNL     1      -0.975  -8.227  -6.567  1.00  0.00     0.010 C 
HETATM    5  C5  UNL     1       0.114  -8.701  -7.418  1.00  0.00     0.003 C 
HETATM    6  C6  UNL     1       1.048  -7.511  -7.451  1.00  0.00     0.021 C 
HETATM    7  C7  UNL     1       1.955  -7.468  -8.626  1.00  0.00     0.042 C 
HETATM    8  C8  UNL     1       2.897  -8.646  -8.606  1.00  0.00     0.135 C 
HETATM    9  C18 UNL     1       2.268  -9.959  -8.760  1.00  0.00     0.065 C 
HETATM   10  C19 UNL     1       0.920 -10.070  -9.330  1.00  0.00     0.135 C 
HETATM   11  O4  UNL     1       0.856  -9.874 -10.729  1.00  0.00    -0.350 OA
HETATM   12  C20 UNL     1      -0.411 -10.323 -11.101  1.00  0.00     0.158 C 
HETATM   13  C21 UNL     1      -1.027  -9.316 -12.061  1.00  0.00     0.078 C 
HETATM   14  C22 UNL     1      -0.128 -11.556 -11.989  1.00  0.00     0.078 C 
HETATM   15  O5  UNL     1      -1.219 -10.744 -10.120  1.00  0.00    -0.345 OA
HETATM   16  C23 UNL     1      -1.431  -9.954  -9.010  1.00  0.00     0.063 C 
HETATM   17  C24 UNL     1      -1.705 -10.922  -7.856  1.00  0.00     0.046 C 
HETATM   18  C25 UNL     1      -2.607  -9.072  -9.313  1.00  0.00     0.046 C 
HETATM   19  C26 UNL     1      -0.147  -9.165  -8.772  1.00  0.00     0.053 C 
ENDROOT
BRANCH   8  20
HETATM   20  O1  UNL     1       3.935  -8.352  -9.523  1.00  0.00    -0.315 OA
BRANCH  20  21
HETATM   21  C9  UNL     1       5.184  -7.946  -9.119  1.00  0.00     0.268 C 
HETATM   22  O2  UNL     1       5.425  -6.698  -9.156  1.00  0.00    -0.264 OA
BRANCH  21  23
HETATM   23  C10 UNL     1       6.253  -8.841  -8.654  1.00  0.00     0.184 C 
BRANCH  23  24
HETATM   24  S1  UNL     1       7.248  -8.081  -7.360  1.00  0.00    -0.156 SA
BRANCH  24  25
HETATM   25  C11 UNL     1       6.477  -8.154  -5.742  1.00  0.00     0.114 C 
BRANCH  25  26
HETATM   26  C12 UNL     1       5.991  -6.752  -5.399  1.00  0.00     0.090 C 
HETATM   27  C13 UNL     1       5.903  -6.562  -3.900  1.00  0.00     0.049 C 
HETATM   28  C14 UNL     1       6.928  -5.687  -5.925  1.00  0.00     0.049 C 
BRANCH  26  29
HETATM   29  O3  UNL     1       4.693  -6.612  -5.930  1.00  0.00    -0.269 OA
BRANCH  29  30
HETATM   30  N1  UNL     1       4.309  -5.539  -6.688  1.00  0.00    -0.275 N 
HETATM   31  C15 UNL     1       3.309  -4.837  -6.308  1.00  0.00     0.002 C 
HETATM   32  C16 UNL     1       2.581  -5.168  -5.080  1.00  0.00     0.065 C 
HETATM   33  C17 UNL     1       2.884  -3.674  -7.119  1.00  0.00     0.065 C 
ATOM     34  H1  UNL     1       4.812  -5.303  -7.544  1.00  0.00     0.193 HD
ENDBRANCH  29  30
ENDBRANCH  26  29
ENDBRANCH  25  26
ENDBRANCH  24  25
ENDBRANCH  23  24
ENDBRANCH  21  23
ENDBRANCH  20  21
ENDBRANCH   8  20
TORSDOF 8
ENDMDL
MODEL 4
REMARK VINA RESULT: -7.436550314      3.294      5.997
REMARK  8 active torsions:
REMARK  status: ('A' for Active; 'I' for Inactive)
REMARK    1  A    between atoms: C8_8  and  O1_9 
REMARK    2  A    between atoms: O1_9  and  C9_10 
REMARK    3  A    between atoms: C9_10  and  C10_12 
REMARK    4  A    between atoms: C10_12  and  S1_13 
REMARK    5  A    between atoms: S1_13  and  C11_14 
REMARK    6  A    between atoms: C11_14  and  C12_15 
REMARK    7  A    between atoms: C12_15  and  O3_18 
REMARK    8  A    between atoms: O3_18  and  N1_19 
ROOT
HETATM    1  C1  UNL     1       2.627  -6.552  -7.911  1.00  0.00     0.014 C 
HETATM    2  C2  UNL     1       1.617  -7.115  -7.281  1.00  0.00    -0.085 C 
HETATM    3  C3  UNL     1       0.882  -6.556  -6.125  1.00  0.00     0.034 C 
HETATM    4  C4  UNL     1      -0.538  -7.077  -6.377  1.00  0.00     0.010 C 
HETATM    5  C5  UNL     1      -0.506  -8.018  -7.495  1.00  0.00     0.003 C 
HETATM    6  C6  UNL     1       0.950  -8.423  -7.543  1.00  0.00     0.021 C 
HETATM    7  C7  UNL     1       1.407  -8.934  -8.860  1.00  0.00     0.042 C 
HETATM    8  C8  UNL     1       0.682 -10.210  -9.209  1.00  0.00     0.135 C 
HETATM    9  C18 UNL     1      -0.760 -10.077  -9.423  1.00  0.00     0.065 C 
HETATM   10  C19 UNL     1      -1.346  -8.763  -9.712  1.00  0.00     0.135 C 
HETATM   11  O4  UNL     1      -1.107  -8.291 -11.024  1.00  0.00    -0.350 OA
HETATM   12  C20 UNL     1      -1.985  -7.220 -11.189  1.00  0.00     0.158 C 
HETATM   13  C21 UNL     1      -1.237  -6.067 -11.842  1.00  0.00     0.078 C 
HETATM   14  C22 UNL     1      -2.961  -7.697 -12.288  1.00  0.00     0.078 C 
HETATM   15  O5  UNL     1      -2.741  -6.885 -10.135  1.00  0.00    -0.345 OA
HETATM   16  C23 UNL     1      -2.160  -6.683  -8.901  1.00  0.00     0.063 C 
HETATM   17  C24 UNL     1      -3.225  -7.069  -7.871  1.00  0.00     0.046 C 
HETATM   18  C25 UNL     1      -1.780  -5.234  -8.822  1.00  0.00     0.046 C 
HETATM   19  C26 UNL     1      -0.955  -7.616  -8.819  1.00  0.00     0.053 C 
ENDROOT
BRANCH   8  20
HETATM   20  O1  UNL     1       1.405 -10.813 -10.266  1.00  0.00    -0.315 OA
BRANCH  20  21
HETATM   21  C9  UNL     1       1.102 -12.064 -10.750  1.00  0.00     0.268 C 
HETATM   22  O2  UNL     1       0.531 -12.121 -11.884  1.00  0.00    -0.264 OA
BRANCH  21  23
HETATM   23  C10 UNL     1       1.385 -13.328 -10.056  1.00  0.00     0.184 C 
BRANCH  23  24
HETATM   24  S1  UNL     1      -0.084 -13.997  -9.258  1.00  0.00    -0.156 SA
BRANCH  24  25
HETATM   25  C11 UNL     1       0.176 -14.412  -7.532  1.00  0.00     0.114 C 
BRANCH  25  26
HETATM   26  C12 UNL     1      -1.092 -14.049  -6.773  1.00  0.00     0.090 C 
HETATM   27  C13 UNL     1      -2.253 -14.916  -7.210  1.00  0.00     0.049 C 
HETATM   28  C14 UNL     1      -0.930 -14.247  -5.281  1.00  0.00     0.049 C 
BRANCH  26  29
HETATM   29  O3  UNL     1      -1.406 -12.712  -7.088  1.00  0.00    -0.269 OA
BRANCH  29  30
HETATM   30  N1  UNL     1      -2.675 -12.292  -7.383  1.00  0.00    -0.275 N 
HETATM   31  C15 UNL     1      -3.167 -11.301  -6.739  1.00  0.00     0.002 C 
HETATM   32  C16 UNL     1      -2.389 -10.619  -5.702  1.00  0.00     0.065 C 
HETATM   33  C17 UNL     1      -4.537 -10.838  -7.050  1.00  0.00     0.065 C 
ATOM     34  H1  UNL     1      -3.221 -12.762  -8.105  1.00  0.00     0.193 HD
ENDBRANCH  29  30
ENDBRANCH  26  29
ENDBRANCH  25  26
ENDBRANCH  24  25
ENDBRANCH  23  24
ENDBRANCH  21  23
ENDBRANCH  20  21
ENDBRANCH   8  20
TORSDOF 8
ENDMDL
MODEL 5
REMARK VINA RESULT: -7.396804200      1.277      2.373
REMARK  8 active torsions:
REMARK  status: ('A' for Active; 'I' for Inactive)
REMARK    1  A    between atoms: C8_8  and  O1_9 
REMARK    2  A    between atoms: O1_9  and  C9_10 
REMARK    3  A    between atoms: C9_10  and  C10_12 
REMARK    4  A    between atoms: C10_12  and  S1_13 
REMARK    5  A    between atoms: S1_13  and  C11_14 
REMARK    6  A    between atoms: C11_14  and  C12_15 
REMARK    7  A    between atoms: C12_15  and  O3_18 
REMARK    8  A    between atoms: O3_18  and  N1_19 
ROOT
HETATM    1  C1  UNL     1       6.513  -8.275  -9.915  1.00  0.00     0.014 C 
HETATM    2  C2  UNL     1       6.244  -8.650  -8.681  1.00  0.00    -0.085 C 
HETATM    3  C3  UNL     1       7.228  -8.894  -7.603  1.00  0.00     0.034 C 
HETATM    4  C4  UNL     1       6.451  -8.439  -6.363  1.00  0.00     0.010 C 
HETATM    5  C5  UNL     1       5.068  -8.159  -6.746  1.00  0.00     0.003 C 
HETATM    6  C6  UNL     1       4.925  -8.924  -8.043  1.00  0.00     0.021 C 
HETATM    7  C7  UNL     1       3.850  -8.427  -8.939  1.00  0.00     0.042 C 
HETATM    8  C8  UNL     1       2.501  -8.597  -8.287  1.00  0.00     0.135 C 
HETATM    9  C18 UNL     1       2.279  -7.797  -7.081  1.00  0.00     0.065 C 
HETATM   10  C19 UNL     1       3.116  -6.622  -6.809  1.00  0.00     0.135 C 
HETATM   11  O4  UNL     1       2.822  -5.495  -7.611  1.00  0.00    -0.350 OA
HETATM   12  C20 UNL     1       3.483  -4.431  -6.998  1.00  0.00     0.158 C 
HETATM   13  C21 UNL     1       4.186  -3.608  -8.067  1.00  0.00     0.078 C 
HETATM   14  C22 UNL     1       2.343  -3.510  -6.510  1.00  0.00     0.078 C 
HETATM   15  O5  UNL     1       4.223  -4.716  -5.919  1.00  0.00    -0.345 OA
HETATM   16  C23 UNL     1       5.151  -5.735  -5.964  1.00  0.00     0.063 C 
HETATM   17  C24 UNL     1       5.239  -6.282  -4.537  1.00  0.00     0.046 C 
HETATM   18  C25 UNL     1       6.445  -5.136  -6.432  1.00  0.00     0.046 C 
HETATM   19  C26 UNL     1       4.608  -6.791  -6.923  1.00  0.00     0.053 C 
ENDROOT
BRANCH   8  20
HETATM   20  O1  UNL     1       1.533  -8.446  -9.309  1.00  0.00    -0.315 OA
BRANCH  20  21
HETATM   21  C9  UNL     1       0.625  -9.430  -9.618  1.00  0.00     0.268 C 
HETATM   22  O2  UNL     1      -0.203  -9.757  -8.710  1.00  0.00    -0.264 OA
BRANCH  21  23
HETATM   23  C10 UNL     1       0.544 -10.128 -10.909  1.00  0.00     0.184 C 
BRANCH  23  24
HETATM   24  S1  UNL     1      -0.914  -9.636 -11.845  1.00  0.00    -0.156 SA
BRANCH  24  25
HETATM   25  C11 UNL     1      -0.715  -8.065 -12.689  1.00  0.00     0.114 C 
BRANCH  25  26
HETATM   26  C12 UNL     1      -1.777  -7.115 -12.154  1.00  0.00     0.090 C 
HETATM   27  C13 UNL     1      -1.430  -5.678 -12.476  1.00  0.00     0.049 C 
HETATM   28  C14 UNL     1      -3.135  -7.389 -12.763  1.00  0.00     0.049 C 
BRANCH  26  29
HETATM   29  O3  UNL     1      -1.800  -7.252 -10.751  1.00  0.00    -0.269 OA
BRANCH  29  30
HETATM   30  N1  UNL     1      -1.073  -6.454  -9.911  1.00  0.00    -0.275 N 
HETATM   31  C15 UNL     1      -1.415  -6.373  -8.680  1.00  0.00     0.002 C 
HETATM   32  C16 UNL     1      -2.567  -7.121  -8.170  1.00  0.00     0.065 C 
HETATM   33  C17 UNL     1      -0.635  -5.515  -7.761  1.00  0.00     0.065 C 
ATOM     34  H1  UNL     1      -0.269  -5.932 -10.260  1.00  0.00     0.193 HD
ENDBRANCH  29  30
ENDBRANCH  26  29
ENDBRANCH  25  26
ENDBRANCH  24  25
ENDBRANCH  23  24
ENDBRANCH  21  23
ENDBRANCH  20  21
ENDBRANCH   8  20
TORSDOF 8
ENDMDL
