MODEL 1
REMARK VINA RESULT: -8.182337672      0.000      0.000
REMARK  18 active torsions:
REMARK  status: ('A' for Active; 'I' for Inactive)
REMARK    1  A    between atoms: C2_2  and  C4_4 
REMARK    2  A    between atoms: C4_4  and  C5_5 
REMARK    3  A    between atoms: C5_5  and  C6_6 
REMARK    4  A    between atoms: C7_7  and  C9_9 
REMARK    5  A    between atoms: C9_9  and  C10_10 
REMARK    6  A    between atoms: C10_10  and  C11_11 
REMARK    7  A    between atoms: C11_11  and  C12_12 
REMARK    8  A    between atoms: C18_18  and  O1_19 
REMARK    9  A    between atoms: C19_21  and  O2_22 
REMARK   10  A    between atoms: C19_21  and  C20_24 
REMARK   11  A    between atoms: C20_24  and  O3_25 
REMARK   12  A    between atoms: O3_25  and  C21_26 
REMARK   13  A    between atoms: C21_26  and  C22_28 
REMARK   14  A    between atoms: C22_28  and  C24_30 
REMARK   15  A    between atoms: C27_33  and  O5_34 
REMARK   16  A    between atoms: O5_34  and  C28_35 
REMARK   17  A    between atoms: C28_35  and  C29_37 
REMARK   18  A    between atoms: C29_37  and  C31_39 
ROOT
HETATM    1  C12 UNL     1      10.905  30.096  10.757  1.00  0.00     0.016 C 
HETATM    2  C13 UNL     1      11.271  30.720   9.429  1.00  0.00     0.017 C 
HETATM    3  C14 UNL     1      12.631  31.293   9.339  1.00  0.00     0.006 C 
HETATM    4  C15 UNL     1      13.440  31.475  10.550  1.00  0.00     0.036 C 
HETATM    5  C16 UNL     1      12.731  31.341  11.840  1.00  0.00    -0.051 C 
HETATM    6  C17 UNL     1      13.446  31.437  12.965  1.00  0.00     0.017 C 
HETATM    7  C18 UNL     1      11.260  31.068  11.892  1.00  0.00     0.127 C 
HETATM    8  C19 UNL     1      10.377  32.194  12.138  1.00  0.00     0.142 C 
HETATM    9  C27 UNL     1       8.928  31.765  12.167  1.00  0.00     0.171 C 
HETATM   10  C33 UNL     1       8.686  30.308  11.940  1.00  0.00     0.037 C 
HETATM   11  C34 UNL     1       9.457  29.830  10.761  1.00  0.00     0.020 C 
ENDROOT
BRANCH   1  12
HETATM   12  C11 UNL     1      11.703  28.880  11.066  1.00  0.00    -0.014 C 
BRANCH  12  13
HETATM   13  C10 UNL     1      11.254  27.542  10.760  1.00  0.00    -0.003 C 
BRANCH  13  14
HETATM   14  C9  UNL     1      12.104  26.642  10.291  1.00  0.00     0.007 C 
BRANCH  14  15
HETATM   15  C7  UNL     1      12.254  26.219   8.935  1.00  0.00    -0.055 C 
HETATM   16  C6  UNL     1      12.581  27.157   8.035  1.00  0.00     0.062 C 
HETATM   17  C8  UNL     1      12.176  24.803   8.603  1.00  0.00     0.049 C 
BRANCH  16  18
HETATM   18  C5  UNL     1      12.899  27.002   6.685  1.00  0.00    -0.127 C 
BRANCH  18  19
HETATM   19  C4  UNL     1      13.194  26.865   5.493  1.00  0.00     0.061 C 
BRANCH  19  20
HETATM   20  C2  UNL     1      13.165  25.689   4.583  1.00  0.00    -0.064 C 
HETATM   21  C1  UNL     1      12.022  25.204   4.317  1.00  0.00     0.019 C 
HETATM   22  C3  UNL     1      14.375  25.171   3.946  1.00  0.00     0.048 C 
ENDBRANCH  19  20
ENDBRANCH  18  19
ENDBRANCH  16  18
ENDBRANCH  14  15
ENDBRANCH  13  14
ENDBRANCH  12  13
ENDBRANCH   1  12
BRANCH   7  23
HETATM   23  O1  UNL     1      11.126  30.250  13.053  1.00  0.00    -0.381 OA
ATOM     24  H1  UNL     1      10.474  30.719  13.561  1.00  0.00     0.211 HD
ENDBRANCH   7  23
BRANCH   8  25
HETATM   25  O2  UNL     1      10.672  32.601  13.484  1.00  0.00    -0.381 OA
ATOM     26  H2  UNL     1      10.935  33.511  13.408  1.00  0.00     0.211 HD
ENDBRANCH   8  25
BRANCH   8  27
HETATM   27  C20 UNL     1      10.534  33.464  11.369  1.00  0.00     0.222 C 
BRANCH  27  28
HETATM   28  O3  UNL     1      10.441  34.617  12.185  1.00  0.00    -0.318 OA
BRANCH  28  29
HETATM   29  C21 UNL     1      11.208  35.746  11.932  1.00  0.00     0.263 C 
HETATM   30  O4  UNL     1      12.437  35.599  12.098  1.00  0.00    -0.265 OA
BRANCH  29  31
HETATM   31  C22 UNL     1      10.658  37.035  11.513  1.00  0.00     0.085 C 
HETATM   32  C23 UNL     1       9.590  37.457  12.530  1.00  0.00     0.021 C 
BRANCH  31  33
HETATM   33  C24 UNL     1      11.605  38.146  11.259  1.00  0.00    -0.010 C 
HETATM   34  C25 UNL     1      12.011  38.257   9.830  1.00  0.00     0.010 C 
HETATM   35  C26 UNL     1      10.970  39.444  11.723  1.00  0.00     0.010 C 
ENDBRANCH  31  33
ENDBRANCH  29  31
ENDBRANCH  28  29
ENDBRANCH  27  28
ENDBRANCH   8  27
BRANCH   9  36
HETATM   36  O5  UNL     1       8.304  32.161  13.357  1.00  0.00    -0.312 OA
BRANCH  36  37
HETATM   37  C28 UNL     1       7.167  32.944  13.394  1.00  0.00     0.263 C 
HETATM   38  O6  UNL     1       6.056  32.395  13.710  1.00  0.00    -0.265 OA
BRANCH  37  39
HETATM   39  C29 UNL     1       7.238  34.391  13.071  1.00  0.00     0.081 C 
HETATM   40  C30 UNL     1       6.778  34.639  11.637  1.00  0.00     0.020 C 
BRANCH  39  41
HETATM   41  C31 UNL     1       6.517  35.245  14.041  1.00  0.00     0.010 C 
HETATM   42  C32 UNL     1       5.114  35.631  13.661  1.00  0.00     0.006 C 
ENDBRANCH  39  41
ENDBRANCH  37  39
ENDBRANCH  36  37
ENDBRANCH   9  36
TORSDOF 18
ENDMDL
MODEL 2
REMARK VINA RESULT: -7.488936162      8.980     11.497
REMARK  18 active torsions:
REMARK  status: ('A' for Active; 'I' for Inactive)
REMARK    1  A    between atoms: C2_2  and  C4_4 
REMARK    2  A    between atoms: C4_4  and  C5_5 
REMARK    3  A    between atoms: C5_5  and  C6_6 
REMARK    4  A    between atoms: C7_7  and  C9_9 
REMARK    5  A    between atoms: C9_9  and  C10_10 
REMARK    6  A    between atoms: C10_10  and  C11_11 
REMARK    7  A    between atoms: C11_11  and  C12_12 
REMARK    8  A    between atoms: C18_18  and  O1_19 
REMARK    9  A    between atoms: C19_21  and  O2_22 
REMARK   10  A    between atoms: C19_21  and  C20_24 
REMARK   11  A    between atoms: C20_24  and  O3_25 
REMARK   12  A    between atoms: O3_25  and  C21_26 
REMARK   13  A    between atoms: C21_26  and  C22_28 
REMARK   14  A    between atoms: C22_28  and  C24_30 
REMARK   15  A    between atoms: C27_33  and  O5_34 
REMARK   16  A    between atoms: O5_34  and  C28_35 
REMARK   17  A    between atoms: C28_35  and  C29_37 
REMARK   18  A    between atoms: C29_37  and  C31_39 
ROOT
HETATM    1  C12 UNL     1       8.448  32.681   0.157  1.00  0.00     0.016 C 
HETATM    2  C13 UNL     1       7.915  34.067   0.444  1.00  0.00     0.017 C 
HETATM    3  C14 UNL     1       8.219  35.097  -0.572  1.00  0.00     0.006 C 
HETATM    4  C15 UNL     1       9.202  34.829  -1.629  1.00  0.00     0.036 C 
HETATM    5  C16 UNL     1      10.053  33.634  -1.446  1.00  0.00    -0.051 C 
HETATM    6  C17 UNL     1      10.916  33.321  -2.417  1.00  0.00     0.017 C 
HETATM    7  C18 UNL     1       9.932  32.775  -0.227  1.00  0.00     0.127 C 
HETATM    8  C19 UNL     1      10.907  32.968   0.831  1.00  0.00     0.142 C 
HETATM    9  C27 UNL     1      10.660  32.029   1.989  1.00  0.00     0.171 C 
HETATM   10  C33 UNL     1       9.492  31.111   1.833  1.00  0.00     0.037 C 
HETATM   11  C34 UNL     1       8.295  31.865   1.372  1.00  0.00     0.020 C 
ENDROOT
BRANCH   1  12
HETATM   12  C11 UNL     1       7.812  32.050  -1.031  1.00  0.00    -0.014 C 
BRANCH  12  13
HETATM   13  C10 UNL     1       6.728  31.100  -0.934  1.00  0.00    -0.003 C 
BRANCH  13  14
HETATM   14  C9  UNL     1       6.742  29.992  -1.659  1.00  0.00     0.007 C 
BRANCH  14  15
HETATM   15  C7  UNL     1       7.026  28.667  -1.206  1.00  0.00    -0.055 C 
HETATM   16  C6  UNL     1       7.982  28.532  -0.277  1.00  0.00     0.062 C 
HETATM   17  C8  UNL     1       6.206  27.553  -1.661  1.00  0.00     0.049 C 
BRANCH  16  18
HETATM   18  C5  UNL     1       8.374  27.384   0.414  1.00  0.00    -0.127 C 
BRANCH  18  19
HETATM   19  C4  UNL     1       8.730  26.376   1.034  1.00  0.00     0.061 C 
BRANCH  19  20
HETATM   20  C2  UNL     1       9.511  26.195   2.288  1.00  0.00    -0.064 C 
HETATM   21  C1  UNL     1       9.575  25.015   2.752  1.00  0.00     0.019 C 
HETATM   22  C3  UNL     1      10.249  27.296   2.907  1.00  0.00     0.048 C 
ENDBRANCH  19  20
ENDBRANCH  18  19
ENDBRANCH  16  18
ENDBRANCH  14  15
ENDBRANCH  13  14
ENDBRANCH  12  13
ENDBRANCH   1  12
BRANCH   7  23
HETATM   23  O1  UNL     1      10.204  31.467  -0.728  1.00  0.00    -0.381 OA
ATOM     24  H1  UNL     1      10.935  31.188  -0.188  1.00  0.00     0.211 HD
ENDBRANCH   7  23
BRANCH   8  25
HETATM   25  O2  UNL     1      12.153  32.536   0.261  1.00  0.00    -0.381 OA
ATOM     26  H2  UNL     1      12.440  33.269  -0.271  1.00  0.00     0.211 HD
ENDBRANCH   8  25
BRANCH   8  27
HETATM   27  C20 UNL     1      11.229  34.339   1.324  1.00  0.00     0.222 C 
BRANCH  27  28
HETATM   28  O3  UNL     1      12.545  34.747   0.999  1.00  0.00    -0.318 OA
BRANCH  28  29
HETATM   29  C21 UNL     1      12.798  35.984   0.424  1.00  0.00     0.263 C 
HETATM   30  O4  UNL     1      13.262  36.845   1.201  1.00  0.00    -0.265 OA
BRANCH  29  31
HETATM   31  C22 UNL     1      12.544  36.302  -0.982  1.00  0.00     0.085 C 
HETATM   32  C23 UNL     1      12.064  37.757  -1.067  1.00  0.00     0.021 C 
BRANCH  31  33
HETATM   33  C24 UNL     1      13.629  36.052  -1.959  1.00  0.00    -0.010 C 
HETATM   34  C25 UNL     1      14.281  34.724  -1.786  1.00  0.00     0.010 C 
HETATM   35  C26 UNL     1      13.062  36.176  -3.361  1.00  0.00     0.010 C 
ENDBRANCH  31  33
ENDBRANCH  29  31
ENDBRANCH  28  29
ENDBRANCH  27  28
ENDBRANCH   8  27
BRANCH   9  36
HETATM   36  O5  UNL     1      11.804  31.280   2.291  1.00  0.00    -0.312 OA
BRANCH  36  37
HETATM   37  C28 UNL     1      12.210  30.996   3.580  1.00  0.00     0.263 C 
HETATM   38  O6  UNL     1      12.362  29.772   3.918  1.00  0.00    -0.265 OA
BRANCH  37  39
HETATM   39  C29 UNL     1      12.459  32.092   4.550  1.00  0.00     0.081 C 
HETATM   40  C30 UNL     1      12.717  31.521   5.942  1.00  0.00     0.020 C 
BRANCH  39  41
HETATM   41  C31 UNL     1      13.529  33.021   4.123  1.00  0.00     0.010 C 
HETATM   42  C32 UNL     1      13.319  34.469   4.469  1.00  0.00     0.006 C 
ENDBRANCH  39  41
ENDBRANCH  37  39
ENDBRANCH  36  37
ENDBRANCH   9  36
TORSDOF 18
ENDMDL
MODEL 3
REMARK VINA RESULT: -7.339185936      9.858     13.189
REMARK  18 active torsions:
REMARK  status: ('A' for Active; 'I' for Inactive)
REMARK    1  A    between atoms: C2_2  and  C4_4 
REMARK    2  A    between atoms: C4_4  and  C5_5 
REMARK    3  A    between atoms: C5_5  and  C6_6 
REMARK    4  A    between atoms: C7_7  and  C9_9 
REMARK    5  A    between atoms: C9_9  and  C10_10 
REMARK    6  A    between atoms: C10_10  and  C11_11 
REMARK    7  A    between atoms: C11_11  and  C12_12 
REMARK    8  A    between atoms: C18_18  and  O1_19 
REMARK    9  A    between atoms: C19_21  and  O2_22 
REMARK   10  A    between atoms: C19_21  and  C20_24 
REMARK   11  A    between atoms: C20_24  and  O3_25 
REMARK   12  A    between atoms: O3_25  and  C21_26 
REMARK   13  A    between atoms: C21_26  and  C22_28 
REMARK   14  A    between atoms: C22_28  and  C24_30 
REMARK   15  A    between atoms: C27_33  and  O5_34 
REMARK   16  A    between atoms: O5_34  and  C28_35 
REMARK   17  A    between atoms: C28_35  and  C29_37 
REMARK   18  A    between atoms: C29_37  and  C31_39 
ROOT
HETATM    1  C12 UNL     1       7.544  33.762  -0.357  1.00  0.00     0.016 C 
HETATM    2  C13 UNL     1       7.613  34.746   0.790  1.00  0.00     0.017 C 
HETATM    3  C14 UNL     1       8.419  35.962   0.548  1.00  0.00     0.006 C 
HETATM    4  C15 UNL     1       9.300  36.047  -0.623  1.00  0.00     0.036 C 
HETATM    5  C16 UNL     1       9.552  34.783  -1.348  1.00  0.00    -0.051 C 
HETATM    6  C17 UNL     1      10.297  34.831  -2.456  1.00  0.00     0.017 C 
HETATM    7  C18 UNL     1       8.962  33.490  -0.880  1.00  0.00     0.127 C 
HETATM    8  C19 UNL     1       9.819  32.598  -0.120  1.00  0.00     0.142 C 
HETATM    9  C27 UNL     1       9.089  31.335   0.277  1.00  0.00     0.171 C 
HETATM   10  C33 UNL     1       7.666  31.250  -0.170  1.00  0.00     0.037 C 
HETATM   11  C34 UNL     1       6.946  32.513   0.140  1.00  0.00     0.020 C 
ENDROOT
BRANCH   1  12
HETATM   12  C11 UNL     1       6.824  34.302  -1.541  1.00  0.00    -0.014 C 
BRANCH  12  13
HETATM   13  C10 UNL     1       5.408  34.120  -1.754  1.00  0.00    -0.003 C 
BRANCH  13  14
HETATM   14  C9  UNL     1       4.555  35.087  -1.452  1.00  0.00     0.007 C 
BRANCH  14  15
HETATM   15  C7  UNL     1       4.333  35.674  -0.169  1.00  0.00    -0.055 C 
HETATM   16  C6  UNL     1       3.909  34.862   0.809  1.00  0.00     0.062 C 
HETATM   17  C8  UNL     1       4.686  37.069   0.063  1.00  0.00     0.049 C 
BRANCH  16  18
HETATM   18  C5  UNL     1       3.728  35.144   2.164  1.00  0.00    -0.127 C 
BRANCH  18  19
HETATM   19  C4  UNL     1       3.554  35.395   3.361  1.00  0.00     0.061 C 
BRANCH  19  20
HETATM   20  C2  UNL     1       2.411  35.144   4.280  1.00  0.00    -0.064 C 
HETATM   21  C1  UNL     1       1.692  36.147   4.581  1.00  0.00     0.019 C 
HETATM   22  C3  UNL     1       2.068  33.799   4.741  1.00  0.00     0.048 C 
ENDBRANCH  19  20
ENDBRANCH  18  19
ENDBRANCH  16  18
ENDBRANCH  14  15
ENDBRANCH  13  14
ENDBRANCH  12  13
ENDBRANCH   1  12
BRANCH   7  23
HETATM   23  O1  UNL     1       8.712  32.792  -2.099  1.00  0.00    -0.381 OA
ATOM     24  H1  UNL     1       8.622  33.500  -2.727  1.00  0.00     0.211 HD
ENDBRANCH   7  23
BRANCH   8  25
HETATM   25  O2  UNL     1      10.820  32.169  -1.057  1.00  0.00    -0.381 OA
ATOM     26  H2  UNL     1      10.341  31.672  -1.710  1.00  0.00     0.211 HD
ENDBRANCH   8  25
BRANCH   8  27
HETATM   27  C20 UNL     1      10.634  33.115   1.018  1.00  0.00     0.222 C 
BRANCH  27  28
HETATM   28  O3  UNL     1      11.829  32.383   1.219  1.00  0.00    -0.318 OA
BRANCH  28  29
HETATM   29  C21 UNL     1      12.116  31.787   2.438  1.00  0.00     0.263 C 
HETATM   30  O4  UNL     1      12.106  30.538   2.432  1.00  0.00    -0.265 OA
BRANCH  29  31
HETATM   31  C22 UNL     1      12.401  32.528   3.667  1.00  0.00     0.085 C 
HETATM   32  C23 UNL     1      12.534  31.522   4.817  1.00  0.00     0.021 C 
BRANCH  31  33
HETATM   33  C24 UNL     1      13.546  33.469   3.662  1.00  0.00    -0.010 C 
HETATM   34  C25 UNL     1      13.144  34.881   3.413  1.00  0.00     0.010 C 
HETATM   35  C26 UNL     1      14.274  33.360   4.989  1.00  0.00     0.010 C 
ENDBRANCH  31  33
ENDBRANCH  29  31
ENDBRANCH  28  29
ENDBRANCH  27  28
ENDBRANCH   8  27
BRANCH   9  36
HETATM   36  O5  UNL     1       9.780  30.193  -0.146  1.00  0.00    -0.312 OA
BRANCH  36  37
HETATM   37  C28 UNL     1       9.155  29.054  -0.614  1.00  0.00     0.263 C 
HETATM   38  O6  UNL     1       9.270  28.756  -1.852  1.00  0.00    -0.265 OA
BRANCH  37  39
HETATM   39  C29 UNL     1       8.363  28.199   0.306  1.00  0.00     0.081 C 
HETATM   40  C30 UNL     1       7.696  27.064  -0.466  1.00  0.00     0.020 C 
BRANCH  39  41
HETATM   41  C31 UNL     1       9.142  27.702   1.462  1.00  0.00     0.010 C 
HETATM   42  C32 UNL     1       8.925  28.426   2.762  1.00  0.00     0.006 C 
ENDBRANCH  39  41
ENDBRANCH  37  39
ENDBRANCH  36  37
ENDBRANCH   9  36
TORSDOF 18
ENDMDL
MODEL 4
REMARK VINA RESULT: -7.318608611     10.013     12.793
REMARK  18 active torsions:
REMARK  status: ('A' for Active; 'I' for Inactive)
REMARK    1  A    between atoms: C2_2  and  C4_4 
REMARK    2  A    between atoms: C4_4  and  C5_5 
REMARK    3  A    between atoms: C5_5  and  C6_6 
REMARK    4  A    between atoms: C7_7  and  C9_9 
REMARK    5  A    between atoms: C9_9  and  C10_10 
REMARK    6  A    between atoms: C10_10  and  C11_11 
REMARK    7  A    between atoms: C11_11  and  C12_12 
REMARK    8  A    between atoms: C18_18  and  O1_19 
REMARK    9  A    between atoms: C19_21  and  O2_22 
REMARK   10  A    between atoms: C19_21  and  C20_24 
REMARK   11  A    between atoms: C20_24  and  O3_25 
REMARK   12  A    between atoms: O3_25  and  C21_26 
REMARK   13  A    between atoms: C21_26  and  C22_28 
REMARK   14  A    between atoms: C22_28  and  C24_30 
REMARK   15  A    between atoms: C27_33  and  O5_34 
REMARK   16  A    between atoms: O5_34  and  C28_35 
REMARK   17  A    between atoms: C28_35  and  C29_37 
REMARK   18  A    between atoms: C29_37  and  C31_39 
ROOT
HETATM    1  C12 UNL     1       8.431  32.997   0.268  1.00  0.00     0.016 C 
HETATM    2  C13 UNL     1       8.031  34.429   0.545  1.00  0.00     0.017 C 
HETATM    3  C14 UNL     1       8.353  35.406  -0.517  1.00  0.00     0.006 C 
HETATM    4  C15 UNL     1       9.244  35.032  -1.622  1.00  0.00     0.036 C 
HETATM    5  C16 UNL     1      10.006  33.776  -1.455  1.00  0.00    -0.051 C 
HETATM    6  C17 UNL     1      10.778  33.369  -2.467  1.00  0.00     0.017 C 
HETATM    7  C18 UNL     1       9.891  32.959  -0.207  1.00  0.00     0.127 C 
HETATM    8  C19 UNL     1      10.942  33.098   0.786  1.00  0.00     0.142 C 
HETATM    9  C27 UNL     1      10.693  32.211   1.984  1.00  0.00     0.171 C 
HETATM   10  C33 UNL     1       9.447  31.389   1.925  1.00  0.00     0.037 C 
HETATM   11  C34 UNL     1       8.289  32.227   1.514  1.00  0.00     0.020 C 
ENDROOT
BRANCH   1  12
HETATM   12  C11 UNL     1       7.673  32.392  -0.860  1.00  0.00    -0.014 C 
BRANCH  12  13
HETATM   13  C10 UNL     1       6.292  31.984  -0.754  1.00  0.00    -0.003 C 
BRANCH  13  14
HETATM   14  C9  UNL     1       5.332  32.730  -1.278  1.00  0.00     0.007 C 
BRANCH  14  15
HETATM   15  C7  UNL     1       4.861  33.992  -0.802  1.00  0.00    -0.055 C 
HETATM   16  C6  UNL     1       4.636  34.103   0.514  1.00  0.00     0.062 C 
HETATM   17  C8  UNL     1       4.766  35.123  -1.716  1.00  0.00     0.049 C 
BRANCH  16  18
HETATM   18  C5  UNL     1       4.290  35.238   1.250  1.00  0.00    -0.127 C 
BRANCH  18  19
HETATM   19  C4  UNL     1       3.972  36.236   1.905  1.00  0.00     0.061 C 
BRANCH  19  20
HETATM   20  C2  UNL     1       3.449  36.401   3.288  1.00  0.00    -0.064 C 
HETATM   21  C1  UNL     1       2.972  37.539   3.584  1.00  0.00     0.019 C 
HETATM   22  C3  UNL     1       3.394  35.286   4.234  1.00  0.00     0.048 C 
ENDBRANCH  19  20
ENDBRANCH  18  19
ENDBRANCH  16  18
ENDBRANCH  14  15
ENDBRANCH  13  14
ENDBRANCH  12  13
ENDBRANCH   1  12
BRANCH   7  23
HETATM   23  O1  UNL     1      10.026  31.622  -0.684  1.00  0.00    -0.381 OA
ATOM     24  H1  UNL     1      10.922  31.605  -0.999  1.00  0.00     0.211 HD
ENDBRANCH   7  23
BRANCH   8  25
HETATM   25  O2  UNL     1      12.112  32.551   0.155  1.00  0.00    -0.381 OA
ATOM     26  H2  UNL     1      11.864  32.443  -0.756  1.00  0.00     0.211 HD
ENDBRANCH   8  25
BRANCH   8  27
HETATM   27  C20 UNL     1      11.404  34.450   1.217  1.00  0.00     0.222 C 
BRANCH  27  28
HETATM   28  O3  UNL     1      12.575  34.873   0.544  1.00  0.00    -0.318 OA
BRANCH  28  29
HETATM   29  C21 UNL     1      12.699  36.165   0.051  1.00  0.00     0.263 C 
HETATM   30  O4  UNL     1      12.954  37.037   0.908  1.00  0.00    -0.265 OA
BRANCH  29  31
HETATM   31  C22 UNL     1      12.537  36.524  -1.358  1.00  0.00     0.085 C 
HETATM   32  C23 UNL     1      12.296  38.036  -1.445  1.00  0.00     0.021 C 
BRANCH  31  33
HETATM   33  C24 UNL     1      13.596  36.109  -2.308  1.00  0.00    -0.010 C 
HETATM   34  C25 UNL     1      14.205  34.792  -1.969  1.00  0.00     0.010 C 
HETATM   35  C26 UNL     1      13.009  36.069  -3.706  1.00  0.00     0.010 C 
ENDBRANCH  31  33
ENDBRANCH  29  31
ENDBRANCH  28  29
ENDBRANCH  27  28
ENDBRANCH   8  27
BRANCH   9  36
HETATM   36  O5  UNL     1      11.790  31.379   2.238  1.00  0.00    -0.312 OA
BRANCH  36  37
HETATM   37  C28 UNL     1      12.051  30.821   3.474  1.00  0.00     0.263 C 
HETATM   38  O6  UNL     1      12.093  29.547   3.574  1.00  0.00    -0.265 OA
BRANCH  37  39
HETATM   39  C29 UNL     1      12.274  31.687   4.659  1.00  0.00     0.081 C 
HETATM   40  C30 UNL     1      12.423  30.837   5.918  1.00  0.00     0.020 C 
BRANCH  39  41
HETATM   41  C31 UNL     1      13.400  32.633   4.491  1.00  0.00     0.010 C 
HETATM   42  C32 UNL     1      13.038  34.092   4.491  1.00  0.00     0.006 C 
ENDBRANCH  39  41
ENDBRANCH  37  39
ENDBRANCH  36  37
ENDBRANCH   9  36
TORSDOF 18
ENDMDL
MODEL 5
REMARK VINA RESULT: -7.235257126      9.643     13.110
REMARK  18 active torsions:
REMARK  status: ('A' for Active; 'I' for Inactive)
REMARK    1  A    between atoms: C2_2  and  C4_4 
REMARK    2  A    between atoms: C4_4  and  C5_5 
REMARK    3  A    between atoms: C5_5  and  C6_6 
REMARK    4  A    between atoms: C7_7  and  C9_9 
REMARK    5  A    between atoms: C9_9  and  C10_10 
REMARK    6  A    between atoms: C10_10  and  C11_11 
REMARK    7  A    between atoms: C11_11  and  C12_12 
REMARK    8  A    between atoms: C18_18  and  O1_19 
REMARK    9  A    between atoms: C19_21  and  O2_22 
REMARK   10  A    between atoms: C19_21  and  C20_24 
REMARK   11  A    between atoms: C20_24  and  O3_25 
REMARK   12  A    between atoms: O3_25  and  C21_26 
REMARK   13  A    between atoms: C21_26  and  C22_28 
REMARK   14  A    between atoms: C22_28  and  C24_30 
REMARK   15  A    between atoms: C27_33  and  O5_34 
REMARK   16  A    between atoms: O5_34  and  C28_35 
REMARK   17  A    between atoms: C28_35  and  C29_37 
REMARK   18  A    between atoms: C29_37  and  C31_39 
ROOT
HETATM    1  C12 UNL     1       7.607  33.976  -0.174  1.00  0.00     0.016 C 
HETATM    2  C13 UNL     1       7.913  34.983   0.912  1.00  0.00     0.017 C 
HETATM    3  C14 UNL     1       8.791  36.107   0.520  1.00  0.00     0.006 C 
HETATM    4  C15 UNL     1       9.519  36.069  -0.754  1.00  0.00     0.036 C 
HETATM    5  C16 UNL     1       9.558  34.765  -1.450  1.00  0.00    -0.051 C 
HETATM    6  C17 UNL     1      10.156  34.706  -2.643  1.00  0.00     0.017 C 
HETATM    7  C18 UNL     1       8.915  33.551  -0.857  1.00  0.00     0.127 C 
HETATM    8  C19 UNL     1       9.775  32.603  -0.171  1.00  0.00     0.142 C 
HETATM    9  C27 UNL     1       8.987  31.430   0.367  1.00  0.00     0.171 C 
HETATM   10  C33 UNL     1       7.518  31.470   0.104  1.00  0.00     0.037 C 
HETATM   11  C34 UNL     1       6.963  32.807   0.447  1.00  0.00     0.020 C 
ENDROOT
BRANCH   1  12
HETATM   12  C11 UNL     1       6.795  34.546  -1.281  1.00  0.00    -0.014 C 
BRANCH  12  13
HETATM   13  C10 UNL     1       5.352  34.484  -1.316  1.00  0.00    -0.003 C 
BRANCH  13  14
HETATM   14  C9  UNL     1       4.628  35.348  -0.621  1.00  0.00     0.007 C 
BRANCH  14  15
HETATM   15  C7  UNL     1       3.900  35.096   0.582  1.00  0.00    -0.055 C 
HETATM   16  C6  UNL     1       4.438  35.540   1.726  1.00  0.00     0.062 C 
HETATM   17  C8  UNL     1       2.574  34.495   0.515  1.00  0.00     0.049 C 
BRANCH  16  18
HETATM   18  C5  UNL     1       3.892  35.532   3.011  1.00  0.00    -0.127 C 
BRANCH  18  19
HETATM   19  C4  UNL     1       3.403  35.512   4.145  1.00  0.00     0.061 C 
BRANCH  19  20
HETATM   20  C2  UNL     1       2.120  34.973   4.672  1.00  0.00    -0.064 C 
HETATM   21  C1  UNL     1       1.135  35.774   4.699  1.00  0.00     0.019 C 
HETATM   22  C3  UNL     1       1.966  33.569   5.052  1.00  0.00     0.048 C 
ENDBRANCH  19  20
ENDBRANCH  18  19
ENDBRANCH  16  18
ENDBRANCH  14  15
ENDBRANCH  13  14
ENDBRANCH  12  13
ENDBRANCH   1  12
BRANCH   7  23
HETATM   23  O1  UNL     1       8.447  32.843  -2.004  1.00  0.00    -0.381 OA
ATOM     24  H1  UNL     1       9.185  32.907  -2.600  1.00  0.00     0.211 HD
ENDBRANCH   7  23
BRANCH   8  25
HETATM   25  O2  UNL     1      10.604  32.050  -1.206  1.00  0.00    -0.381 OA
ATOM     26  H2  UNL     1       9.993  31.747  -1.868  1.00  0.00     0.211 HD
ENDBRANCH   8  25
BRANCH   8  27
HETATM   27  C20 UNL     1      10.773  33.073   0.833  1.00  0.00     0.222 C 
BRANCH  27  28
HETATM   28  O3  UNL     1      10.724  32.340   2.044  1.00  0.00    -0.318 OA
BRANCH  28  29
HETATM   29  C21 UNL     1      11.883  31.930   2.688  1.00  0.00     0.263 C 
HETATM   30  O4  UNL     1      12.454  30.945   2.175  1.00  0.00    -0.265 OA
BRANCH  29  31
HETATM   31  C22 UNL     1      12.423  32.567   3.889  1.00  0.00     0.085 C 
HETATM   32  C23 UNL     1      12.725  31.473   4.921  1.00  0.00     0.021 C 
BRANCH  31  33
HETATM   33  C24 UNL     1      13.586  33.473   3.733  1.00  0.00    -0.010 C 
HETATM   34  C25 UNL     1      13.206  34.846   3.299  1.00  0.00     0.010 C 
HETATM   35  C26 UNL     1      14.339  33.532   5.049  1.00  0.00     0.010 C 
ENDBRANCH  31  33
ENDBRANCH  29  31
ENDBRANCH  28  29
ENDBRANCH  27  28
ENDBRANCH   8  27
BRANCH   9  36
HETATM   36  O5  UNL     1       9.510  30.214  -0.089  1.00  0.00    -0.312 OA
BRANCH  36  37
HETATM   37  C28 UNL     1       9.460  29.043   0.641  1.00  0.00     0.263 C 
HETATM   38  O6  UNL     1       9.761  29.082   1.883  1.00  0.00    -0.265 OA
BRANCH  37  39
HETATM   39  C29 UNL     1       9.066  27.767  -0.008  1.00  0.00     0.081 C 
HETATM   40  C30 UNL     1       8.670  26.735   1.044  1.00  0.00     0.020 C 
BRANCH  39  41
HETATM   41  C31 UNL     1       8.021  27.933  -1.043  1.00  0.00     0.010 C 
HETATM   42  C32 UNL     1       6.860  26.980  -0.965  1.00  0.00     0.006 C 
ENDBRANCH  39  41
ENDBRANCH  37  39
ENDBRANCH  36  37
ENDBRANCH   9  36
TORSDOF 18
ENDMDL
