MODEL 1
REMARK VINA RESULT: -7.980104243      0.000      0.000
REMARK  11 active torsions:
REMARK  status: ('A' for Active; 'I' for Inactive)
REMARK    1  A    between atoms: C2_2  and  C4_4 
REMARK    2  A    between atoms: C4_4  and  C5_5 
REMARK    3  A    between atoms: C6_7  and  C7_8 
REMARK    4  A    between atoms: C7_8  and  C8_9 
REMARK    5  A    between atoms: C8_9  and  C9_10 
REMARK    6  A    between atoms: C9_10  and  O2_11 
REMARK    7  A    between atoms: C9_10  and  C10_13 
REMARK    8  A    between atoms: C10_13  and  C11_15 
REMARK    9  A    between atoms: N1_16  and  N2_18 
REMARK   10  A    between atoms: C18_27  and  O4_28 
REMARK   11  A    between atoms: C25_37  and  O6_39 
ROOT
HETATM    1  C5  UNL     1       3.710  44.962  15.181  1.00  0.00     0.159 C 
HETATM    2  O1  UNL     1       2.845  44.014  15.565  1.00  0.00    -0.377 OA
HETATM    3  C6  UNL     1       2.849  43.421  16.766  1.00  0.00     0.129 C 
HETATM    4  C12 UNL     1       1.716  43.673  17.719  1.00  0.00     0.033 C 
HETATM    5  C13 UNL     1       2.185  43.427  19.188  1.00  0.00     0.017 C 
HETATM    6  C14 UNL     1       0.520  42.820  17.555  1.00  0.00    -0.018 C 
HETATM    7  C15 UNL     1      -0.559  42.928  16.851  1.00  0.00    -0.085 C 
HETATM    8  C16 UNL     1      -1.534  41.751  17.030  1.00  0.00     0.043 C 
HETATM    9  C17 UNL     1      -1.025  43.945  15.891  1.00  0.00     0.065 C 
HETATM   10  C18 UNL     1      -1.305  45.236  16.516  1.00  0.00     0.133 C 
HETATM   11  C19 UNL     1      -1.245  46.491  15.751  1.00  0.00     0.081 C 
HETATM   12  C20 UNL     1      -2.669  46.986  15.440  1.00  0.00     0.020 C 
HETATM   13  C21 UNL     1      -0.500  46.601  14.519  1.00  0.00     0.137 C 
HETATM   14  O5  UNL     1      -0.995  46.162  13.498  1.00  0.00    -0.297 OA
HETATM   15  C22 UNL     1       0.890  47.236  14.381  1.00  0.00     0.054 C 
HETATM   16  C23 UNL     1       0.756  48.628  14.936  1.00  0.00     0.018 C 
HETATM   17  C24 UNL     1       1.692  46.310  15.184  1.00  0.00     0.051 C 
HETATM   18  C25 UNL     1       3.096  46.382  15.463  1.00  0.00     0.081 C 
HETATM   19  C26 UNL     1       3.884  47.449  14.741  1.00  0.00     0.049 C 
ENDROOT
BRANCH   3  20
HETATM   20  C7  UNL     1       4.184  43.276  17.449  1.00  0.00     0.035 C 
BRANCH  20  21
HETATM   21  C8  UNL     1       4.985  42.072  16.994  1.00  0.00     0.042 C 
BRANCH  21  22
HETATM   22  C9  UNL     1       6.231  42.442  16.266  1.00  0.00     0.193 C 
BRANCH  22  23
HETATM   23  O2  UNL     1       6.996  43.426  16.823  1.00  0.00    -0.388 OA
ATOM     24  H2  UNL     1       6.619  44.297  16.845  1.00  0.00     0.210 HD
ENDBRANCH  22  23
BRANCH  22  25
HETATM   25  C10 UNL     1       7.131  41.218  16.195  1.00  0.00     0.194 C 
HETATM   26  O3  UNL     1       7.602  40.852  15.077  1.00  0.00    -0.289 OA
BRANCH  25  27
HETATM   27  C11 UNL     1       7.479  40.446  17.370  1.00  0.00     0.159 C 
HETATM   28  N1  UNL     1       8.421  40.752  18.129  1.00  0.00    -0.315 N 
ATOM     29  H1  UNL     1       8.564  40.129  18.925  1.00  0.00     0.185 HD
BRANCH  28  30
HETATM   30  N2  UNL     1       9.287  41.801  18.041  1.00  0.00    -0.345 N 
ATOM     31  H22 UNL     1       8.960  42.568  17.454  1.00  0.00     0.176 HD
ATOM     32  H21 UNL     1      10.202  41.917  18.478  1.00  0.00     0.176 HD
ENDBRANCH  28  30
ENDBRANCH  25  27
ENDBRANCH  22  25
ENDBRANCH  21  22
ENDBRANCH  20  21
ENDBRANCH   3  20
BRANCH   1  33
HETATM   33  C4  UNL     1       3.825  45.025  13.680  1.00  0.00     0.068 C 
BRANCH  33  34
HETATM   34  C2  UNL     1       5.121  44.855  13.063  1.00  0.00    -0.091 C 
HETATM   35  C1  UNL     1       5.767  45.896  12.566  1.00  0.00     0.014 C 
HETATM   36  C3  UNL     1       5.811  43.529  12.880  1.00  0.00     0.042 C 
ENDBRANCH  33  34
ENDBRANCH   1  33
BRANCH  18  37
HETATM   37  O6  UNL     1       3.363  46.610  16.813  1.00  0.00    -0.388 OA
ATOM     38  H6  UNL     1       3.352  47.555  16.898  1.00  0.00     0.210 HD
ENDBRANCH  18  37
BRANCH  10  39
HETATM   39  O4  UNL     1      -2.641  45.147  17.026  1.00  0.00    -0.394 OA
ATOM     40  H4  UNL     1      -3.190  45.612  16.405  1.00  0.00     0.210 HD
ENDBRANCH  10  39
TORSDOF 11
ENDMDL
MODEL 2
REMARK VINA RESULT: -7.663596584      1.621      1.908
REMARK  11 active torsions:
REMARK  status: ('A' for Active; 'I' for Inactive)
REMARK    1  A    between atoms: C2_2  and  C4_4 
REMARK    2  A    between atoms: C4_4  and  C5_5 
REMARK    3  A    between atoms: C6_7  and  C7_8 
REMARK    4  A    between atoms: C7_8  and  C8_9 
REMARK    5  A    between atoms: C8_9  and  C9_10 
REMARK    6  A    between atoms: C9_10  and  O2_11 
REMARK    7  A    between atoms: C9_10  and  C10_13 
REMARK    8  A    between atoms: C10_13  and  C11_15 
REMARK    9  A    between atoms: N1_16  and  N2_18 
REMARK   10  A    between atoms: C18_27  and  O4_28 
REMARK   11  A    between atoms: C25_37  and  O6_39 
ROOT
HETATM    1  C5  UNL     1       3.715  44.710  15.439  1.00  0.00     0.159 C 
HETATM    2  O1  UNL     1       2.737  43.864  15.789  1.00  0.00    -0.377 OA
HETATM    3  C6  UNL     1       2.593  43.328  17.008  1.00  0.00     0.129 C 
HETATM    4  C12 UNL     1       1.421  43.727  17.858  1.00  0.00     0.033 C 
HETATM    5  C13 UNL     1       1.752  43.506  19.368  1.00  0.00     0.017 C 
HETATM    6  C14 UNL     1       0.165  42.981  17.632  1.00  0.00    -0.018 C 
HETATM    7  C15 UNL     1      -0.842  43.156  16.840  1.00  0.00    -0.085 C 
HETATM    8  C16 UNL     1      -1.936  42.083  16.987  1.00  0.00     0.043 C 
HETATM    9  C17 UNL     1      -1.135  44.167  15.808  1.00  0.00     0.065 C 
HETATM   10  C18 UNL     1      -1.337  45.505  16.359  1.00  0.00     0.133 C 
HETATM   11  C19 UNL     1      -1.100  46.713  15.553  1.00  0.00     0.081 C 
HETATM   12  C20 UNL     1      -2.442  47.323  15.111  1.00  0.00     0.020 C 
HETATM   13  C21 UNL     1      -0.256  46.698  14.381  1.00  0.00     0.137 C 
HETATM   14  O5  UNL     1      -0.713  46.260  13.342  1.00  0.00    -0.297 OA
HETATM   15  C22 UNL     1       1.194  47.195  14.330  1.00  0.00     0.054 C 
HETATM   16  C23 UNL     1       1.152  48.617  14.819  1.00  0.00     0.018 C 
HETATM   17  C24 UNL     1       1.841  46.236  15.230  1.00  0.00     0.051 C 
HETATM   18  C25 UNL     1       3.220  46.192  15.617  1.00  0.00     0.081 C 
HETATM   19  C26 UNL     1       4.158  47.147  14.919  1.00  0.00     0.049 C 
ENDROOT
BRANCH   3  20
HETATM   20  C7  UNL     1       3.853  43.092  17.801  1.00  0.00     0.035 C 
BRANCH  20  21
HETATM   21  C8  UNL     1       4.615  41.847  17.395  1.00  0.00     0.042 C 
BRANCH  21  22
HETATM   22  C9  UNL     1       4.240  40.647  18.195  1.00  0.00     0.193 C 
BRANCH  22  23
HETATM   23  O2  UNL     1       3.760  39.574  17.501  1.00  0.00    -0.388 OA
ATOM     24  H2  UNL     1       3.804  39.626  16.554  1.00  0.00     0.210 HD
ENDBRANCH  22  23
BRANCH  22  25
HETATM   25  C10 UNL     1       5.479  40.141  18.919  1.00  0.00     0.194 C 
HETATM   26  O3  UNL     1       5.462  40.021  20.180  1.00  0.00    -0.289 OA
BRANCH  25  27
HETATM   27  C11 UNL     1       6.693  39.784  18.214  1.00  0.00     0.159 C 
HETATM   28  N1  UNL     1       6.925  38.629  17.804  1.00  0.00    -0.315 N 
ATOM     29  H1  UNL     1       7.815  38.505  17.320  1.00  0.00     0.185 HD
BRANCH  28  30
HETATM   30  N2  UNL     1       6.157  37.509  17.915  1.00  0.00    -0.345 N 
ATOM     31  H22 UNL     1       5.367  37.602  18.555  1.00  0.00     0.176 HD
ATOM     32  H21 UNL     1       6.265  36.607  17.451  1.00  0.00     0.176 HD
ENDBRANCH  28  30
ENDBRANCH  25  27
ENDBRANCH  22  25
ENDBRANCH  21  22
ENDBRANCH  20  21
ENDBRANCH   3  20
BRANCH   1  33
HETATM   33  C4  UNL     1       3.949  44.692  13.951  1.00  0.00     0.068 C 
BRANCH  33  34
HETATM   34  C2  UNL     1       5.241  44.290  13.444  1.00  0.00    -0.091 C 
HETATM   35  C1  UNL     1       5.639  44.678  12.244  1.00  0.00     0.014 C 
HETATM   36  C3  UNL     1       6.198  43.383  14.171  1.00  0.00     0.042 C 
ENDBRANCH  33  34
ENDBRANCH   1  33
BRANCH  18  37
HETATM   37  O6  UNL     1       3.404  46.455  16.974  1.00  0.00    -0.388 OA
ATOM     38  H6  UNL     1       3.952  47.230  16.990  1.00  0.00     0.210 HD
ENDBRANCH  18  37
BRANCH  10  39
HETATM   39  O4  UNL     1      -2.711  45.564  16.764  1.00  0.00    -0.394 OA
ATOM     40  H4  UNL     1      -2.747  46.185  17.482  1.00  0.00     0.210 HD
ENDBRANCH  10  39
TORSDOF 11
ENDMDL
MODEL 3
REMARK VINA RESULT: -7.360366185      2.386      2.745
REMARK  11 active torsions:
REMARK  status: ('A' for Active; 'I' for Inactive)
REMARK    1  A    between atoms: C2_2  and  C4_4 
REMARK    2  A    between atoms: C4_4  and  C5_5 
REMARK    3  A    between atoms: C6_7  and  C7_8 
REMARK    4  A    between atoms: C7_8  and  C8_9 
REMARK    5  A    between atoms: C8_9  and  C9_10 
REMARK    6  A    between atoms: C9_10  and  O2_11 
REMARK    7  A    between atoms: C9_10  and  C10_13 
REMARK    8  A    between atoms: C10_13  and  C11_15 
REMARK    9  A    between atoms: N1_16  and  N2_18 
REMARK   10  A    between atoms: C18_27  and  O4_28 
REMARK   11  A    between atoms: C25_37  and  O6_39 
ROOT
HETATM    1  C5  UNL     1       3.678  44.756  15.479  1.00  0.00     0.159 C 
HETATM    2  O1  UNL     1       2.657  43.962  15.829  1.00  0.00    -0.377 OA
HETATM    3  C6  UNL     1       2.476  43.448  17.052  1.00  0.00     0.129 C 
HETATM    4  C12 UNL     1       1.317  43.913  17.885  1.00  0.00     0.033 C 
HETATM    5  C13 UNL     1       1.622  43.693  19.401  1.00  0.00     0.017 C 
HETATM    6  C14 UNL     1       0.028  43.226  17.655  1.00  0.00    -0.018 C 
HETATM    7  C15 UNL     1      -0.962  43.441  16.852  1.00  0.00    -0.085 C 
HETATM    8  C16 UNL     1      -2.108  42.423  16.999  1.00  0.00     0.043 C 
HETATM    9  C17 UNL     1      -1.196  44.453  15.806  1.00  0.00     0.065 C 
HETATM   10  C18 UNL     1      -1.338  45.805  16.340  1.00  0.00     0.133 C 
HETATM   11  C19 UNL     1      -1.035  46.991  15.524  1.00  0.00     0.081 C 
HETATM   12  C20 UNL     1      -2.342  47.660  15.062  1.00  0.00     0.020 C 
HETATM   13  C21 UNL     1      -0.182  46.922  14.361  1.00  0.00     0.137 C 
HETATM   14  O5  UNL     1      -0.649  46.495  13.321  1.00  0.00    -0.297 OA
HETATM   15  C22 UNL     1       1.291  47.347  14.319  1.00  0.00     0.054 C 
HETATM   16  C23 UNL     1       1.314  48.775  14.792  1.00  0.00     0.018 C 
HETATM   17  C24 UNL     1       1.882  46.369  15.235  1.00  0.00     0.051 C 
HETATM   18  C25 UNL     1       3.254  46.262  15.636  1.00  0.00     0.081 C 
HETATM   19  C26 UNL     1       4.244  47.163  14.937  1.00  0.00     0.049 C 
ENDROOT
BRANCH   3  20
HETATM   20  C7  UNL     1       3.715  43.160  17.859  1.00  0.00     0.035 C 
BRANCH  20  21
HETATM   21  C8  UNL     1       4.233  41.743  17.714  1.00  0.00     0.042 C 
BRANCH  21  22
HETATM   22  C9  UNL     1       4.430  41.057  19.023  1.00  0.00     0.193 C 
BRANCH  22  23
HETATM   23  O2  UNL     1       4.398  41.845  20.137  1.00  0.00    -0.388 OA
ATOM     24  H2  UNL     1       5.234  42.036  20.548  1.00  0.00     0.210 HD
ENDBRANCH  22  23
BRANCH  22  25
HETATM   25  C10 UNL     1       3.312  40.043  19.211  1.00  0.00     0.194 C 
HETATM   26  O3  UNL     1       2.144  40.446  19.495  1.00  0.00    -0.289 OA
BRANCH  25  27
HETATM   27  C11 UNL     1       3.531  38.619  19.073  1.00  0.00     0.159 C 
HETATM   28  N1  UNL     1       3.015  37.776  19.836  1.00  0.00    -0.315 N 
ATOM     29  H1  UNL     1       3.244  36.802  19.633  1.00  0.00     0.185 HD
BRANCH  28  30
HETATM   30  N2  UNL     1       2.189  37.975  20.901  1.00  0.00    -0.345 N 
ATOM     31  H22 UNL     1       2.673  38.136  21.784  1.00  0.00     0.176 HD
ATOM     32  H21 UNL     1       1.169  37.985  20.929  1.00  0.00     0.176 HD
ENDBRANCH  28  30
ENDBRANCH  25  27
ENDBRANCH  22  25
ENDBRANCH  21  22
ENDBRANCH  20  21
ENDBRANCH   3  20
BRANCH   1  33
HETATM   33  C4  UNL     1       3.925  44.710  13.993  1.00  0.00     0.068 C 
BRANCH  33  34
HETATM   34  C2  UNL     1       5.231  44.331  13.505  1.00  0.00    -0.091 C 
HETATM   35  C1  UNL     1       5.617  44.676  12.289  1.00  0.00     0.014 C 
HETATM   36  C3  UNL     1       6.218  43.494  14.274  1.00  0.00     0.042 C 
ENDBRANCH  33  34
ENDBRANCH   1  33
BRANCH  18  37
HETATM   37  O6  UNL     1       3.438  46.531  16.992  1.00  0.00    -0.388 OA
ATOM     38  H6  UNL     1       3.613  45.681  17.377  1.00  0.00     0.210 HD
ENDBRANCH  18  37
BRANCH  10  39
HETATM   39  O4  UNL     1      -2.711  45.935  16.731  1.00  0.00    -0.394 OA
ATOM     40  H4  UNL     1      -2.958  45.095  17.101  1.00  0.00     0.210 HD
ENDBRANCH  10  39
TORSDOF 11
ENDMDL
MODEL 4
REMARK VINA RESULT: -7.306809841      3.175      4.799
REMARK  11 active torsions:
REMARK  status: ('A' for Active; 'I' for Inactive)
REMARK    1  A    between atoms: C2_2  and  C4_4 
REMARK    2  A    between atoms: C4_4  and  C5_5 
REMARK    3  A    between atoms: C6_7  and  C7_8 
REMARK    4  A    between atoms: C7_8  and  C8_9 
REMARK    5  A    between atoms: C8_9  and  C9_10 
REMARK    6  A    between atoms: C9_10  and  O2_11 
REMARK    7  A    between atoms: C9_10  and  C10_13 
REMARK    8  A    between atoms: C10_13  and  C11_15 
REMARK    9  A    between atoms: N1_16  and  N2_18 
REMARK   10  A    between atoms: C18_27  and  O4_28 
REMARK   11  A    between atoms: C25_37  and  O6_39 
ROOT
HETATM    1  C5  UNL     1       4.218  42.788  17.484  1.00  0.00     0.159 C 
HETATM    2  O1  UNL     1       4.000  41.486  17.255  1.00  0.00    -0.377 OA
HETATM    3  C6  UNL     1       4.693  40.487  17.818  1.00  0.00     0.129 C 
HETATM    4  C12 UNL     1       4.012  39.579  18.801  1.00  0.00     0.033 C 
HETATM    5  C13 UNL     1       5.066  38.933  19.755  1.00  0.00     0.017 C 
HETATM    6  C14 UNL     1       3.269  38.436  18.229  1.00  0.00    -0.018 C 
HETATM    7  C15 UNL     1       2.049  38.280  17.829  1.00  0.00    -0.085 C 
HETATM    8  C16 UNL     1       1.748  36.864  17.305  1.00  0.00     0.043 C 
HETATM    9  C17 UNL     1       0.900  39.200  17.751  1.00  0.00     0.065 C 
HETATM   10  C18 UNL     1       0.414  39.620  19.064  1.00  0.00     0.133 C 
HETATM   11  C19 UNL     1      -0.309  40.888  19.247  1.00  0.00     0.081 C 
HETATM   12  C20 UNL     1      -1.813  40.616  19.420  1.00  0.00     0.020 C 
HETATM   13  C21 UNL     1      -0.199  41.975  18.303  1.00  0.00     0.137 C 
HETATM   14  O5  UNL     1      -0.841  41.916  17.271  1.00  0.00    -0.297 OA
HETATM   15  C22 UNL     1       0.674  43.223  18.489  1.00  0.00     0.054 C 
HETATM   16  C23 UNL     1       0.246  43.825  19.799  1.00  0.00     0.018 C 
HETATM   17  C24 UNL     1       2.011  42.623  18.477  1.00  0.00     0.051 C 
HETATM   18  C25 UNL     1       3.270  43.287  18.635  1.00  0.00     0.081 C 
HETATM   19  C26 UNL     1       3.248  44.797  18.681  1.00  0.00     0.049 C 
ENDROOT
BRANCH   3  20
HETATM   20  C7  UNL     1       6.134  40.766  18.161  1.00  0.00     0.035 C 
BRANCH  20  21
HETATM   21  C8  UNL     1       7.103  40.489  17.029  1.00  0.00     0.042 C 
BRANCH  21  22
HETATM   22  C9  UNL     1       8.473  40.145  17.506  1.00  0.00     0.193 C 
BRANCH  22  23
HETATM   23  O2  UNL     1       8.937  40.840  18.585  1.00  0.00    -0.388 OA
ATOM     24  H2  UNL     1       9.634  40.433  19.086  1.00  0.00     0.210 HD
ENDBRANCH  22  23
BRANCH  22  25
HETATM   25  C10 UNL     1       8.485  38.684  17.928  1.00  0.00     0.194 C 
HETATM   26  O3  UNL     1       7.570  37.907  17.519  1.00  0.00    -0.289 OA
BRANCH  25  27
HETATM   27  C11 UNL     1       9.514  38.137  18.788  1.00  0.00     0.159 C 
HETATM   28  N1  UNL     1       9.478  38.227  20.032  1.00  0.00    -0.315 N 
ATOM     29  H1  UNL     1      10.262  37.799  20.526  1.00  0.00     0.185 HD
BRANCH  28  30
HETATM   30  N2  UNL     1       8.538  38.817  20.822  1.00  0.00    -0.345 N 
ATOM     31  H22 UNL     1       7.709  39.138  20.322  1.00  0.00     0.176 HD
ATOM     32  H21 UNL     1       8.555  38.976  21.830  1.00  0.00     0.176 HD
ENDBRANCH  28  30
ENDBRANCH  25  27
ENDBRANCH  22  25
ENDBRANCH  21  22
ENDBRANCH  20  21
ENDBRANCH   3  20
BRANCH   1  33
HETATM   33  C4  UNL     1       3.713  43.637  16.347  1.00  0.00     0.068 C 
BRANCH  33  34
HETATM   34  C2  UNL     1       4.599  43.944  15.246  1.00  0.00    -0.091 C 
HETATM   35  C1  UNL     1       5.886  43.657  15.324  1.00  0.00     0.014 C 
HETATM   36  C3  UNL     1       4.176  44.641  13.981  1.00  0.00     0.042 C 
ENDBRANCH  33  34
ENDBRANCH   1  33
BRANCH  18  37
HETATM   37  O6  UNL     1       3.928  42.915  19.807  1.00  0.00    -0.388 OA
ATOM     38  H6  UNL     1       3.241  42.887  20.462  1.00  0.00     0.210 HD
ENDBRANCH  18  37
BRANCH  10  39
HETATM   39  O4  UNL     1      -0.479  38.589  19.504  1.00  0.00    -0.394 OA
ATOM     40  H4  UNL     1      -0.643  38.759  20.424  1.00  0.00     0.210 HD
ENDBRANCH  10  39
TORSDOF 11
ENDMDL
MODEL 5
REMARK VINA RESULT: -7.291364962      3.734      8.792
REMARK  11 active torsions:
REMARK  status: ('A' for Active; 'I' for Inactive)
REMARK    1  A    between atoms: C2_2  and  C4_4 
REMARK    2  A    between atoms: C4_4  and  C5_5 
REMARK    3  A    between atoms: C6_7  and  C7_8 
REMARK    4  A    between atoms: C7_8  and  C8_9 
REMARK    5  A    between atoms: C8_9  and  C9_10 
REMARK    6  A    between atoms: C9_10  and  O2_11 
REMARK    7  A    between atoms: C9_10  and  C10_13 
REMARK    8  A    between atoms: C10_13  and  C11_15 
REMARK    9  A    between atoms: N1_16  and  N2_18 
REMARK   10  A    between atoms: C18_27  and  O4_28 
REMARK   11  A    between atoms: C25_37  and  O6_39 
ROOT
HETATM    1  C5  UNL     1       2.986  40.260  18.401  1.00  0.00     0.159 C 
HETATM    2  O1  UNL     1       3.516  40.897  17.349  1.00  0.00    -0.377 OA
HETATM    3  C6  UNL     1       3.453  42.219  17.147  1.00  0.00     0.129 C 
HETATM    4  C12 UNL     1       4.709  43.039  17.224  1.00  0.00     0.033 C 
HETATM    5  C13 UNL     1       4.362  44.521  17.573  1.00  0.00     0.017 C 
HETATM    6  C14 UNL     1       5.515  43.119  15.988  1.00  0.00    -0.018 C 
HETATM    7  C15 UNL     1       6.475  42.400  15.505  1.00  0.00    -0.085 C 
HETATM    8  C16 UNL     1       7.005  42.908  14.152  1.00  0.00     0.043 C 
HETATM    9  C17 UNL     1       7.141  41.176  15.983  1.00  0.00     0.065 C 
HETATM   10  C18 UNL     1       7.916  41.386  17.204  1.00  0.00     0.133 C 
HETATM   11  C19 UNL     1       8.196  40.284  18.137  1.00  0.00     0.081 C 
HETATM   12  C20 UNL     1       9.655  39.821  17.982  1.00  0.00     0.020 C 
HETATM   13  C21 UNL     1       7.391  39.085  18.169  1.00  0.00     0.137 C 
HETATM   14  O5  UNL     1       7.583  38.234  17.321  1.00  0.00    -0.297 OA
HETATM   15  C22 UNL     1       6.294  38.784  19.198  1.00  0.00     0.054 C 
HETATM   16  C23 UNL     1       6.958  38.899  20.543  1.00  0.00     0.018 C 
HETATM   17  C24 UNL     1       5.327  39.836  18.879  1.00  0.00     0.051 C 
HETATM   18  C25 UNL     1       4.075  40.100  19.525  1.00  0.00     0.081 C 
HETATM   19  C26 UNL     1       3.617  39.105  20.564  1.00  0.00     0.049 C 
ENDROOT
BRANCH   3  20
HETATM   20  C7  UNL     1       2.239  42.933  17.684  1.00  0.00     0.035 C 
BRANCH  20  21
HETATM   21  C8  UNL     1       1.041  42.898  16.758  1.00  0.00     0.042 C 
BRANCH  21  22
HETATM   22  C9  UNL     1      -0.181  42.341  17.405  1.00  0.00     0.193 C 
BRANCH  22  23
HETATM   23  O2  UNL     1       0.016  41.511  18.471  1.00  0.00    -0.388 OA
ATOM     24  H2  UNL     1       0.798  41.662  18.989  1.00  0.00     0.210 HD
ENDBRANCH  22  23
BRANCH  22  25
HETATM   25  C10 UNL     1      -1.014  43.497  17.939  1.00  0.00     0.194 C 
HETATM   26  O3  UNL     1      -1.083  44.576  17.278  1.00  0.00    -0.289 OA
BRANCH  25  27
HETATM   27  C11 UNL     1      -1.743  43.411  19.187  1.00  0.00     0.159 C 
HETATM   28  N1  UNL     1      -1.210  43.604  20.300  1.00  0.00    -0.315 N 
ATOM     29  H1  UNL     1      -1.831  43.517  21.105  1.00  0.00     0.185 HD
BRANCH  28  30
HETATM   30  N2  UNL     1       0.086  43.914  20.588  1.00  0.00    -0.345 N 
ATOM     31  H22 UNL     1       0.707  43.107  20.651  1.00  0.00     0.176 HD
ATOM     32  H21 UNL     1       0.507  44.830  20.744  1.00  0.00     0.176 HD
ENDBRANCH  28  30
ENDBRANCH  25  27
ENDBRANCH  22  25
ENDBRANCH  21  22
ENDBRANCH  20  21
ENDBRANCH   3  20
BRANCH   1  33
HETATM   33  C4  UNL     1       2.721  38.810  18.090  1.00  0.00     0.068 C 
BRANCH  33  34
HETATM   34  C2  UNL     1       1.526  38.451  17.361  1.00  0.00    -0.091 C 
HETATM   35  C1  UNL     1       0.525  37.845  17.976  1.00  0.00     0.014 C 
HETATM   36  C3  UNL     1       1.329  38.668  15.885  1.00  0.00     0.042 C 
ENDBRANCH  33  34
ENDBRANCH   1  33
BRANCH  18  37
HETATM   37  O6  UNL     1       4.064  41.325  20.191  1.00  0.00    -0.388 OA
ATOM     38  H6  UNL     1       3.953  41.967  19.499  1.00  0.00     0.210 HD
ENDBRANCH  18  37
BRANCH  10  39
HETATM   39  O4  UNL     1       9.193  41.881  16.783  1.00  0.00    -0.394 OA
ATOM     40  H4  UNL     1       9.640  41.145  16.382  1.00  0.00     0.210 HD
ENDBRANCH  10  39
TORSDOF 11
ENDMDL
