MODEL 1
REMARK VINA RESULT: -7.071400360      0.000      0.000
REMARK  11 active torsions:
REMARK  status: ('A' for Active; 'I' for Inactive)
REMARK    1  A    between atoms: C13_14  and  C14_15 
REMARK    2  A    between atoms: C14_15  and  C15_16 
REMARK    3  A    between atoms: C15_16  and  C17_18 
REMARK    4  A    between atoms: C17_18  and  O2_19 
REMARK    5  A    between atoms: C17_18  and  C20_23 
REMARK    6  A    between atoms: O2_19  and  C18_20 
REMARK    7  A    between atoms: C20_23  and  O4_24 
REMARK    8  A    between atoms: C20_23  and  C21_26 
REMARK    9  A    between atoms: C21_26  and  O5_27 
REMARK   10  A    between atoms: C22_29  and  O6_31 
REMARK   11  A    between atoms: C27_36  and  O7_37 
ROOT
HETATM    1  C1  UNL     1       3.983  46.956  18.239  1.00  0.00     0.017 C 
HETATM    2  C2  UNL     1       3.854  45.934  17.414  1.00  0.00    -0.060 C 
HETATM    3  C3  UNL     1       3.090  46.199  16.162  1.00  0.00     0.036 C 
HETATM    4  C4  UNL     1       3.290  45.182  15.107  1.00  0.00     0.013 C 
HETATM    5  C5  UNL     1       4.371  44.188  15.323  1.00  0.00     0.031 C 
HETATM    6  C6  UNL     1       5.719  44.580  14.865  1.00  0.00     0.058 C 
HETATM    7  C7  UNL     1       5.795  44.272  13.353  1.00  0.00     0.046 C 
HETATM    8  C8  UNL     1       6.047  46.073  14.939  1.00  0.00     0.046 C 
HETATM    9  O1  UNL     1       6.759  44.007  15.553  1.00  0.00    -0.375 OA
HETATM   10  C9  UNL     1       6.606  42.766  16.037  1.00  0.00     0.123 C 
HETATM   11  C10 UNL     1       6.656  41.733  14.933  1.00  0.00     0.040 C 
HETATM   12  C11 UNL     1       5.385  42.563  16.955  1.00  0.00     0.026 C 
HETATM   13  C12 UNL     1       5.130  41.120  16.871  1.00  0.00     0.015 C 
HETATM   14  C13 UNL     1       4.197  40.450  17.816  1.00  0.00     0.020 C 
HETATM   15  C22 UNL     1       2.778  40.643  17.334  1.00  0.00     0.058 C 
HETATM   16  C23 UNL     1       2.191  39.392  16.717  1.00  0.00     0.046 C 
HETATM   17  C24 UNL     1       2.644  41.733  16.288  1.00  0.00     0.038 C 
HETATM   18  C25 UNL     1       2.912  43.023  16.937  1.00  0.00     0.016 C 
HETATM   19  C26 UNL     1       4.330  43.561  16.726  1.00  0.00     0.002 C 
HETATM   20  C27 UNL     1       4.450  44.662  17.776  1.00  0.00     0.155 C 
ENDROOT
BRANCH  14  21
HETATM   21  C14 UNL     1       4.397  40.719  19.244  1.00  0.00     0.014 C 
BRANCH  21  22
HETATM   22  C15 UNL     1       4.826  39.566  20.120  1.00  0.00     0.014 C 
HETATM   23  C16 UNL     1       3.511  38.846  20.549  1.00  0.00     0.012 C 
BRANCH  22  24
HETATM   24  C17 UNL     1       5.715  38.559  19.442  1.00  0.00     0.166 C 
BRANCH  24  25
HETATM   25  O2  UNL     1       5.238  37.279  19.330  1.00  0.00    -0.313 OA
BRANCH  25  26
HETATM   26  C18 UNL     1       5.061  36.463  18.261  1.00  0.00     0.255 C 
HETATM   27  C19 UNL     1       3.726  36.015  17.759  1.00  0.00     0.126 C 
HETATM   28  O3  UNL     1       6.076  36.077  17.679  1.00  0.00    -0.266 OA
ENDBRANCH  25  26
ENDBRANCH  24  25
BRANCH  24  29
HETATM   29  C20 UNL     1       7.180  38.682  19.803  1.00  0.00     0.171 C 
BRANCH  29  30
HETATM   30  O4  UNL     1       7.305  39.558  20.922  1.00  0.00    -0.391 OA
ATOM     31  H4  UNL     1       6.793  39.209  21.642  1.00  0.00     0.210 HD
ENDBRANCH  29  30
BRANCH  29  32
HETATM   32  C21 UNL     1       8.082  39.119  18.700  1.00  0.00     0.198 C 
BRANCH  32  33
HETATM   33  O5  UNL     1       7.499  38.668  17.480  1.00  0.00    -0.398 OA
ATOM     34  H5  UNL     1       8.214  38.485  16.882  1.00  0.00     0.209 HD
ENDBRANCH  32  33
ENDBRANCH  29  32
ENDBRANCH  24  29
ENDBRANCH  22  24
ENDBRANCH  21  22
ENDBRANCH  14  21
BRANCH  15  35
HETATM   35  O6  UNL     1       1.938  40.996  18.400  1.00  0.00    -0.390 OA
ATOM     36  H6  UNL     1       1.175  41.464  18.083  1.00  0.00     0.210 HD
ENDBRANCH  15  35
BRANCH  20  37
HETATM   37  O7  UNL     1       5.791  44.752  18.186  1.00  0.00    -0.390 OA
ATOM     38  H7  UNL     1       6.252  43.922  18.190  1.00  0.00     0.210 HD
ENDBRANCH  20  37
TORSDOF 11
ENDMDL
MODEL 2
REMARK VINA RESULT: -6.779267794      2.056      7.448
REMARK  11 active torsions:
REMARK  status: ('A' for Active; 'I' for Inactive)
REMARK    1  A    between atoms: C13_14  and  C14_15 
REMARK    2  A    between atoms: C14_15  and  C15_16 
REMARK    3  A    between atoms: C15_16  and  C17_18 
REMARK    4  A    between atoms: C17_18  and  O2_19 
REMARK    5  A    between atoms: C17_18  and  C20_23 
REMARK    6  A    between atoms: O2_19  and  C18_20 
REMARK    7  A    between atoms: C20_23  and  O4_24 
REMARK    8  A    between atoms: C20_23  and  C21_26 
REMARK    9  A    between atoms: C21_26  and  O5_27 
REMARK   10  A    between atoms: C22_29  and  O6_31 
REMARK   11  A    between atoms: C27_36  and  O7_37 
ROOT
HETATM    1  C1  UNL     1       1.527  38.003  18.719  1.00  0.00     0.017 C 
HETATM    2  C2  UNL     1       2.427  38.904  19.068  1.00  0.00    -0.060 C 
HETATM    3  C3  UNL     1       2.922  38.822  20.471  1.00  0.00     0.036 C 
HETATM    4  C4  UNL     1       4.175  39.567  20.714  1.00  0.00     0.013 C 
HETATM    5  C5  UNL     1       4.892  40.088  19.523  1.00  0.00     0.031 C 
HETATM    6  C6  UNL     1       5.849  39.163  18.881  1.00  0.00     0.058 C 
HETATM    7  C7  UNL     1       7.174  39.258  19.669  1.00  0.00     0.046 C 
HETATM    8  C8  UNL     1       5.498  37.675  18.954  1.00  0.00     0.046 C 
HETATM    9  O1  UNL     1       6.041  39.363  17.537  1.00  0.00    -0.375 OA
HETATM   10  C9  UNL     1       5.967  40.612  17.054  1.00  0.00     0.123 C 
HETATM   11  C10 UNL     1       7.185  41.425  17.435  1.00  0.00     0.040 C 
HETATM   12  C11 UNL     1       4.659  41.362  17.366  1.00  0.00     0.026 C 
HETATM   13  C12 UNL     1       5.039  42.776  17.255  1.00  0.00     0.015 C 
HETATM   14  C13 UNL     1       4.009  43.847  17.219  1.00  0.00     0.020 C 
HETATM   15  C22 UNL     1       3.571  44.163  18.631  1.00  0.00     0.058 C 
HETATM   16  C23 UNL     1       4.134  45.472  19.142  1.00  0.00     0.046 C 
HETATM   17  C24 UNL     1       3.981  43.104  19.636  1.00  0.00     0.038 C 
HETATM   18  C25 UNL     1       3.210  41.886  19.356  1.00  0.00     0.016 C 
HETATM   19  C26 UNL     1       3.964  40.827  18.546  1.00  0.00     0.002 C 
HETATM   20  C27 UNL     1       2.858  39.881  18.086  1.00  0.00     0.155 C 
ENDROOT
BRANCH  14  21
HETATM   21  C14 UNL     1       2.908  43.674  16.265  1.00  0.00     0.014 C 
BRANCH  21  22
HETATM   22  C15 UNL     1       2.767  44.701  15.166  1.00  0.00     0.014 C 
HETATM   23  C16 UNL     1       1.439  45.463  15.465  1.00  0.00     0.012 C 
BRANCH  22  24
HETATM   24  C17 UNL     1       3.883  45.707  15.099  1.00  0.00     0.166 C 
BRANCH  24  25
HETATM   25  O2  UNL     1       3.623  46.962  15.585  1.00  0.00    -0.313 OA
BRANCH  25  26
HETATM   26  C18 UNL     1       3.698  48.192  15.018  1.00  0.00     0.255 C 
HETATM   27  C19 UNL     1       2.559  48.868  14.325  1.00  0.00     0.126 C 
HETATM   28  O3  UNL     1       4.782  48.774  15.089  1.00  0.00    -0.266 OA
ENDBRANCH  25  26
ENDBRANCH  24  25
BRANCH  24  29
HETATM   29  C20 UNL     1       4.691  45.654  13.821  1.00  0.00     0.171 C 
BRANCH  29  30
HETATM   30  O4  UNL     1       4.201  44.586  13.012  1.00  0.00    -0.391 OA
ATOM     31  H4  UNL     1       3.514  44.921  12.446  1.00  0.00     0.210 HD
ENDBRANCH  29  30
BRANCH  29  32
HETATM   32  C21 UNL     1       6.167  45.537  13.993  1.00  0.00     0.198 C 
BRANCH  32  33
HETATM   33  O5  UNL     1       6.513  46.296  15.149  1.00  0.00    -0.398 OA
ATOM     34  H5  UNL     1       7.449  46.196  15.277  1.00  0.00     0.209 HD
ENDBRANCH  32  33
ENDBRANCH  29  32
ENDBRANCH  24  29
ENDBRANCH  22  24
ENDBRANCH  21  22
ENDBRANCH  14  21
BRANCH  15  35
HETATM   35  O6  UNL     1       2.175  44.273  18.702  1.00  0.00    -0.390 OA
ATOM     36  H6  UNL     1       1.905  44.543  19.572  1.00  0.00     0.210 HD
ENDBRANCH  15  35
BRANCH  20  37
HETATM   37  O7  UNL     1       3.222  39.328  16.847  1.00  0.00    -0.390 OA
ATOM     38  H7  UNL     1       2.871  39.791  16.096  1.00  0.00     0.210 HD
ENDBRANCH  20  37
TORSDOF 11
ENDMDL
MODEL 3
REMARK VINA RESULT: -6.660147236      1.888      3.737
REMARK  11 active torsions:
REMARK  status: ('A' for Active; 'I' for Inactive)
REMARK    1  A    between atoms: C13_14  and  C14_15 
REMARK    2  A    between atoms: C14_15  and  C15_16 
REMARK    3  A    between atoms: C15_16  and  C17_18 
REMARK    4  A    between atoms: C17_18  and  O2_19 
REMARK    5  A    between atoms: C17_18  and  C20_23 
REMARK    6  A    between atoms: O2_19  and  C18_20 
REMARK    7  A    between atoms: C20_23  and  O4_24 
REMARK    8  A    between atoms: C20_23  and  C21_26 
REMARK    9  A    between atoms: C21_26  and  O5_27 
REMARK   10  A    between atoms: C22_29  and  O6_31 
REMARK   11  A    between atoms: C27_36  and  O7_37 
ROOT
HETATM    1  C1  UNL     1       5.771  45.673  16.592  1.00  0.00     0.017 C 
HETATM    2  C2  UNL     1       4.863  44.953  17.225  1.00  0.00    -0.060 C 
HETATM    3  C3  UNL     1       3.980  45.697  18.167  1.00  0.00     0.036 C 
HETATM    4  C4  UNL     1       2.757  44.963  18.555  1.00  0.00     0.013 C 
HETATM    5  C5  UNL     1       2.447  43.722  17.802  1.00  0.00     0.031 C 
HETATM    6  C6  UNL     1       1.664  43.889  16.561  1.00  0.00     0.058 C 
HETATM    7  C7  UNL     1       0.176  43.965  16.967  1.00  0.00     0.046 C 
HETATM    8  C8  UNL     1       1.889  45.195  15.795  1.00  0.00     0.046 C 
HETATM    9  O1  UNL     1       1.881  42.933  15.600  1.00  0.00    -0.375 OA
HETATM   10  C9  UNL     1       2.166  41.682  15.989  1.00  0.00     0.123 C 
HETATM   11  C10 UNL     1       0.941  40.980  16.531  1.00  0.00     0.040 C 
HETATM   12  C11 UNL     1       3.370  41.545  16.939  1.00  0.00     0.026 C 
HETATM   13  C12 UNL     1       3.123  40.272  17.625  1.00  0.00     0.015 C 
HETATM   14  C13 UNL     1       4.182  39.623  18.443  1.00  0.00     0.020 C 
HETATM   15  C22 UNL     1       4.211  40.259  19.814  1.00  0.00     0.058 C 
HETATM   16  C23 UNL     1       3.603  39.378  20.884  1.00  0.00     0.046 C 
HETATM   17  C24 UNL     1       3.465  41.578  19.878  1.00  0.00     0.038 C 
HETATM   18  C25 UNL     1       4.210  42.562  19.082  1.00  0.00     0.016 C 
HETATM   19  C26 UNL     1       3.661  42.787  17.670  1.00  0.00     0.002 C 
HETATM   20  C27 UNL     1       4.795  43.527  16.965  1.00  0.00     0.155 C 
ENDROOT
BRANCH  14  21
HETATM   21  C14 UNL     1       5.499  39.468  17.817  1.00  0.00     0.014 C 
BRANCH  21  22
HETATM   22  C15 UNL     1       6.573  38.761  18.611  1.00  0.00     0.014 C 
HETATM   23  C16 UNL     1       6.504  37.264  18.180  1.00  0.00     0.012 C 
BRANCH  22  24
HETATM   24  C17 UNL     1       7.970  39.260  18.362  1.00  0.00     0.166 C 
BRANCH  24  25
HETATM   25  O2  UNL     1       8.451  39.158  17.084  1.00  0.00    -0.313 OA
BRANCH  25  26
HETATM   26  C18 UNL     1       8.394  39.995  16.018  1.00  0.00     0.255 C 
HETATM   27  C19 UNL     1       8.014  41.438  16.105  1.00  0.00     0.126 C 
HETATM   28  O3  UNL     1       8.677  39.519  14.917  1.00  0.00    -0.266 OA
ENDBRANCH  25  26
ENDBRANCH  24  25
BRANCH  24  29
HETATM   29  C20 UNL     1       8.954  38.924  19.461  1.00  0.00     0.171 C 
BRANCH  29  30
HETATM   30  O4  UNL     1       8.340  39.183  20.723  1.00  0.00    -0.391 OA
ATOM     31  H4  UNL     1       9.019  39.257  21.384  1.00  0.00     0.210 HD
ENDBRANCH  29  30
BRANCH  29  32
HETATM   32  C21 UNL     1      10.275  39.609  19.379  1.00  0.00     0.198 C 
BRANCH  32  33
HETATM   33  O5  UNL     1      10.017  40.976  19.066  1.00  0.00    -0.398 OA
ATOM     34  H5  UNL     1       9.605  41.363  19.830  1.00  0.00     0.209 HD
ENDBRANCH  32  33
ENDBRANCH  29  32
ENDBRANCH  24  29
ENDBRANCH  22  24
ENDBRANCH  21  22
ENDBRANCH  14  21
BRANCH  15  35
HETATM   35  O6  UNL     1       5.530  40.518  20.211  1.00  0.00    -0.390 OA
ATOM     36  H6  UNL     1       5.568  40.712  21.140  1.00  0.00     0.210 HD
ENDBRANCH  15  35
BRANCH  20  37
HETATM   37  O7  UNL     1       4.772  43.194  15.600  1.00  0.00    -0.390 OA
ATOM     38  H7  UNL     1       4.231  42.441  15.393  1.00  0.00     0.210 HD
ENDBRANCH  20  37
TORSDOF 11
ENDMDL
MODEL 4
REMARK VINA RESULT: -6.500683025      2.806      7.801
REMARK  11 active torsions:
REMARK  status: ('A' for Active; 'I' for Inactive)
REMARK    1  A    between atoms: C13_14  and  C14_15 
REMARK    2  A    between atoms: C14_15  and  C15_16 
REMARK    3  A    between atoms: C15_16  and  C17_18 
REMARK    4  A    between atoms: C17_18  and  O2_19 
REMARK    5  A    between atoms: C17_18  and  C20_23 
REMARK    6  A    between atoms: O2_19  and  C18_20 
REMARK    7  A    between atoms: C20_23  and  O4_24 
REMARK    8  A    between atoms: C20_23  and  C21_26 
REMARK    9  A    between atoms: C21_26  and  O5_27 
REMARK   10  A    between atoms: C22_29  and  O6_31 
REMARK   11  A    between atoms: C27_36  and  O7_37 
ROOT
HETATM    1  C1  UNL     1      -1.819  41.633  15.810  1.00  0.00     0.017 C 
HETATM    2  C2  UNL     1      -0.872  41.780  16.718  1.00  0.00    -0.060 C 
HETATM    3  C3  UNL     1      -1.312  41.693  18.139  1.00  0.00     0.036 C 
HETATM    4  C4  UNL     1      -0.210  41.474  19.100  1.00  0.00     0.013 C 
HETATM    5  C5  UNL     1       1.121  41.139  18.536  1.00  0.00     0.031 C 
HETATM    6  C6  UNL     1       1.380  39.708  18.281  1.00  0.00     0.058 C 
HETATM    7  C7  UNL     1       1.835  39.081  19.617  1.00  0.00     0.046 C 
HETATM    8  C8  UNL     1       0.166  38.863  17.889  1.00  0.00     0.046 C 
HETATM    9  O1  UNL     1       2.270  39.447  17.269  1.00  0.00    -0.375 OA
HETATM   10  C9  UNL     1       3.278  40.306  17.059  1.00  0.00     0.123 C 
HETATM   11  C10 UNL     1       4.336  40.189  18.133  1.00  0.00     0.040 C 
HETATM   12  C11 UNL     1       2.858  41.770  16.827  1.00  0.00     0.026 C 
HETATM   13  C12 UNL     1       4.059  42.533  17.188  1.00  0.00     0.015 C 
HETATM   14  C13 UNL     1       4.178  43.977  16.857  1.00  0.00     0.020 C 
HETATM   15  C22 UNL     1       3.452  44.788  17.905  1.00  0.00     0.058 C 
HETATM   16  C23 UNL     1       4.392  45.486  18.865  1.00  0.00     0.046 C 
HETATM   17  C24 UNL     1       2.514  43.959  18.760  1.00  0.00     0.038 C 
HETATM   18  C25 UNL     1       1.401  43.510  17.913  1.00  0.00     0.016 C 
HETATM   19  C26 UNL     1       1.535  42.077  17.391  1.00  0.00     0.002 C 
HETATM   20  C27 UNL     1       0.491  42.009  16.278  1.00  0.00     0.155 C 
ENDROOT
BRANCH  14  21
HETATM   21  C14 UNL     1       3.883  44.366  15.474  1.00  0.00     0.014 C 
BRANCH  21  22
HETATM   22  C15 UNL     1       4.844  45.311  14.792  1.00  0.00     0.014 C 
HETATM   23  C16 UNL     1       5.050  44.743  13.355  1.00  0.00     0.012 C 
BRANCH  22  24
HETATM   24  C17 UNL     1       4.354  46.728  14.673  1.00  0.00     0.166 C 
BRANCH  24  25
HETATM   25  O2  UNL     1       3.135  46.920  14.079  1.00  0.00    -0.313 OA
BRANCH  25  26
HETATM   26  C18 UNL     1       1.956  47.397  14.550  1.00  0.00     0.255 C 
HETATM   27  C19 UNL     1       1.586  48.844  14.576  1.00  0.00     0.126 C 
HETATM   28  O3  UNL     1       1.151  46.568  14.981  1.00  0.00    -0.266 OA
ENDBRANCH  25  26
ENDBRANCH  24  25
BRANCH  24  29
HETATM   29  C20 UNL     1       5.428  47.727  14.301  1.00  0.00     0.171 C 
BRANCH  29  30
HETATM   30  O4  UNL     1       6.669  47.297  14.860  1.00  0.00    -0.391 OA
ATOM     31  H4  UNL     1       7.375  47.582  14.292  1.00  0.00     0.210 HD
ENDBRANCH  29  30
BRANCH  29  32
HETATM   32  C21 UNL     1       5.154  49.143  14.679  1.00  0.00     0.198 C 
BRANCH  32  33
HETATM   33  O5  UNL     1       6.411  49.744  14.982  1.00  0.00    -0.398 OA
ATOM     34  H5  UNL     1       6.807  49.227  15.673  1.00  0.00     0.209 HD
ENDBRANCH  32  33
ENDBRANCH  29  32
ENDBRANCH  24  29
ENDBRANCH  22  24
ENDBRANCH  21  22
ENDBRANCH  14  21
BRANCH  15  35
HETATM   35  O6  UNL     1       2.677  45.791  17.305  1.00  0.00    -0.390 OA
ATOM     36  H6  UNL     1       2.315  45.486  16.481  1.00  0.00     0.210 HD
ENDBRANCH  15  35
BRANCH  20  37
HETATM   37  O7  UNL     1       0.937  41.108  15.296  1.00  0.00    -0.390 OA
ATOM     38  H7  UNL     1       1.439  41.511  14.598  1.00  0.00     0.210 HD
ENDBRANCH  20  37
TORSDOF 11
ENDMDL
MODEL 5
REMARK VINA RESULT: -6.485907418      0.686      1.855
REMARK  11 active torsions:
REMARK  status: ('A' for Active; 'I' for Inactive)
REMARK    1  A    between atoms: C13_14  and  C14_15 
REMARK    2  A    between atoms: C14_15  and  C15_16 
REMARK    3  A    between atoms: C15_16  and  C17_18 
REMARK    4  A    between atoms: C17_18  and  O2_19 
REMARK    5  A    between atoms: C17_18  and  C20_23 
REMARK    6  A    between atoms: O2_19  and  C18_20 
REMARK    7  A    between atoms: C20_23  and  O4_24 
REMARK    8  A    between atoms: C20_23  and  C21_26 
REMARK    9  A    between atoms: C21_26  and  O5_27 
REMARK   10  A    between atoms: C22_29  and  O6_31 
REMARK   11  A    between atoms: C27_36  and  O7_37 
ROOT
HETATM    1  C1  UNL     1       3.910  47.013  17.934  1.00  0.00     0.017 C 
HETATM    2  C2  UNL     1       3.805  45.939  17.174  1.00  0.00    -0.060 C 
HETATM    3  C3  UNL     1       3.045  46.111  15.904  1.00  0.00     0.036 C 
HETATM    4  C4  UNL     1       3.269  45.034  14.916  1.00  0.00     0.013 C 
HETATM    5  C5  UNL     1       4.367  44.076  15.199  1.00  0.00     0.031 C 
HETATM    6  C6  UNL     1       5.711  44.463  14.724  1.00  0.00     0.058 C 
HETATM    7  C7  UNL     1       5.801  44.063  13.235  1.00  0.00     0.046 C 
HETATM    8  C8  UNL     1       6.011  45.964  14.706  1.00  0.00     0.046 C 
HETATM    9  O1  UNL     1       6.757  43.953  15.452  1.00  0.00    -0.375 OA
HETATM   10  C9  UNL     1       6.623  42.742  16.011  1.00  0.00     0.123 C 
HETATM   11  C10 UNL     1       6.698  41.643  14.975  1.00  0.00     0.040 C 
HETATM   12  C11 UNL     1       5.401  42.574  16.934  1.00  0.00     0.026 C 
HETATM   13  C12 UNL     1       5.172  41.125  16.940  1.00  0.00     0.015 C 
HETATM   14  C13 UNL     1       4.246  40.498  17.920  1.00  0.00     0.020 C 
HETATM   15  C22 UNL     1       2.827  40.635  17.420  1.00  0.00     0.058 C 
HETATM   16  C23 UNL     1       2.266  39.336  16.880  1.00  0.00     0.046 C 
HETATM   17  C24 UNL     1       2.679  41.654  16.307  1.00  0.00     0.038 C 
HETATM   18  C25 UNL     1       2.919  42.987  16.875  1.00  0.00     0.016 C 
HETATM   19  C26 UNL     1       4.329  43.536  16.638  1.00  0.00     0.002 C 
HETATM   20  C27 UNL     1       4.422  44.703  17.618  1.00  0.00     0.155 C 
ENDROOT
BRANCH  14  21
HETATM   21  C14 UNL     1       4.431  40.859  19.330  1.00  0.00     0.014 C 
BRANCH  21  22
HETATM   22  C15 UNL     1       4.786  39.752  20.295  1.00  0.00     0.014 C 
HETATM   23  C16 UNL     1       3.447  39.015  20.605  1.00  0.00     0.012 C 
BRANCH  22  24
HETATM   24  C17 UNL     1       5.767  38.744  19.762  1.00  0.00     0.166 C 
BRANCH  24  25
HETATM   25  O2  UNL     1       6.612  39.160  18.767  1.00  0.00    -0.313 OA
BRANCH  25  26
HETATM   26  C18 UNL     1       7.961  39.112  18.638  1.00  0.00     0.255 C 
HETATM   27  C19 UNL     1       8.808  40.277  18.241  1.00  0.00     0.126 C 
HETATM   28  O3  UNL     1       8.506  38.030  18.867  1.00  0.00    -0.266 OA
ENDBRANCH  25  26
ENDBRANCH  24  25
BRANCH  24  29
HETATM   29  C20 UNL     1       5.198  37.351  19.598  1.00  0.00     0.171 C 
BRANCH  29  30
HETATM   30  O4  UNL     1       6.095  36.416  20.197  1.00  0.00    -0.391 OA
ATOM     31  H4  UNL     1       6.101  36.557  21.137  1.00  0.00     0.210 HD
ENDBRANCH  29  30
BRANCH  29  32
HETATM   32  C21 UNL     1       4.882  36.942  18.200  1.00  0.00     0.198 C 
BRANCH  32  33
HETATM   33  O5  UNL     1       6.106  36.525  17.601  1.00  0.00    -0.398 OA
ATOM     34  H5  UNL     1       6.784  36.620  18.259  1.00  0.00     0.209 HD
ENDBRANCH  32  33
ENDBRANCH  29  32
ENDBRANCH  24  29
ENDBRANCH  22  24
ENDBRANCH  21  22
ENDBRANCH  14  21
BRANCH  15  35
HETATM   35  O6  UNL     1       1.974  41.038  18.457  1.00  0.00    -0.390 OA
ATOM     36  H6  UNL     1       1.304  41.626  18.130  1.00  0.00     0.210 HD
ENDBRANCH  15  35
BRANCH  20  37
HETATM   37  O7  UNL     1       5.759  44.843  18.028  1.00  0.00    -0.390 OA
ATOM     38  H7  UNL     1       6.349  44.199  17.656  1.00  0.00     0.210 HD
ENDBRANCH  20  37
TORSDOF 11
ENDMDL
