MODEL 1
REMARK VINA RESULT: -9.409028225      0.000      0.000
REMARK  13 active torsions:
REMARK  status: ('A' for Active; 'I' for Inactive)
REMARK    1  A    between atoms: O1_2  and  C2_3 
REMARK    2  A    between atoms: C2_3  and  C4_5 
REMARK    3  A    between atoms: C2_3  and  C20_28 
REMARK       I    between atoms: C4_5  and  N1_7 
REMARK    4  A    between atoms: N1_7  and  C5_9 
REMARK    5  A    between atoms: C5_9  and  C6_10 
REMARK    6  A    between atoms: C5_9  and  C10_14 
REMARK    7  A    between atoms: C6_10  and  C7_11 
REMARK       I    between atoms: C10_14  and  N2_16 
REMARK    8  A    between atoms: N2_16  and  C11_18 
REMARK    9  A    between atoms: C11_18  and  C12_19 
REMARK   10  A    between atoms: C11_18  and  S1_26 
REMARK   11  A    between atoms: C12_19  and  C13_20 
REMARK   12  A    between atoms: C20_28  and  C21_29 
REMARK   13  A    between atoms: C20_28  and  C27_35 
ROOT
HETATM    1  C4  UNL     1      25.997  33.865  19.837  1.00  0.00     0.257 C 
HETATM    2  O2  UNL     1      26.922  34.480  20.359  1.00  0.00    -0.270 OA
HETATM    3  N1  UNL     1      25.166  33.117  20.689  1.00  0.00    -0.345 N 
ATOM      4  H1  UNL     1      24.385  32.595  20.291  1.00  0.00     0.163 HD
ENDROOT
BRANCH   3   5
HETATM    5  C5  UNL     1      25.396  33.072  22.140  1.00  0.00     0.177 C 
BRANCH   5   6
HETATM    6  C6  UNL     1      25.279  34.423  22.758  1.00  0.00     0.038 C 
BRANCH   6   7
HETATM    7  C7  UNL     1      24.073  34.651  23.602  1.00  0.00    -0.020 C 
HETATM    8  C8  UNL     1      24.288  34.512  25.078  1.00  0.00     0.009 C 
HETATM    9  C9  UNL     1      23.621  36.092  23.343  1.00  0.00     0.009 C 
ENDBRANCH   6   7
ENDBRANCH   5   6
BRANCH   5  10
HETATM   10  C10 UNL     1      26.801  32.595  22.391  1.00  0.00     0.241 C 
HETATM   11  O3  UNL     1      27.387  33.092  23.402  1.00  0.00    -0.271 OA
HETATM   12  N2  UNL     1      27.447  31.663  21.578  1.00  0.00    -0.346 N 
ATOM     13  H2  UNL     1      26.945  31.286  20.773  1.00  0.00     0.163 HD
BRANCH  12  14
HETATM   14  C11 UNL     1      28.819  31.201  21.828  1.00  0.00     0.150 C 
BRANCH  14  15
HETATM   15  C12 UNL     1      28.861  29.718  21.871  1.00  0.00     0.074 C 
BRANCH  15  16
HETATM   16  C13 UNL     1      29.647  29.077  22.928  1.00  0.00    -0.056 A 
HETATM   17  C14 UNL     1      30.569  29.748  23.705  1.00  0.00     0.007 A 
HETATM   18  C15 UNL     1      31.302  29.112  24.692  1.00  0.00     0.001 A 
HETATM   19  C16 UNL     1      31.143  27.771  24.942  1.00  0.00     0.000 A 
HETATM   20  C17 UNL     1      30.223  27.066  24.178  1.00  0.00     0.001 A 
HETATM   21  C18 UNL     1      29.493  27.719  23.190  1.00  0.00     0.007 A 
ENDBRANCH  15  16
ENDBRANCH  14  15
BRANCH  14  22
HETATM   22  S1  UNL     1      29.863  31.957  20.583  1.00  0.00    -0.148 SA
HETATM   23  C19 UNL     1      31.325  31.004  20.176  1.00  0.00     0.092 C 
ENDBRANCH  14  22
ENDBRANCH  12  14
ENDBRANCH   5  10
ENDBRANCH   3   5
BRANCH   1  24
HETATM   24  C2  UNL     1      25.745  33.893  18.406  1.00  0.00     0.165 C 
HETATM   25  C3  UNL     1      24.572  32.836  18.307  1.00  0.00     0.062 C 
BRANCH  24  26
HETATM   26  O1  UNL     1      26.686  33.236  17.651  1.00  0.00    -0.371 OA
HETATM   27  C1  UNL     1      26.860  31.923  17.667  1.00  0.00     0.203 C 
ENDBRANCH  24  26
BRANCH  24  28
HETATM   28  C20 UNL     1      25.175  35.090  17.766  1.00  0.00     0.006 C 
BRANCH  28  29
HETATM   29  C21 UNL     1      26.093  36.148  17.287  1.00  0.00    -0.026 A 
HETATM   30  C22 UNL     1      25.630  37.304  16.640  1.00  0.00     0.012 A 
HETATM   31  C23 UNL     1      26.418  38.313  16.199  1.00  0.00     0.001 A 
HETATM   32  C24 UNL     1      27.779  38.232  16.381  1.00  0.00     0.000 A 
HETATM   33  C25 UNL     1      28.302  37.125  17.008  1.00  0.00     0.001 A 
HETATM   34  C26 UNL     1      27.464  36.120  17.443  1.00  0.00     0.012 A 
ENDBRANCH  28  29
BRANCH  28  35
HETATM   35  C27 UNL     1      23.892  35.608  18.238  1.00  0.00    -0.026 A 
HETATM   36  C28 UNL     1      23.711  36.345  19.417  1.00  0.00     0.012 A 
HETATM   37  C29 UNL     1      22.474  36.782  19.826  1.00  0.00     0.001 A 
HETATM   38  C30 UNL     1      21.343  36.517  19.094  1.00  0.00     0.000 A 
HETATM   39  C31 UNL     1      21.482  35.799  17.936  1.00  0.00     0.001 A 
HETATM   40  C32 UNL     1      22.741  35.362  17.534  1.00  0.00     0.012 A 
ENDBRANCH  28  35
ENDBRANCH  24  28
ENDBRANCH   1  24
TORSDOF 13
ENDMDL
MODEL 2
REMARK VINA RESULT: -9.255312280      1.349      1.943
REMARK  13 active torsions:
REMARK  status: ('A' for Active; 'I' for Inactive)
REMARK    1  A    between atoms: O1_2  and  C2_3 
REMARK    2  A    between atoms: C2_3  and  C4_5 
REMARK    3  A    between atoms: C2_3  and  C20_28 
REMARK       I    between atoms: C4_5  and  N1_7 
REMARK    4  A    between atoms: N1_7  and  C5_9 
REMARK    5  A    between atoms: C5_9  and  C6_10 
REMARK    6  A    between atoms: C5_9  and  C10_14 
REMARK    7  A    between atoms: C6_10  and  C7_11 
REMARK       I    between atoms: C10_14  and  N2_16 
REMARK    8  A    between atoms: N2_16  and  C11_18 
REMARK    9  A    between atoms: C11_18  and  C12_19 
REMARK   10  A    between atoms: C11_18  and  S1_26 
REMARK   11  A    between atoms: C12_19  and  C13_20 
REMARK   12  A    between atoms: C20_28  and  C21_29 
REMARK   13  A    between atoms: C20_28  and  C27_35 
ROOT
HETATM    1  C4  UNL     1      25.417  34.039  19.464  1.00  0.00     0.257 C 
HETATM    2  O2  UNL     1      24.740  33.017  19.523  1.00  0.00    -0.270 OA
HETATM    3  N1  UNL     1      26.078  34.438  20.637  1.00  0.00    -0.345 N 
ATOM      4  H1  UNL     1      26.653  35.281  20.624  1.00  0.00     0.163 HD
ENDROOT
BRANCH   3   5
HETATM    5  C5  UNL     1      25.961  33.667  21.884  1.00  0.00     0.177 C 
BRANCH   5   6
HETATM    6  C6  UNL     1      25.730  34.555  23.059  1.00  0.00     0.038 C 
BRANCH   6   7
HETATM    7  C7  UNL     1      24.319  34.664  23.525  1.00  0.00    -0.020 C 
HETATM    8  C8  UNL     1      24.131  34.631  25.011  1.00  0.00     0.009 C 
HETATM    9  C9  UNL     1      23.796  36.017  23.031  1.00  0.00     0.009 C 
ENDBRANCH   6   7
ENDBRANCH   5   6
BRANCH   5  10
HETATM   10  C10 UNL     1      27.258  32.945  22.129  1.00  0.00     0.241 C 
HETATM   11  O3  UNL     1      27.872  33.247  23.199  1.00  0.00    -0.271 OA
HETATM   12  N2  UNL     1      27.780  31.995  21.250  1.00  0.00    -0.346 N 
ATOM     13  H2  UNL     1      27.260  31.779  20.400  1.00  0.00     0.163 HD
BRANCH  12  14
HETATM   14  C11 UNL     1      29.047  31.292  21.495  1.00  0.00     0.150 C 
BRANCH  14  15
HETATM   15  C12 UNL     1      28.798  29.843  21.700  1.00  0.00     0.074 C 
BRANCH  15  16
HETATM   16  C13 UNL     1      29.559  29.151  22.743  1.00  0.00    -0.056 A 
HETATM   17  C14 UNL     1      29.433  27.803  23.011  1.00  0.00     0.007 A 
HETATM   18  C15 UNL     1      30.162  27.180  24.009  1.00  0.00     0.001 A 
HETATM   19  C16 UNL     1      31.050  27.884  24.786  1.00  0.00     0.000 A 
HETATM   20  C17 UNL     1      31.201  29.242  24.543  1.00  0.00     0.001 A 
HETATM   21  C18 UNL     1      30.462  29.855  23.534  1.00  0.00     0.007 A 
ENDBRANCH  15  16
ENDBRANCH  14  15
BRANCH  14  22
HETATM   22  S1  UNL     1      30.140  31.692  20.132  1.00  0.00    -0.148 SA
HETATM   23  C19 UNL     1      31.307  30.394  19.725  1.00  0.00     0.092 C 
ENDBRANCH  14  22
ENDBRANCH  12  14
ENDBRANCH   5  10
ENDBRANCH   3   5
BRANCH   1  24
HETATM   24  C2  UNL     1      25.552  34.820  18.245  1.00  0.00     0.165 C 
HETATM   25  C3  UNL     1      26.273  33.764  17.314  1.00  0.00     0.062 C 
BRANCH  24  26
HETATM   26  O1  UNL     1      26.539  35.774  18.288  1.00  0.00    -0.371 OA
HETATM   27  C1  UNL     1      27.658  35.710  17.581  1.00  0.00     0.203 C 
ENDBRANCH  24  26
BRANCH  24  28
HETATM   28  C20 UNL     1      24.365  35.205  17.463  1.00  0.00     0.006 C 
BRANCH  28  29
HETATM   29  C21 UNL     1      24.548  35.671  16.070  1.00  0.00    -0.026 A 
HETATM   30  C22 UNL     1      24.940  36.984  15.766  1.00  0.00     0.012 A 
HETATM   31  C23 UNL     1      25.142  37.460  14.515  1.00  0.00     0.001 A 
HETATM   32  C24 UNL     1      24.958  36.624  13.439  1.00  0.00     0.000 A 
HETATM   33  C25 UNL     1      24.573  35.324  13.664  1.00  0.00     0.001 A 
HETATM   34  C26 UNL     1      24.378  34.877  14.954  1.00  0.00     0.012 A 
ENDBRANCH  28  29
BRANCH  28  35
HETATM   35  C27 UNL     1      23.240  35.845  18.143  1.00  0.00    -0.026 A 
HETATM   36  C28 UNL     1      23.354  36.702  19.248  1.00  0.00     0.012 A 
HETATM   37  C29 UNL     1      22.257  37.252  19.865  1.00  0.00     0.001 A 
HETATM   38  C30 UNL     1      20.982  36.987  19.430  1.00  0.00     0.000 A 
HETATM   39  C31 UNL     1      20.832  36.154  18.354  1.00  0.00     0.001 A 
HETATM   40  C32 UNL     1      21.952  35.603  17.737  1.00  0.00     0.012 A 
ENDBRANCH  28  35
ENDBRANCH  24  28
ENDBRANCH   1  24
TORSDOF 13
ENDMDL
MODEL 3
REMARK VINA RESULT: -9.239718456      1.136      1.676
REMARK  13 active torsions:
REMARK  status: ('A' for Active; 'I' for Inactive)
REMARK    1  A    between atoms: O1_2  and  C2_3 
REMARK    2  A    between atoms: C2_3  and  C4_5 
REMARK    3  A    between atoms: C2_3  and  C20_28 
REMARK       I    between atoms: C4_5  and  N1_7 
REMARK    4  A    between atoms: N1_7  and  C5_9 
REMARK    5  A    between atoms: C5_9  and  C6_10 
REMARK    6  A    between atoms: C5_9  and  C10_14 
REMARK    7  A    between atoms: C6_10  and  C7_11 
REMARK       I    between atoms: C10_14  and  N2_16 
REMARK    8  A    between atoms: N2_16  and  C11_18 
REMARK    9  A    between atoms: C11_18  and  C12_19 
REMARK   10  A    between atoms: C11_18  and  S1_26 
REMARK   11  A    between atoms: C12_19  and  C13_20 
REMARK   12  A    between atoms: C20_28  and  C21_29 
REMARK   13  A    between atoms: C20_28  and  C27_35 
ROOT
HETATM    1  C4  UNL     1      25.566  33.331  19.573  1.00  0.00     0.257 C 
HETATM    2  O2  UNL     1      24.548  32.975  20.159  1.00  0.00    -0.270 OA
HETATM    3  N1  UNL     1      26.735  33.465  20.342  1.00  0.00    -0.345 N 
ATOM      4  H1  UNL     1      27.600  33.756  19.888  1.00  0.00     0.163 HD
ENDROOT
BRANCH   3   5
HETATM    5  C5  UNL     1      26.736  33.195  21.788  1.00  0.00     0.177 C 
BRANCH   5   6
HETATM    6  C6  UNL     1      26.815  34.454  22.582  1.00  0.00     0.038 C 
BRANCH   6   7
HETATM    7  C7  UNL     1      25.610  34.790  23.392  1.00  0.00    -0.020 C 
HETATM    8  C8  UNL     1      24.527  35.519  22.656  1.00  0.00     0.009 C 
HETATM    9  C9  UNL     1      25.018  33.461  23.872  1.00  0.00     0.009 C 
ENDBRANCH   6   7
ENDBRANCH   5   6
BRANCH   5  10
HETATM   10  C10 UNL     1      27.959  32.387  22.127  1.00  0.00     0.241 C 
HETATM   11  O3  UNL     1      28.531  32.671  23.224  1.00  0.00    -0.271 OA
HETATM   12  N2  UNL     1      28.458  31.377  21.302  1.00  0.00    -0.346 N 
ATOM     13  H2  UNL     1      27.973  31.176  20.428  1.00  0.00     0.163 HD
BRANCH  12  14
HETATM   14  C11 UNL     1      29.652  30.589  21.639  1.00  0.00     0.150 C 
BRANCH  14  15
HETATM   15  C12 UNL     1      29.258  29.259  22.166  1.00  0.00     0.074 C 
BRANCH  15  16
HETATM   16  C13 UNL     1      30.317  28.329  22.561  1.00  0.00    -0.056 A 
HETATM   17  C14 UNL     1      30.448  27.057  22.041  1.00  0.00     0.007 A 
HETATM   18  C15 UNL     1      31.457  26.198  22.440  1.00  0.00     0.001 A 
HETATM   19  C16 UNL     1      32.381  26.578  23.383  1.00  0.00     0.000 A 
HETATM   20  C17 UNL     1      32.279  27.851  23.927  1.00  0.00     0.001 A 
HETATM   21  C18 UNL     1      31.259  28.704  23.514  1.00  0.00     0.007 A 
ENDBRANCH  15  16
ENDBRANCH  14  15
BRANCH  14  22
HETATM   22  S1  UNL     1      30.685  30.552  20.175  1.00  0.00    -0.148 SA
HETATM   23  C19 UNL     1      32.443  30.598  20.519  1.00  0.00     0.092 C 
ENDBRANCH  14  22
ENDBRANCH  12  14
ENDBRANCH   5  10
ENDBRANCH   3   5
BRANCH   1  24
HETATM   24  C2  UNL     1      25.594  33.604  18.145  1.00  0.00     0.165 C 
HETATM   25  C3  UNL     1      24.508  32.570  17.642  1.00  0.00     0.062 C 
BRANCH  24  26
HETATM   26  O1  UNL     1      26.690  33.096  17.492  1.00  0.00    -0.371 OA
HETATM   27  C1  UNL     1      26.917  31.801  17.329  1.00  0.00     0.203 C 
ENDBRANCH  24  26
BRANCH  24  28
HETATM   28  C20 UNL     1      25.108  34.889  17.615  1.00  0.00     0.006 C 
BRANCH  28  29
HETATM   29  C21 UNL     1      26.096  35.924  17.236  1.00  0.00    -0.026 A 
HETATM   30  C22 UNL     1      25.745  37.051  16.478  1.00  0.00     0.012 A 
HETATM   31  C23 UNL     1      26.600  38.038  16.118  1.00  0.00     0.001 A 
HETATM   32  C24 UNL     1      27.916  37.963  16.507  1.00  0.00     0.000 A 
HETATM   33  C25 UNL     1      28.331  36.884  17.252  1.00  0.00     0.001 A 
HETATM   34  C26 UNL     1      27.428  35.900  17.599  1.00  0.00     0.012 A 
ENDBRANCH  28  29
BRANCH  28  35
HETATM   35  C27 UNL     1      23.858  35.445  18.129  1.00  0.00    -0.026 A 
HETATM   36  C28 UNL     1      22.592  35.221  17.568  1.00  0.00     0.012 A 
HETATM   37  C29 UNL     1      21.452  35.795  18.078  1.00  0.00     0.001 A 
HETATM   38  C30 UNL     1      21.496  36.624  19.172  1.00  0.00     0.000 A 
HETATM   39  C31 UNL     1      22.715  36.865  19.746  1.00  0.00     0.001 A 
HETATM   40  C32 UNL     1      23.862  36.278  19.219  1.00  0.00     0.012 A 
ENDBRANCH  28  35
ENDBRANCH  24  28
ENDBRANCH   1  24
TORSDOF 13
ENDMDL
MODEL 4
REMARK VINA RESULT: -9.227566129      1.095      1.644
REMARK  13 active torsions:
REMARK  status: ('A' for Active; 'I' for Inactive)
REMARK    1  A    between atoms: O1_2  and  C2_3 
REMARK    2  A    between atoms: C2_3  and  C4_5 
REMARK    3  A    between atoms: C2_3  and  C20_28 
REMARK       I    between atoms: C4_5  and  N1_7 
REMARK    4  A    between atoms: N1_7  and  C5_9 
REMARK    5  A    between atoms: C5_9  and  C6_10 
REMARK    6  A    between atoms: C5_9  and  C10_14 
REMARK    7  A    between atoms: C6_10  and  C7_11 
REMARK       I    between atoms: C10_14  and  N2_16 
REMARK    8  A    between atoms: N2_16  and  C11_18 
REMARK    9  A    between atoms: C11_18  and  C12_19 
REMARK   10  A    between atoms: C11_18  and  S1_26 
REMARK   11  A    between atoms: C12_19  and  C13_20 
REMARK   12  A    between atoms: C20_28  and  C21_29 
REMARK   13  A    between atoms: C20_28  and  C27_35 
ROOT
HETATM    1  C4  UNL     1      25.873  33.950  20.135  1.00  0.00     0.257 C 
HETATM    2  O2  UNL     1      26.680  34.653  20.736  1.00  0.00    -0.270 OA
HETATM    3  N1  UNL     1      24.963  33.213  20.912  1.00  0.00    -0.345 N 
ATOM      4  H1  UNL     1      24.276  32.620  20.446  1.00  0.00     0.163 HD
ENDROOT
BRANCH   3   5
HETATM    5  C5  UNL     1      24.981  33.277  22.381  1.00  0.00     0.177 C 
BRANCH   5   6
HETATM    6  C6  UNL     1      25.241  34.661  22.867  1.00  0.00     0.038 C 
BRANCH   6   7
HETATM    7  C7  UNL     1      24.204  35.241  23.766  1.00  0.00    -0.020 C 
HETATM    8  C8  UNL     1      24.661  35.543  25.161  1.00  0.00     0.009 C 
HETATM    9  C9  UNL     1      23.767  36.567  23.135  1.00  0.00     0.009 C 
ENDBRANCH   6   7
ENDBRANCH   5   6
BRANCH   5  10
HETATM   10  C10 UNL     1      26.105  32.415  22.888  1.00  0.00     0.241 C 
HETATM   11  O3  UNL     1      26.071  32.122  24.123  1.00  0.00    -0.271 OA
HETATM   12  N2  UNL     1      27.138  31.951  22.073  1.00  0.00    -0.346 N 
ATOM     13  H2  UNL     1      27.133  32.208  21.085  1.00  0.00     0.163 HD
BRANCH  12  14
HETATM   14  C11 UNL     1      28.233  31.109  22.574  1.00  0.00     0.150 C 
BRANCH  14  15
HETATM   15  C12 UNL     1      29.110  30.687  21.453  1.00  0.00     0.074 C 
BRANCH  15  16
HETATM   16  C13 UNL     1      29.847  29.429  21.587  1.00  0.00    -0.056 A 
HETATM   17  C14 UNL     1      31.052  29.181  20.960  1.00  0.00     0.007 A 
HETATM   18  C15 UNL     1      31.720  27.977  21.101  1.00  0.00     0.001 A 
HETATM   19  C16 UNL     1      31.208  26.966  21.877  1.00  0.00     0.000 A 
HETATM   20  C17 UNL     1      29.997  27.182  22.521  1.00  0.00     0.001 A 
HETATM   21  C18 UNL     1      29.337  28.399  22.371  1.00  0.00     0.007 A 
ENDBRANCH  15  16
ENDBRANCH  14  15
BRANCH  14  22
HETATM   22  S1  UNL     1      29.051  32.032  23.875  1.00  0.00    -0.148 SA
HETATM   23  C19 UNL     1      30.447  31.181  24.609  1.00  0.00     0.092 C 
ENDBRANCH  14  22
ENDBRANCH  12  14
ENDBRANCH   5  10
ENDBRANCH   3   5
BRANCH   1  24
HETATM   24  C2  UNL     1      25.832  33.869  18.684  1.00  0.00     0.165 C 
HETATM   25  C3  UNL     1      24.806  32.679  18.499  1.00  0.00     0.062 C 
BRANCH  24  26
HETATM   26  O1  UNL     1      26.938  33.285  18.117  1.00  0.00    -0.371 OA
HETATM   27  C1  UNL     1      27.214  31.992  18.201  1.00  0.00     0.203 C 
ENDBRANCH  24  26
BRANCH  24  28
HETATM   28  C20 UNL     1      25.238  34.954  17.886  1.00  0.00     0.006 C 
BRANCH  28  29
HETATM   29  C21 UNL     1      26.120  36.023  17.365  1.00  0.00    -0.026 A 
HETATM   30  C22 UNL     1      25.620  37.132  16.666  1.00  0.00     0.012 A 
HETATM   31  C23 UNL     1      26.375  38.147  16.185  1.00  0.00     0.001 A 
HETATM   32  C24 UNL     1      27.736  38.123  16.376  1.00  0.00     0.000 A 
HETATM   33  C25 UNL     1      28.295  37.065  17.053  1.00  0.00     0.001 A 
HETATM   34  C26 UNL     1      27.490  36.050  17.529  1.00  0.00     0.012 A 
ENDBRANCH  28  29
BRANCH  28  35
HETATM   35  C27 UNL     1      23.892  35.424  18.212  1.00  0.00    -0.026 A 
HETATM   36  C28 UNL     1      22.739  35.131  17.468  1.00  0.00     0.012 A 
HETATM   37  C29 UNL     1      21.503  35.626  17.806  1.00  0.00     0.001 A 
HETATM   38  C30 UNL     1      21.332  36.439  18.899  1.00  0.00     0.000 A 
HETATM   39  C31 UNL     1      22.436  36.746  19.649  1.00  0.00     0.001 A 
HETATM   40  C32 UNL     1      23.682  36.239  19.295  1.00  0.00     0.012 A 
ENDBRANCH  28  35
ENDBRANCH  24  28
ENDBRANCH   1  24
TORSDOF 13
ENDMDL
MODEL 5
REMARK VINA RESULT: -9.023677672      1.831      2.569
REMARK  13 active torsions:
REMARK  status: ('A' for Active; 'I' for Inactive)
REMARK    1  A    between atoms: O1_2  and  C2_3 
REMARK    2  A    between atoms: C2_3  and  C4_5 
REMARK    3  A    between atoms: C2_3  and  C20_28 
REMARK       I    between atoms: C4_5  and  N1_7 
REMARK    4  A    between atoms: N1_7  and  C5_9 
REMARK    5  A    between atoms: C5_9  and  C6_10 
REMARK    6  A    between atoms: C5_9  and  C10_14 
REMARK    7  A    between atoms: C6_10  and  C7_11 
REMARK       I    between atoms: C10_14  and  N2_16 
REMARK    8  A    between atoms: N2_16  and  C11_18 
REMARK    9  A    between atoms: C11_18  and  C12_19 
REMARK   10  A    between atoms: C11_18  and  S1_26 
REMARK   11  A    between atoms: C12_19  and  C13_20 
REMARK   12  A    between atoms: C20_28  and  C21_29 
REMARK   13  A    between atoms: C20_28  and  C27_35 
ROOT
HETATM    1  C4  UNL     1      25.192  34.196  19.241  1.00  0.00     0.257 C 
HETATM    2  O2  UNL     1      24.666  33.088  19.302  1.00  0.00    -0.270 OA
HETATM    3  N1  UNL     1      25.679  34.739  20.442  1.00  0.00    -0.345 N 
ATOM      4  H1  UNL     1      26.125  35.656  20.430  1.00  0.00     0.163 HD
ENDROOT
BRANCH   3   5
HETATM    5  C5  UNL     1      25.559  34.015  21.717  1.00  0.00     0.177 C 
BRANCH   5   6
HETATM    6  C6  UNL     1      25.448  34.950  22.872  1.00  0.00     0.038 C 
BRANCH   6   7
HETATM    7  C7  UNL     1      24.111  35.020  23.527  1.00  0.00    -0.020 C 
HETATM    8  C8  UNL     1      24.125  34.930  25.022  1.00  0.00     0.009 C 
HETATM    9  C9  UNL     1      23.513  36.382  23.159  1.00  0.00     0.009 C 
ENDBRANCH   6   7
ENDBRANCH   5   6
BRANCH   5  10
HETATM   10  C10 UNL     1      26.808  33.203  21.929  1.00  0.00     0.241 C 
HETATM   11  O3  UNL     1      27.892  33.730  21.531  1.00  0.00    -0.271 OA
HETATM   12  N2  UNL     1      26.804  31.941  22.526  1.00  0.00    -0.346 N 
ATOM     13  H2  UNL     1      25.914  31.548  22.833  1.00  0.00     0.163 HD
BRANCH  12  14
HETATM   14  C11 UNL     1      28.027  31.153  22.732  1.00  0.00     0.150 C 
BRANCH  14  15
HETATM   15  C12 UNL     1      28.721  30.934  21.439  1.00  0.00     0.074 C 
BRANCH  15  16
HETATM   16  C13 UNL     1      29.757  29.902  21.375  1.00  0.00    -0.056 A 
HETATM   17  C14 UNL     1      30.834  29.955  20.513  1.00  0.00     0.007 A 
HETATM   18  C15 UNL     1      31.793  28.958  20.472  1.00  0.00     0.001 A 
HETATM   19  C16 UNL     1      31.714  27.860  21.294  1.00  0.00     0.000 A 
HETATM   20  C17 UNL     1      30.643  27.775  22.172  1.00  0.00     0.001 A 
HETATM   21  C18 UNL     1      29.686  28.786  22.203  1.00  0.00     0.007 A 
ENDBRANCH  15  16
ENDBRANCH  14  15
BRANCH  14  22
HETATM   22  S1  UNL     1      28.993  32.001  23.981  1.00  0.00    -0.148 SA
HETATM   23  C19 UNL     1      28.014  32.944  25.149  1.00  0.00     0.092 C 
ENDBRANCH  14  22
ENDBRANCH  12  14
ENDBRANCH   5  10
ENDBRANCH   3   5
BRANCH   1  24
HETATM   24  C2  UNL     1      25.325  34.934  17.996  1.00  0.00     0.165 C 
HETATM   25  C3  UNL     1      26.116  33.875  17.126  1.00  0.00     0.062 C 
BRANCH  24  26
HETATM   26  O1  UNL     1      26.269  35.931  18.026  1.00  0.00    -0.371 OA
HETATM   27  C1  UNL     1      27.479  35.818  17.500  1.00  0.00     0.203 C 
ENDBRANCH  24  26
BRANCH  24  28
HETATM   28  C20 UNL     1      24.144  35.234  17.170  1.00  0.00     0.006 C 
BRANCH  28  29
HETATM   29  C21 UNL     1      24.345  35.703  15.780  1.00  0.00    -0.026 A 
HETATM   30  C22 UNL     1      24.705  37.025  15.481  1.00  0.00     0.012 A 
HETATM   31  C23 UNL     1      24.921  37.505  14.233  1.00  0.00     0.001 A 
HETATM   32  C24 UNL     1      24.787  36.661  13.156  1.00  0.00     0.000 A 
HETATM   33  C25 UNL     1      24.435  35.350  13.376  1.00  0.00     0.001 A 
HETATM   34  C26 UNL     1      24.224  34.901  14.663  1.00  0.00     0.012 A 
ENDBRANCH  28  29
BRANCH  28  35
HETATM   35  C27 UNL     1      22.956  35.803  17.805  1.00  0.00    -0.026 A 
HETATM   36  C28 UNL     1      22.971  36.619  18.946  1.00  0.00     0.012 A 
HETATM   37  C29 UNL     1      21.819  37.102  19.517  1.00  0.00     0.001 A 
HETATM   38  C30 UNL     1      20.583  36.806  18.996  1.00  0.00     0.000 A 
HETATM   39  C31 UNL     1      20.530  36.011  17.882  1.00  0.00     0.001 A 
HETATM   40  C32 UNL     1      21.706  35.529  17.314  1.00  0.00     0.012 A 
ENDBRANCH  28  35
ENDBRANCH  24  28
ENDBRANCH   1  24
TORSDOF 13
ENDMDL
