MODEL 1
REMARK VINA RESULT: -7.155994272      0.000      0.000
REMARK  7 active torsions:
REMARK  status: ('A' for Active; 'I' for Inactive)
REMARK    1  A    between atoms: C3_3  and  N1_4 
REMARK       I    between atoms: C4_6  and  N2_7 
REMARK       I    between atoms: C4_6  and  N4_12 
REMARK    2  A    between atoms: N2_7  and  N3_9 
REMARK    3  A    between atoms: N4_12  and  C5_14 
REMARK    4  A    between atoms: C5_14  and  C6_15 
REMARK    5  A    between atoms: C6_15  and  C7_16 
REMARK    6  A    between atoms: C7_16  and  N5_17 
REMARK    7  A    between atoms: N5_17  and  C8_19 
ROOT
HETATM    1  C1  UNL     1      -9.651  39.953   5.281  1.00  0.00     0.014 C 
HETATM    2  C2  UNL     1      -9.920  40.067   6.455  1.00  0.00    -0.097 C 
HETATM    3  C3  UNL     1     -10.221  40.215   7.877  1.00  0.00     0.231 C 
ENDROOT
BRANCH   3   4
HETATM    4  N1  UNL     1     -11.630  40.470   8.075  1.00  0.00    -0.215 N 
HETATM    5  C4  UNL     1     -12.325  39.618   8.737  1.00  0.00     0.688 C 
HETATM    6  N2  UNL     1     -11.714  38.449   9.264  1.00  0.00    -0.139 N 
HETATM    7  N4  UNL     1     -13.718  39.869   8.942  1.00  0.00    -0.225 N 
ATOM      8  H2  UNL     1     -10.779  38.483   9.669  1.00  0.00     0.205 HD
ATOM      9  H4  UNL     1     -14.276  40.255   8.180  1.00  0.00     0.177 HD
ATOM     10  H1  UNL     1     -12.064  41.312   7.695  1.00  0.00     0.178 HD
BRANCH   6  11
HETATM   11  N3  UNL     1     -12.430  37.257   9.211  1.00  0.00    -0.331 N 
ATOM     12  H32 UNL     1     -12.119  36.501   8.602  1.00  0.00     0.177 HD
ATOM     13  H31 UNL     1     -13.262  37.172   9.796  1.00  0.00     0.177 HD
ENDBRANCH   6  11
BRANCH   7  14
HETATM   14  C5  UNL     1     -14.339  39.590  10.195  1.00  0.00     0.139 C 
BRANCH  14  15
HETATM   15  C6  UNL     1     -13.885  40.508  11.303  1.00  0.00     0.040 C 
BRANCH  15  16
HETATM   16  C7  UNL     1     -15.033  41.206  11.976  1.00  0.00     0.124 C 
BRANCH  16  17
HETATM   17  N5  UNL     1     -14.924  42.644  11.970  1.00  0.00    -0.362 N 
ATOM     18  H5  UNL     1     -14.385  43.108  12.701  1.00  0.00     0.162 HD
BRANCH  17  19
HETATM   19  C8  UNL     1     -15.563  43.437  10.947  1.00  0.00     0.171 C 
HETATM   20  N6  UNL     1     -16.400  42.956  10.093  1.00  0.00    -0.361 N 
HETATM   21  C9  UNL     1     -16.884  43.970   9.189  1.00  0.00     0.142 C 
ATOM     22  H6  UNL     1     -16.685  41.977  10.060  1.00  0.00     0.162 HD
HETATM   23  C10 UNL     1     -16.085  45.205   9.514  1.00  0.00     0.142 C 
HETATM   24  N7  UNL     1     -15.390  44.828  10.714  1.00  0.00    -0.361 N 
ATOM     25  H7  UNL     1     -14.855  45.462  11.308  1.00  0.00     0.162 HD
ENDBRANCH  17  19
ENDBRANCH  16  17
ENDBRANCH  15  16
ENDBRANCH  14  15
ENDBRANCH   7  14
ENDBRANCH   3   4
TORSDOF 7
ENDMDL
MODEL 2
REMARK VINA RESULT: -7.119308477      1.747      2.320
REMARK  7 active torsions:
REMARK  status: ('A' for Active; 'I' for Inactive)
REMARK    1  A    between atoms: C3_3  and  N1_4 
REMARK       I    between atoms: C4_6  and  N2_7 
REMARK       I    between atoms: C4_6  and  N4_12 
REMARK    2  A    between atoms: N2_7  and  N3_9 
REMARK    3  A    between atoms: N4_12  and  C5_14 
REMARK    4  A    between atoms: C5_14  and  C6_15 
REMARK    5  A    between atoms: C6_15  and  C7_16 
REMARK    6  A    between atoms: C7_16  and  N5_17 
REMARK    7  A    between atoms: N5_17  and  C8_19 
ROOT
HETATM    1  C1  UNL     1      -9.861  40.371   6.182  1.00  0.00     0.014 C 
HETATM    2  C2  UNL     1     -10.280  40.031   7.265  1.00  0.00    -0.097 C 
HETATM    3  C3  UNL     1     -10.782  39.645   8.581  1.00  0.00     0.231 C 
ENDROOT
BRANCH   3   4
HETATM    4  N1  UNL     1     -11.774  38.600   8.460  1.00  0.00    -0.215 N 
HETATM    5  C4  UNL     1     -12.675  38.495   9.370  1.00  0.00     0.688 C 
HETATM    6  N2  UNL     1     -12.690  39.393  10.469  1.00  0.00    -0.139 N 
HETATM    7  N4  UNL     1     -13.663  37.468   9.251  1.00  0.00    -0.225 N 
ATOM      8  H2  UNL     1     -12.477  40.382  10.343  1.00  0.00     0.205 HD
ATOM      9  H4  UNL     1     -13.388  36.541   8.927  1.00  0.00     0.177 HD
ATOM     10  H1  UNL     1     -11.759  37.958   7.667  1.00  0.00     0.178 HD
BRANCH   6  11
HETATM   11  N3  UNL     1     -13.005  38.883  11.725  1.00  0.00    -0.331 N 
ATOM     12  H32 UNL     1     -13.219  37.892  11.835  1.00  0.00     0.177 HD
ATOM     13  H31 UNL     1     -13.013  39.527  12.516  1.00  0.00     0.177 HD
ENDBRANCH   6  11
BRANCH   7  14
HETATM   14  C5  UNL     1     -15.028  37.720   9.578  1.00  0.00     0.139 C 
BRANCH  14  15
HETATM   15  C6  UNL     1     -15.637  38.840   8.770  1.00  0.00     0.040 C 
BRANCH  15  16
HETATM   16  C7  UNL     1     -16.132  39.966   9.633  1.00  0.00     0.124 C 
BRANCH  16  17
HETATM   17  N5  UNL     1     -16.790  41.017   8.897  1.00  0.00    -0.362 N 
ATOM     18  H5  UNL     1     -17.144  40.826   7.960  1.00  0.00     0.162 HD
BRANCH  17  19
HETATM   19  C8  UNL     1     -16.957  42.334   9.464  1.00  0.00     0.171 C 
HETATM   20  N6  UNL     1     -16.078  43.272   9.357  1.00  0.00    -0.361 N 
HETATM   21  C9  UNL     1     -16.503  44.481  10.017  1.00  0.00     0.142 C 
ATOM     22  H6  UNL     1     -15.191  43.170   8.865  1.00  0.00     0.162 HD
HETATM   23  C10 UNL     1     -17.784  44.118  10.722  1.00  0.00     0.142 C 
HETATM   24  N7  UNL     1     -18.070  42.807  10.209  1.00  0.00    -0.361 N 
ATOM     25  H7  UNL     1     -18.940  42.295  10.356  1.00  0.00     0.162 HD
ENDBRANCH  17  19
ENDBRANCH  16  17
ENDBRANCH  15  16
ENDBRANCH  14  15
ENDBRANCH   7  14
ENDBRANCH   3   4
TORSDOF 7
ENDMDL
MODEL 3
REMARK VINA RESULT: -7.089123929      1.435      1.571
REMARK  7 active torsions:
REMARK  status: ('A' for Active; 'I' for Inactive)
REMARK    1  A    between atoms: C3_3  and  N1_4 
REMARK       I    between atoms: C4_6  and  N2_7 
REMARK       I    between atoms: C4_6  and  N4_12 
REMARK    2  A    between atoms: N2_7  and  N3_9 
REMARK    3  A    between atoms: N4_12  and  C5_14 
REMARK    4  A    between atoms: C5_14  and  C6_15 
REMARK    5  A    between atoms: C6_15  and  C7_16 
REMARK    6  A    between atoms: C7_16  and  N5_17 
REMARK    7  A    between atoms: N5_17  and  C8_19 
ROOT
HETATM    1  C1  UNL     1      -9.586  40.010   5.688  1.00  0.00     0.014 C 
HETATM    2  C2  UNL     1     -10.118  40.177   6.761  1.00  0.00    -0.097 C 
HETATM    3  C3  UNL     1     -10.741  40.397   8.064  1.00  0.00     0.231 C 
ENDROOT
BRANCH   3   4
HETATM    4  N1  UNL     1     -12.180  40.322   7.959  1.00  0.00    -0.215 N 
HETATM    5  C4  UNL     1     -12.796  39.373   8.568  1.00  0.00     0.688 C 
HETATM    6  N2  UNL     1     -12.069  38.422   9.331  1.00  0.00    -0.139 N 
HETATM    7  N4  UNL     1     -14.221  39.299   8.474  1.00  0.00    -0.225 N 
ATOM      8  H2  UNL     1     -11.272  38.704   9.901  1.00  0.00     0.205 HD
ATOM      9  H4  UNL     1     -14.676  39.489   7.580  1.00  0.00     0.177 HD
ATOM     10  H1  UNL     1     -12.698  41.009   7.410  1.00  0.00     0.178 HD
BRANCH   6  11
HETATM   11  N3  UNL     1     -12.478  37.093   9.278  1.00  0.00    -0.331 N 
ATOM     12  H32 UNL     1     -11.926  36.370   9.741  1.00  0.00     0.177 HD
ATOM     13  H31 UNL     1     -13.334  36.874   8.769  1.00  0.00     0.177 HD
ENDBRANCH   6  11
BRANCH   7  14
HETATM   14  C5  UNL     1     -15.017  38.963   9.608  1.00  0.00     0.139 C 
BRANCH  14  15
HETATM   15  C6  UNL     1     -14.951  39.994  10.709  1.00  0.00     0.040 C 
BRANCH  15  16
HETATM   16  C7  UNL     1     -15.331  41.367  10.231  1.00  0.00     0.124 C 
BRANCH  16  17
HETATM   17  N5  UNL     1     -16.652  41.438   9.657  1.00  0.00    -0.362 N 
ATOM     18  H5  UNL     1     -17.186  40.580   9.522  1.00  0.00     0.162 HD
BRANCH  17  19
HETATM   19  C8  UNL     1     -17.231  42.703   9.271  1.00  0.00     0.171 C 
HETATM   20  N6  UNL     1     -18.501  42.911   9.193  1.00  0.00    -0.361 N 
HETATM   21  C9  UNL     1     -18.798  44.261   8.786  1.00  0.00     0.142 C 
ATOM     22  H6  UNL     1     -19.209  42.205   9.395  1.00  0.00     0.162 HD
HETATM   23  C10 UNL     1     -17.464  44.879   8.458  1.00  0.00     0.142 C 
HETATM   24  N7  UNL     1     -16.532  43.890   8.925  1.00  0.00    -0.361 N 
ATOM     25  H7  UNL     1     -15.522  44.021   8.997  1.00  0.00     0.162 HD
ENDBRANCH  17  19
ENDBRANCH  16  17
ENDBRANCH  15  16
ENDBRANCH  14  15
ENDBRANCH   7  14
ENDBRANCH   3   4
TORSDOF 7
ENDMDL
MODEL 4
REMARK VINA RESULT: -7.088848370      1.632      1.976
REMARK  7 active torsions:
REMARK  status: ('A' for Active; 'I' for Inactive)
REMARK    1  A    between atoms: C3_3  and  N1_4 
REMARK       I    between atoms: C4_6  and  N2_7 
REMARK       I    between atoms: C4_6  and  N4_12 
REMARK    2  A    between atoms: N2_7  and  N3_9 
REMARK    3  A    between atoms: N4_12  and  C5_14 
REMARK    4  A    between atoms: C5_14  and  C6_15 
REMARK    5  A    between atoms: C6_15  and  C7_16 
REMARK    6  A    between atoms: C7_16  and  N5_17 
REMARK    7  A    between atoms: N5_17  and  C8_19 
ROOT
HETATM    1  C1  UNL     1     -10.063  40.549   6.490  1.00  0.00     0.014 C 
HETATM    2  C2  UNL     1     -10.794  39.913   7.214  1.00  0.00    -0.097 C 
HETATM    3  C3  UNL     1     -11.656  39.135   8.101  1.00  0.00     0.231 C 
ENDROOT
BRANCH   3   4
HETATM    4  N1  UNL     1     -12.912  39.818   8.317  1.00  0.00    -0.215 N 
HETATM    5  C4  UNL     1     -13.836  39.218   8.977  1.00  0.00     0.688 C 
HETATM    6  N2  UNL     1     -13.620  37.910   9.484  1.00  0.00    -0.139 N 
HETATM    7  N4  UNL     1     -15.077  39.892   9.200  1.00  0.00    -0.225 N 
ATOM      8  H2  UNL     1     -12.719  37.642   9.879  1.00  0.00     0.205 HD
ATOM      9  H4  UNL     1     -15.491  40.445   8.448  1.00  0.00     0.177 HD
ATOM     10  H1  UNL     1     -13.061  40.759   7.951  1.00  0.00     0.178 HD
BRANCH   6  11
HETATM   11  N3  UNL     1     -14.674  37.004   9.427  1.00  0.00    -0.331 N 
ATOM     12  H32 UNL     1     -14.656  36.242   8.749  1.00  0.00     0.177 HD
ATOM     13  H31 UNL     1     -15.451  37.131  10.076  1.00  0.00     0.177 HD
ENDBRANCH   6  11
BRANCH   7  14
HETATM   14  C5  UNL     1     -15.746  39.805  10.456  1.00  0.00     0.139 C 
BRANCH  14  15
HETATM   15  C6  UNL     1     -15.234  40.795  11.474  1.00  0.00     0.040 C 
BRANCH  15  16
HETATM   16  C7  UNL     1     -15.644  42.206  11.157  1.00  0.00     0.124 C 
BRANCH  16  17
HETATM   17  N5  UNL     1     -17.072  42.407  11.141  1.00  0.00    -0.362 N 
ATOM     18  H5  UNL     1     -17.627  42.125  11.948  1.00  0.00     0.162 HD
BRANCH  17  19
HETATM   19  C8  UNL     1     -17.728  43.001  10.000  1.00  0.00     0.171 C 
HETATM   20  N6  UNL     1     -17.820  42.424   8.851  1.00  0.00    -0.361 N 
HETATM   21  C9  UNL     1     -18.526  43.242   7.896  1.00  0.00     0.142 C 
ATOM     22  H6  UNL     1     -17.440  41.500   8.643  1.00  0.00     0.162 HD
HETATM   23  C10 UNL     1     -18.759  44.556   8.596  1.00  0.00     0.142 C 
HETATM   24  N7  UNL     1     -18.361  44.272   9.947  1.00  0.00    -0.361 N 
ATOM     25  H7  UNL     1     -18.511  44.888  10.746  1.00  0.00     0.162 HD
ENDBRANCH  17  19
ENDBRANCH  16  17
ENDBRANCH  15  16
ENDBRANCH  14  15
ENDBRANCH   7  14
ENDBRANCH   3   4
TORSDOF 7
ENDMDL
MODEL 5
REMARK VINA RESULT: -7.059535887      1.131      1.350
REMARK  7 active torsions:
REMARK  status: ('A' for Active; 'I' for Inactive)
REMARK    1  A    between atoms: C3_3  and  N1_4 
REMARK       I    between atoms: C4_6  and  N2_7 
REMARK       I    between atoms: C4_6  and  N4_12 
REMARK    2  A    between atoms: N2_7  and  N3_9 
REMARK    3  A    between atoms: N4_12  and  C5_14 
REMARK    4  A    between atoms: C5_14  and  C6_15 
REMARK    5  A    between atoms: C6_15  and  C7_16 
REMARK    6  A    between atoms: C7_16  and  N5_17 
REMARK    7  A    between atoms: N5_17  and  C8_19 
ROOT
HETATM    1  C1  UNL     1      -9.807  40.690   6.891  1.00  0.00     0.014 C 
HETATM    2  C2  UNL     1     -10.628  39.974   7.415  1.00  0.00    -0.097 C 
HETATM    3  C3  UNL     1     -11.602  39.096   8.061  1.00  0.00     0.231 C 
ENDROOT
BRANCH   3   4
HETATM    4  N1  UNL     1     -12.842  39.800   8.296  1.00  0.00    -0.215 N 
HETATM    5  C4  UNL     1     -13.766  39.214   8.969  1.00  0.00     0.688 C 
HETATM    6  N2  UNL     1     -13.565  37.902   9.471  1.00  0.00    -0.139 N 
HETATM    7  N4  UNL     1     -14.993  39.909   9.212  1.00  0.00    -0.225 N 
ATOM      8  H2  UNL     1     -12.663  37.618   9.852  1.00  0.00     0.205 HD
ATOM      9  H4  UNL     1     -15.409  40.469   8.467  1.00  0.00     0.177 HD
ATOM     10  H1  UNL     1     -12.982  40.744   7.934  1.00  0.00     0.178 HD
BRANCH   6  11
HETATM   11  N3  UNL     1     -14.635  37.014   9.428  1.00  0.00    -0.331 N 
ATOM     12  H32 UNL     1     -15.404  37.172   8.777  1.00  0.00     0.177 HD
ATOM     13  H31 UNL     1     -14.620  36.214  10.060  1.00  0.00     0.177 HD
ENDBRANCH   6  11
BRANCH   7  14
HETATM   14  C5  UNL     1     -15.645  39.830  10.477  1.00  0.00     0.139 C 
BRANCH  14  15
HETATM   15  C6  UNL     1     -15.048  40.752  11.513  1.00  0.00     0.040 C 
BRANCH  15  16
HETATM   16  C7  UNL     1     -16.024  41.793  11.984  1.00  0.00     0.124 C 
BRANCH  16  17
HETATM   17  N5  UNL     1     -15.617  43.146  11.691  1.00  0.00    -0.362 N 
ATOM     18  H5  UNL     1     -14.945  43.610  12.300  1.00  0.00     0.162 HD
BRANCH  17  19
HETATM   19  C8  UNL     1     -16.146  43.853  10.548  1.00  0.00     0.171 C 
HETATM   20  N6  UNL     1     -16.916  43.309   9.668  1.00  0.00    -0.361 N 
HETATM   21  C9  UNL     1     -17.295  44.244   8.638  1.00  0.00     0.142 C 
ATOM     22  H6  UNL     1     -17.221  42.336   9.698  1.00  0.00     0.162 HD
HETATM   23  C10 UNL     1     -16.498  45.491   8.922  1.00  0.00     0.142 C 
HETATM   24  N7  UNL     1     -15.921  45.214  10.208  1.00  0.00    -0.361 N 
ATOM     25  H7  UNL     1     -15.424  45.891  10.789  1.00  0.00     0.162 HD
ENDBRANCH  17  19
ENDBRANCH  16  17
ENDBRANCH  15  16
ENDBRANCH  14  15
ENDBRANCH   7  14
ENDBRANCH   3   4
TORSDOF 7
ENDMDL
