MODEL 1
REMARK VINA RESULT: -6.978765716      0.000      0.000
REMARK  7 active torsions:
REMARK  status: ('A' for Active; 'I' for Inactive)
REMARK    1  A    between atoms: N3_4  and  N4_6 
REMARK       I    between atoms: N4_6  and  C2_8 
REMARK    2  A    between atoms: C2_8  and  C3_10 
REMARK    3  A    between atoms: N5_14  and  S1_15 
REMARK    4  A    between atoms: S1_15  and  C7_16 
REMARK    5  A    between atoms: C8_21  and  N8_22 
REMARK    6  A    between atoms: C8_21  and  C9_25 
REMARK    7  A    between atoms: N8_22  and  O3_23 
ROOT
HETATM    1  C7  UNL     1      20.225  31.543  20.941  1.00  0.00     0.144 C 
HETATM    2  N6  UNL     1      20.948  32.431  20.330  1.00  0.00    -0.237 N 
ATOM      3  H6  UNL     1      20.834  33.439  20.436  1.00  0.00     0.197 HD
HETATM    4  O2  UNL     1      21.880  31.841  19.528  1.00  0.00    -0.161 OA
HETATM    5  N7  UNL     1      21.508  30.555  19.307  1.00  0.00    -0.027 NA
HETATM    6  C8  UNL     1      20.738  30.238  20.494  1.00  0.00     0.266 C 
ENDROOT
BRANCH   1   7
HETATM    7  S1  UNL     1      18.883  31.882  22.093  1.00  0.00     0.013 SA
BRANCH   7   8
HETATM    8  N5  UNL     1      17.368  31.955  21.196  1.00  0.00    -0.286 N 
HETATM    9  C3  UNL     1      16.877  33.080  20.608  1.00  0.00     0.115 A 
HETATM   10  C4  UNL     1      15.682  32.756  20.003  1.00  0.00     0.038 A 
HETATM   11  C5  UNL     1      15.423  31.398  20.223  1.00  0.00     0.021 A 
HETATM   12  C6  UNL     1      16.499  30.956  20.964  1.00  0.00     0.105 A 
BRANCH   9  13
HETATM   13  C2  UNL     1      17.517  34.384  20.623  1.00  0.00     0.287 C 
HETATM   14  N4  UNL     1      18.188  34.851  19.465  1.00  0.00    -0.262 N 
ATOM     15  H4  UNL     1      18.204  34.251  18.641  1.00  0.00     0.190 HD
HETATM   16  O1  UNL     1      17.492  35.109  21.635  1.00  0.00    -0.264 OA
BRANCH  14  17
HETATM   17  N3  UNL     1      18.822  36.079  19.394  1.00  0.00    -0.273 N 
HETATM   18  C1  UNL     1      20.047  36.155  19.017  1.00  0.00     0.215 C 
HETATM   19  N1  UNL     1      20.733  37.397  18.931  1.00  0.00    -0.065 NA
HETATM   20  N2  UNL     1      20.736  34.968  18.675  1.00  0.00    -0.065 NA
ATOM     21  H3  UNL     1      18.314  36.927  19.643  1.00  0.00     0.189 HD
ENDBRANCH  14  17
ENDBRANCH   9  13
ENDBRANCH   7   8
ENDBRANCH   1   7
BRANCH   6  22
HETATM   22  N8  UNL     1      21.643  29.662  21.468  1.00  0.00    -0.057 NA
BRANCH  22  23
HETATM   23  O3  UNL     1      22.294  30.683  22.084  1.00  0.00    -0.293 OA
ATOM     24  H3  UNL     1      23.214  30.619  21.856  1.00  0.00     0.238 HD
ENDBRANCH  22  23
ENDBRANCH   6  22
BRANCH   6  25
HETATM   25  C9  UNL     1      19.673  29.269  20.192  1.00  0.00     0.166 A 
HETATM   26  N9  UNL     1      18.885  29.137  19.124  1.00  0.00    -0.269 N 
HETATM   27  N10 UNL     1      18.075  28.096  19.334  1.00  0.00    -0.227 N 
ATOM     28  H9  UNL     1      18.899  29.727  18.293  1.00  0.00     0.190 HD
HETATM   29  N11 UNL     1      18.334  27.565  20.514  1.00  0.00    -0.227 N 
ATOM     30  H10 UNL     1      17.365  27.763  18.682  1.00  0.00     0.210 HD
HETATM   31  N12 UNL     1      19.307  28.280  21.035  1.00  0.00    -0.269 N 
ATOM     32  H11 UNL     1      17.872  26.761  20.937  1.00  0.00     0.210 HD
ATOM     33  H12 UNL     1      19.728  28.111  21.949  1.00  0.00     0.190 HD
ENDBRANCH   6  25
TORSDOF 7
ENDMDL
MODEL 2
REMARK VINA RESULT: -6.929816313      2.985      5.382
REMARK  7 active torsions:
REMARK  status: ('A' for Active; 'I' for Inactive)
REMARK    1  A    between atoms: N3_4  and  N4_6 
REMARK       I    between atoms: N4_6  and  C2_8 
REMARK    2  A    between atoms: C2_8  and  C3_10 
REMARK    3  A    between atoms: N5_14  and  S1_15 
REMARK    4  A    between atoms: S1_15  and  C7_16 
REMARK    5  A    between atoms: C8_21  and  N8_22 
REMARK    6  A    between atoms: C8_21  and  C9_25 
REMARK    7  A    between atoms: N8_22  and  O3_23 
ROOT
HETATM    1  C7  UNL     1      16.895  32.773  19.982  1.00  0.00     0.144 C 
HETATM    2  N6  UNL     1      16.486  32.042  18.991  1.00  0.00    -0.237 N 
ATOM      3  H6  UNL     1      16.862  32.092  18.044  1.00  0.00     0.197 HD
HETATM    4  O2  UNL     1      15.488  31.198  19.380  1.00  0.00    -0.161 OA
HETATM    5  N7  UNL     1      14.965  31.656  20.546  1.00  0.00    -0.027 NA
HETATM    6  C8  UNL     1      16.082  32.364  21.139  1.00  0.00     0.266 C 
ENDROOT
BRANCH   1   7
HETATM    7  S1  UNL     1      18.194  34.018  19.913  1.00  0.00     0.013 SA
BRANCH   7   8
HETATM    8  N5  UNL     1      19.698  33.304  20.490  1.00  0.00    -0.286 N 
HETATM    9  C3  UNL     1      20.936  33.815  20.242  1.00  0.00     0.115 A 
HETATM   10  C4  UNL     1      21.863  32.994  20.849  1.00  0.00     0.038 A 
HETATM   11  C5  UNL     1      21.185  31.949  21.486  1.00  0.00     0.021 A 
HETATM   12  C6  UNL     1      19.852  32.194  21.231  1.00  0.00     0.105 A 
BRANCH   9  13
HETATM   13  C2  UNL     1      21.211  35.016  19.473  1.00  0.00     0.287 C 
HETATM   14  N4  UNL     1      21.225  36.277  20.120  1.00  0.00    -0.262 N 
ATOM     15  H4  UNL     1      21.038  36.307  21.123  1.00  0.00     0.190 HD
HETATM   16  O1  UNL     1      21.437  34.967  18.249  1.00  0.00    -0.264 OA
BRANCH  14  17
HETATM   17  N3  UNL     1      21.478  37.469  19.464  1.00  0.00    -0.273 N 
HETATM   18  C1  UNL     1      22.041  38.442  20.083  1.00  0.00     0.215 C 
HETATM   19  N1  UNL     1      22.317  39.682  19.443  1.00  0.00    -0.065 NA
HETATM   20  N2  UNL     1      22.399  38.279  21.441  1.00  0.00    -0.065 NA
ATOM     21  H3  UNL     1      21.215  37.574  18.485  1.00  0.00     0.189 HD
ENDBRANCH  14  17
ENDBRANCH   9  13
ENDBRANCH   7   8
ENDBRANCH   1   7
BRANCH   6  22
HETATM   22  N8  UNL     1      16.798  31.433  21.988  1.00  0.00    -0.057 NA
BRANCH  22  23
HETATM   23  O3  UNL     1      16.861  30.244  21.336  1.00  0.00    -0.293 OA
ATOM     24  H3  UNL     1      17.631  30.260  20.779  1.00  0.00     0.238 HD
ENDBRANCH  22  23
ENDBRANCH   6  22
BRANCH   6  25
HETATM   25  C9  UNL     1      15.617  33.500  21.951  1.00  0.00     0.166 A 
HETATM   26  N9  UNL     1      16.152  34.087  23.023  1.00  0.00    -0.269 N 
HETATM   27  N10 UNL     1      15.342  35.082  23.396  1.00  0.00    -0.227 N 
ATOM     28  H9  UNL     1      17.025  33.823  23.478  1.00  0.00     0.190 HD
HETATM   29  N11 UNL     1      14.306  35.138  22.582  1.00  0.00    -0.227 N 
ATOM     30  H10 UNL     1      15.502  35.703  24.189  1.00  0.00     0.210 HD
HETATM   31  N12 UNL     1      14.474  34.174  21.702  1.00  0.00    -0.269 N 
ATOM     32  H11 UNL     1      13.529  35.796  22.625  1.00  0.00     0.210 HD
ATOM     33  H12 UNL     1      13.832  33.965  20.939  1.00  0.00     0.190 HD
ENDBRANCH   6  25
TORSDOF 7
ENDMDL
MODEL 3
REMARK VINA RESULT: -6.914923087      2.433      5.705
REMARK  7 active torsions:
REMARK  status: ('A' for Active; 'I' for Inactive)
REMARK    1  A    between atoms: N3_4  and  N4_6 
REMARK       I    between atoms: N4_6  and  C2_8 
REMARK    2  A    between atoms: C2_8  and  C3_10 
REMARK    3  A    between atoms: N5_14  and  S1_15 
REMARK    4  A    between atoms: S1_15  and  C7_16 
REMARK    5  A    between atoms: C8_21  and  N8_22 
REMARK    6  A    between atoms: C8_21  and  C9_25 
REMARK    7  A    between atoms: N8_22  and  O3_23 
ROOT
HETATM    1  C7  UNL     1      20.163  33.972  22.089  1.00  0.00     0.144 C 
HETATM    2  N6  UNL     1      21.218  34.708  22.258  1.00  0.00    -0.237 N 
ATOM      3  H6  UNL     1      22.079  34.387  22.700  1.00  0.00     0.197 HD
HETATM    4  O2  UNL     1      21.025  35.966  21.768  1.00  0.00    -0.161 OA
HETATM    5  N7  UNL     1      19.691  36.177  21.630  1.00  0.00    -0.027 NA
HETATM    6  C8  UNL     1      19.179  34.838  21.418  1.00  0.00     0.266 C 
ENDROOT
BRANCH   1   7
HETATM    7  S1  UNL     1      19.982  32.250  22.585  1.00  0.00     0.013 SA
BRANCH   7   8
HETATM    8  N5  UNL     1      20.328  31.219  21.199  1.00  0.00    -0.286 N 
HETATM    9  C3  UNL     1      19.416  30.402  20.603  1.00  0.00     0.115 A 
HETATM   10  C4  UNL     1      20.044  29.756  19.559  1.00  0.00     0.038 A 
HETATM   11  C5  UNL     1      21.376  30.180  19.507  1.00  0.00     0.021 A 
HETATM   12  C6  UNL     1      21.493  31.083  20.543  1.00  0.00     0.105 A 
BRANCH   9  13
HETATM   13  C2  UNL     1      18.029  30.253  21.009  1.00  0.00     0.287 C 
HETATM   14  N4  UNL     1      17.001  30.825  20.219  1.00  0.00    -0.262 N 
ATOM     15  H4  UNL     1      17.266  31.334  19.376  1.00  0.00     0.190 HD
HETATM   16  O1  UNL     1      17.717  29.630  22.041  1.00  0.00    -0.264 OA
BRANCH  14  17
HETATM   17  N3  UNL     1      15.656  30.731  20.532  1.00  0.00    -0.273 N 
HETATM   18  C1  UNL     1      14.904  31.770  20.482  1.00  0.00     0.215 C 
HETATM   19  N1  UNL     1      13.519  31.713  20.797  1.00  0.00    -0.065 NA
HETATM   20  N2  UNL     1      15.469  33.009  20.103  1.00  0.00    -0.065 NA
ATOM     21  H3  UNL     1      15.261  29.831  20.804  1.00  0.00     0.189 HD
ENDBRANCH  14  17
ENDBRANCH   9  13
ENDBRANCH   7   8
ENDBRANCH   1   7
BRANCH   6  22
HETATM   22  N8  UNL     1      19.147  34.596  19.989  1.00  0.00    -0.057 NA
BRANCH  22  23
HETATM   23  O3  UNL     1      18.157  33.700  19.743  1.00  0.00    -0.293 OA
ATOM     24  H3  UNL     1      17.330  34.115  19.960  1.00  0.00     0.238 HD
ENDBRANCH  22  23
ENDBRANCH   6  22
BRANCH   6  25
HETATM   25  C9  UNL     1      17.819  34.698  21.961  1.00  0.00     0.166 A 
HETATM   26  N9  UNL     1      17.258  33.727  22.683  1.00  0.00    -0.269 N 
HETATM   27  N10 UNL     1      15.992  34.073  22.930  1.00  0.00    -0.227 N 
ATOM     28  H9  UNL     1      17.716  32.870  22.991  1.00  0.00     0.190 HD
HETATM   29  N11 UNL     1      15.739  35.245  22.380  1.00  0.00    -0.227 N 
ATOM     30  H10 UNL     1      15.324  33.516  23.462  1.00  0.00     0.210 HD
HETATM   31  N12 UNL     1      16.852  35.625  21.791  1.00  0.00    -0.269 N 
ATOM     32  H11 UNL     1      14.856  35.754  22.407  1.00  0.00     0.210 HD
ATOM     33  H12 UNL     1      16.968  36.498  21.277  1.00  0.00     0.190 HD
ENDBRANCH   6  25
TORSDOF 7
ENDMDL
MODEL 4
REMARK VINA RESULT: -6.841930100      1.642      2.881
REMARK  7 active torsions:
REMARK  status: ('A' for Active; 'I' for Inactive)
REMARK    1  A    between atoms: N3_4  and  N4_6 
REMARK       I    between atoms: N4_6  and  C2_8 
REMARK    2  A    between atoms: C2_8  and  C3_10 
REMARK    3  A    between atoms: N5_14  and  S1_15 
REMARK    4  A    between atoms: S1_15  and  C7_16 
REMARK    5  A    between atoms: C8_21  and  N8_22 
REMARK    6  A    between atoms: C8_21  and  C9_25 
REMARK    7  A    between atoms: N8_22  and  O3_23 
ROOT
HETATM    1  C7  UNL     1      19.503  29.974  20.780  1.00  0.00     0.144 C 
HETATM    2  N6  UNL     1      19.147  29.165  21.729  1.00  0.00    -0.237 N 
ATOM      3  H6  UNL     1      18.625  29.445  22.560  1.00  0.00     0.197 HD
HETATM    4  O2  UNL     1      19.560  27.890  21.473  1.00  0.00    -0.161 OA
HETATM    5  N7  UNL     1      20.540  27.935  20.535  1.00  0.00    -0.027 NA
HETATM    6  C8  UNL     1      20.222  29.143  19.800  1.00  0.00     0.266 C 
ENDROOT
BRANCH   1   7
HETATM    7  S1  UNL     1      19.164  31.741  20.712  1.00  0.00     0.013 SA
BRANCH   7   8
HETATM    8  N5  UNL     1      17.423  31.982  20.585  1.00  0.00    -0.286 N 
HETATM    9  C3  UNL     1      16.819  33.201  20.531  1.00  0.00     0.115 A 
HETATM   10  C4  UNL     1      15.458  32.996  20.434  1.00  0.00     0.038 A 
HETATM   11  C5  UNL     1      15.213  31.619  20.430  1.00  0.00     0.021 A 
HETATM   12  C6  UNL     1      16.463  31.044  20.524  1.00  0.00     0.105 A 
BRANCH   9  13
HETATM   13  C2  UNL     1      17.504  34.482  20.569  1.00  0.00     0.287 C 
HETATM   14  N4  UNL     1      18.141  34.971  19.401  1.00  0.00    -0.262 N 
ATOM     15  H4  UNL     1      18.101  34.404  18.554  1.00  0.00     0.190 HD
HETATM   16  O1  UNL     1      17.546  35.166  21.607  1.00  0.00    -0.264 OA
BRANCH  14  17
HETATM   17  N3  UNL     1      18.815  36.179  19.349  1.00  0.00    -0.273 N 
HETATM   18  C1  UNL     1      20.057  36.215  19.028  1.00  0.00     0.215 C 
HETATM   19  N1  UNL     1      20.783  37.436  18.964  1.00  0.00    -0.065 NA
HETATM   20  N2  UNL     1      20.725  35.006  18.729  1.00  0.00    -0.065 NA
ATOM     21  H3  UNL     1      18.321  37.044  19.567  1.00  0.00     0.189 HD
ENDBRANCH  14  17
ENDBRANCH   9  13
ENDBRANCH   7   8
ENDBRANCH   1   7
BRANCH   6  22
HETATM   22  N8  UNL     1      19.368  28.774  18.689  1.00  0.00    -0.057 NA
BRANCH  22  23
HETATM   23  O3  UNL     1      18.135  28.500  19.188  1.00  0.00    -0.293 OA
ATOM     24  H3  UNL     1      17.919  27.605  18.951  1.00  0.00     0.238 HD
ENDBRANCH  22  23
ENDBRANCH   6  22
BRANCH   6  25
HETATM   25  C9  UNL     1      21.441  29.783  19.280  1.00  0.00     0.166 A 
HETATM   26  N9  UNL     1      22.056  30.913  19.634  1.00  0.00    -0.269 N 
HETATM   27  N10 UNL     1      23.131  31.059  18.855  1.00  0.00    -0.227 N 
ATOM     28  H9  UNL     1      21.758  31.552  20.370  1.00  0.00     0.190 HD
HETATM   29  N11 UNL     1      23.210  30.045  18.016  1.00  0.00    -0.227 N 
ATOM     30  H10 UNL     1      23.790  31.836  18.903  1.00  0.00     0.210 HD
HETATM   31  N12 UNL     1      22.181  29.268  18.275  1.00  0.00    -0.269 N 
ATOM     32  H11 UNL     1      23.927  29.893  17.307  1.00  0.00     0.210 HD
ATOM     33  H12 UNL     1      21.970  28.398  17.786  1.00  0.00     0.190 HD
ENDBRANCH   6  25
TORSDOF 7
ENDMDL
MODEL 5
REMARK VINA RESULT: -6.840670081      2.760      6.448
REMARK  7 active torsions:
REMARK  status: ('A' for Active; 'I' for Inactive)
REMARK    1  A    between atoms: N3_4  and  N4_6 
REMARK       I    between atoms: N4_6  and  C2_8 
REMARK    2  A    between atoms: C2_8  and  C3_10 
REMARK    3  A    between atoms: N5_14  and  S1_15 
REMARK    4  A    between atoms: S1_15  and  C7_16 
REMARK    5  A    between atoms: C8_21  and  N8_22 
REMARK    6  A    between atoms: C8_21  and  C9_25 
REMARK    7  A    between atoms: N8_22  and  O3_23 
ROOT
HETATM    1  C7  UNL     1      21.155  36.145  20.504  1.00  0.00     0.144 C 
HETATM    2  N6  UNL     1      21.715  37.258  20.145  1.00  0.00    -0.237 N 
ATOM      3  H6  UNL     1      22.493  37.697  20.637  1.00  0.00     0.197 HD
HETATM    4  O2  UNL     1      21.129  37.766  19.023  1.00  0.00    -0.161 OA
HETATM    5  N7  UNL     1      19.913  37.183  18.869  1.00  0.00    -0.027 NA
HETATM    6  C8  UNL     1      20.094  35.897  19.514  1.00  0.00     0.266 C 
ENDROOT
BRANCH   1   7
HETATM    7  S1  UNL     1      21.614  35.139  21.925  1.00  0.00     0.013 SA
BRANCH   7   8
HETATM    8  N5  UNL     1      23.067  34.224  21.530  1.00  0.00    -0.286 N 
HETATM    9  C3  UNL     1      23.065  32.955  21.036  1.00  0.00     0.115 A 
HETATM   10  C4  UNL     1      24.376  32.570  20.850  1.00  0.00     0.038 A 
HETATM   11  C5  UNL     1      25.210  33.623  21.239  1.00  0.00     0.021 A 
HETATM   12  C6  UNL     1      24.347  34.617  21.649  1.00  0.00     0.105 A 
BRANCH   9  13
HETATM   13  C2  UNL     1      21.879  32.163  20.759  1.00  0.00     0.287 C 
HETATM   14  N4  UNL     1      21.098  31.669  21.834  1.00  0.00    -0.262 N 
ATOM     15  H4  UNL     1      21.394  31.885  22.786  1.00  0.00     0.190 HD
HETATM   16  O1  UNL     1      21.527  31.904  19.593  1.00  0.00    -0.264 OA
BRANCH  14  17
HETATM   17  N3  UNL     1      19.956  30.907  21.660  1.00  0.00    -0.273 N 
HETATM   18  C1  UNL     1      18.802  31.399  21.933  1.00  0.00     0.215 C 
HETATM   19  N1  UNL     1      17.605  30.648  21.767  1.00  0.00    -0.065 NA
HETATM   20  N2  UNL     1      18.716  32.726  22.412  1.00  0.00    -0.065 NA
ATOM     21  H3  UNL     1      20.031  29.952  21.313  1.00  0.00     0.189 HD
ENDBRANCH  14  17
ENDBRANCH   9  13
ENDBRANCH   7   8
ENDBRANCH   1   7
BRANCH   6  22
HETATM   22  N8  UNL     1      20.521  34.950  18.504  1.00  0.00    -0.057 NA
BRANCH  22  23
HETATM   23  O3  UNL     1      21.879  34.937  18.497  1.00  0.00    -0.293 OA
ATOM     24  H3  UNL     1      22.165  34.976  17.592  1.00  0.00     0.238 HD
ENDBRANCH  22  23
ENDBRANCH   6  22
BRANCH   6  25
HETATM   25  C9  UNL     1      18.837  35.426  20.117  1.00  0.00     0.166 A 
HETATM   26  N9  UNL     1      18.175  35.839  21.198  1.00  0.00    -0.269 N 
HETATM   27  N10 UNL     1      17.080  35.084  21.327  1.00  0.00    -0.227 N 
ATOM     28  H9  UNL     1      18.455  36.599  21.818  1.00  0.00     0.190 HD
HETATM   29  N11 UNL     1      17.035  34.201  20.348  1.00  0.00    -0.227 N 
ATOM     30  H10 UNL     1      16.386  35.177  22.068  1.00  0.00     0.210 HD
HETATM   31  N12 UNL     1      18.105  34.410  19.611  1.00  0.00    -0.269 N 
ATOM     32  H11 UNL     1      16.315  33.497  20.193  1.00  0.00     0.210 HD
ATOM     33  H12 UNL     1      18.349  33.879  18.775  1.00  0.00     0.190 HD
ENDBRANCH   6  25
TORSDOF 7
ENDMDL
