MODEL 1
REMARK VINA RESULT: -4.956538278      0.000      0.000
REMARK  5 active torsions:
REMARK  status: ('A' for Active; 'I' for Inactive)
REMARK    1  A    between atoms: N1_1  and  C1_4 
REMARK    2  A    between atoms: C2_9  and  S1_10 
REMARK    3  A    between atoms: S1_10  and  C3_13 
REMARK    4  A    between atoms: C3_13  and  N4_14 
REMARK    5  A    between atoms: C3_13  and  N5_18 
ROOT
HETATM    1  S1  UNL     1      -3.809   7.309  15.454  1.00  0.00     0.264 S 
HETATM    2  O1  UNL     1      -2.440   6.737  15.184  1.00  0.00    -0.216 OA
HETATM    3  O2  UNL     1      -4.079   8.332  14.389  1.00  0.00    -0.216 OA
ENDROOT
BRANCH   1   4
HETATM    4  C2  UNL     1      -3.888   8.082  16.997  1.00  0.00     0.236 A 
HETATM    5  N3  UNL     1      -5.006   8.144  17.743  1.00  0.00    -0.261 N 
HETATM    6  N2  UNL     1      -4.753   8.796  18.864  1.00  0.00    -0.130 N 
ATOM      7  H3  UNL     1      -5.909   7.748  17.482  1.00  0.00     0.190 HD
HETATM    8  C1  UNL     1      -3.466   9.154  18.837  1.00  0.00     0.692 A 
ATOM      9  H2  UNL     1      -5.419   8.991  19.613  1.00  0.00     0.205 HD
HETATM   10  N6  UNL     1      -2.933   8.713  17.685  1.00  0.00    -0.163 N 
ATOM     11  H6  UNL     1      -1.965   8.838  17.387  1.00  0.00     0.186 HD
BRANCH   8  12
HETATM   12  N1  UNL     1      -2.835   9.800  19.737  1.00  0.00    -0.233 N 
ATOM     13  H12 UNL     1      -2.801   9.548  20.726  1.00  0.00     0.174 HD
ATOM     14  H11 UNL     1      -2.283  10.648  19.606  1.00  0.00     0.174 HD
ENDBRANCH   8  12
ENDBRANCH   1   4
BRANCH   1  15
HETATM   15  C3  UNL     1      -4.997   6.001  15.293  1.00  0.00     0.505 C 
BRANCH  15  16
HETATM   16  N4  UNL     1      -5.832   6.231  14.131  1.00  0.00    -0.036 N 
ATOM     17  H43 UNL     1      -5.351   6.778  13.417  1.00  0.00     0.278 HD
ATOM     18  H42 UNL     1      -5.980   5.378  13.591  1.00  0.00     0.278 HD
ATOM     19  H41 UNL     1      -6.711   6.663  14.416  1.00  0.00     0.278 HD
ENDBRANCH  15  16
BRANCH  15  20
HETATM   20  N5  UNL     1      -4.300   4.747  15.071  1.00  0.00    -0.036 N 
ATOM     21  H53 UNL     1      -4.919   4.017  14.719  1.00  0.00     0.278 HD
ATOM     22  H52 UNL     1      -3.664   4.793  14.274  1.00  0.00     0.278 HD
ATOM     23  H51 UNL     1      -3.824   4.470  15.930  1.00  0.00     0.278 HD
ENDBRANCH  15  20
ENDBRANCH   1  15
TORSDOF 5
ENDMDL
MODEL 2
REMARK VINA RESULT: -4.950809590      1.254      4.930
REMARK  5 active torsions:
REMARK  status: ('A' for Active; 'I' for Inactive)
REMARK    1  A    between atoms: N1_1  and  C1_4 
REMARK    2  A    between atoms: C2_9  and  S1_10 
REMARK    3  A    between atoms: S1_10  and  C3_13 
REMARK    4  A    between atoms: C3_13  and  N4_14 
REMARK    5  A    between atoms: C3_13  and  N5_18 
ROOT
HETATM    1  S1  UNL     1      -3.635   7.197  15.584  1.00  0.00     0.264 S 
HETATM    2  O1  UNL     1      -4.182   8.252  14.656  1.00  0.00    -0.216 OA
HETATM    3  O2  UNL     1      -2.176   7.042  15.266  1.00  0.00    -0.216 OA
ENDROOT
BRANCH   1   4
HETATM    4  C2  UNL     1      -4.417   5.674  15.355  1.00  0.00     0.236 A 
HETATM    5  N3  UNL     1      -4.404   4.685  16.268  1.00  0.00    -0.261 N 
HETATM    6  N2  UNL     1      -5.084   3.650  15.808  1.00  0.00    -0.130 N 
ATOM      7  H3  UNL     1      -3.940   4.729  17.175  1.00  0.00     0.190 HD
HETATM    8  C1  UNL     1      -5.536   3.977  14.594  1.00  0.00     0.692 A 
ATOM      9  H2  UNL     1      -5.236   2.764  16.290  1.00  0.00     0.205 HD
HETATM   10  N6  UNL     1      -5.125   5.226  14.316  1.00  0.00    -0.163 N 
ATOM     11  H6  UNL     1      -5.319   5.743  13.458  1.00  0.00     0.186 HD
BRANCH   8  12
HETATM   12  N1  UNL     1      -6.238   3.246  13.819  1.00  0.00    -0.233 N 
ATOM     13  H12 UNL     1      -6.555   2.300  14.032  1.00  0.00     0.174 HD
ATOM     14  H11 UNL     1      -6.580   3.494  12.890  1.00  0.00     0.174 HD
ENDBRANCH   8  12
ENDBRANCH   1   4
BRANCH   1  15
HETATM   15  C3  UNL     1      -3.789   7.792  17.249  1.00  0.00     0.505 C 
BRANCH  15  16
HETATM   16  N4  UNL     1      -2.943   8.953  17.439  1.00  0.00    -0.036 N 
ATOM     17  H43 UNL     1      -2.868   9.214  18.422  1.00  0.00     0.278 HD
ATOM     18  H42 UNL     1      -1.959   8.742  17.266  1.00  0.00     0.278 HD
ATOM     19  H41 UNL     1      -3.276   9.725  16.862  1.00  0.00     0.278 HD
ENDBRANCH  15  16
BRANCH  15  20
HETATM   20  N5  UNL     1      -5.156   8.223  17.478  1.00  0.00    -0.036 N 
ATOM     21  H53 UNL     1      -5.803   7.844  16.787  1.00  0.00     0.278 HD
ATOM     22  H52 UNL     1      -5.564   7.792  18.308  1.00  0.00     0.278 HD
ATOM     23  H51 UNL     1      -5.185   9.243  17.517  1.00  0.00     0.278 HD
ENDBRANCH  15  20
ENDBRANCH   1  15
TORSDOF 5
ENDMDL
MODEL 3
REMARK VINA RESULT: -4.775847978      2.520      4.445
REMARK  5 active torsions:
REMARK  status: ('A' for Active; 'I' for Inactive)
REMARK    1  A    between atoms: N1_1  and  C1_4 
REMARK    2  A    between atoms: C2_9  and  S1_10 
REMARK    3  A    between atoms: S1_10  and  C3_13 
REMARK    4  A    between atoms: C3_13  and  N4_14 
REMARK    5  A    between atoms: C3_13  and  N5_18 
ROOT
HETATM    1  S1  UNL     1      -5.010   7.107  16.894  1.00  0.00     0.264 S 
HETATM    2  O1  UNL     1      -5.431   5.744  17.382  1.00  0.00    -0.216 OA
HETATM    3  O2  UNL     1      -6.238   7.784  16.360  1.00  0.00    -0.216 OA
ENDROOT
BRANCH   1   4
HETATM    4  C2  UNL     1      -3.841   7.001  15.627  1.00  0.00     0.236 A 
HETATM    5  N3  UNL     1      -3.945   7.663  14.460  1.00  0.00    -0.261 N 
HETATM    6  N2  UNL     1      -2.904   7.381  13.697  1.00  0.00    -0.130 N 
ATOM      7  H3  UNL     1      -4.711   8.287  14.204  1.00  0.00     0.190 HD
HETATM    8  C1  UNL     1      -2.127   6.534  14.379  1.00  0.00     0.692 A 
ATOM      9  H2  UNL     1      -2.726   7.743  12.760  1.00  0.00     0.205 HD
HETATM   10  N6  UNL     1      -2.706   6.301  15.569  1.00  0.00    -0.163 N 
ATOM     11  H6  UNL     1      -2.341   5.693  16.302  1.00  0.00     0.186 HD
BRANCH   8  12
HETATM   12  N1  UNL     1      -1.025   6.026  13.986  1.00  0.00    -0.233 N 
ATOM     13  H12 UNL     1      -0.778   5.038  14.053  1.00  0.00     0.174 HD
ATOM     14  H11 UNL     1      -0.244   6.521  13.557  1.00  0.00     0.174 HD
ENDBRANCH   8  12
ENDBRANCH   1   4
BRANCH   1  15
HETATM   15  C3  UNL     1      -4.415   8.034  18.286  1.00  0.00     0.505 C 
BRANCH  15  16
HETATM   16  N4  UNL     1      -3.312   8.882  17.880  1.00  0.00    -0.036 N 
ATOM     17  H43 UNL     1      -2.497   8.764  18.482  1.00  0.00     0.278 HD
ATOM     18  H42 UNL     1      -2.894   8.572  17.002  1.00  0.00     0.278 HD
ATOM     19  H41 UNL     1      -3.619   9.854  17.837  1.00  0.00     0.278 HD
ENDBRANCH  15  16
BRANCH  15  20
HETATM   20  N5  UNL     1      -5.469   8.910  18.763  1.00  0.00    -0.036 N 
ATOM     21  H53 UNL     1      -6.388   8.469  18.722  1.00  0.00     0.278 HD
ATOM     22  H52 UNL     1      -5.424   9.056  19.772  1.00  0.00     0.278 HD
ATOM     23  H51 UNL     1      -5.438   9.788  18.243  1.00  0.00     0.278 HD
ENDBRANCH  15  20
ENDBRANCH   1  15
TORSDOF 5
ENDMDL
MODEL 4
REMARK VINA RESULT: -4.598292028      0.943      1.791
REMARK  5 active torsions:
REMARK  status: ('A' for Active; 'I' for Inactive)
REMARK    1  A    between atoms: N1_1  and  C1_4 
REMARK    2  A    between atoms: C2_9  and  S1_10 
REMARK    3  A    between atoms: S1_10  and  C3_13 
REMARK    4  A    between atoms: C3_13  and  N4_14 
REMARK    5  A    between atoms: C3_13  and  N5_18 
ROOT
HETATM    1  S1  UNL     1      -3.675   7.096  15.207  1.00  0.00     0.264 S 
HETATM    2  O1  UNL     1      -2.186   6.896  15.073  1.00  0.00    -0.216 OA
HETATM    3  O2  UNL     1      -4.094   8.037  14.115  1.00  0.00    -0.216 OA
ENDROOT
BRANCH   1   4
HETATM    4  C2  UNL     1      -4.093   7.795  16.731  1.00  0.00     0.236 A 
HETATM    5  N3  UNL     1      -3.238   8.517  17.478  1.00  0.00    -0.261 N 
HETATM    6  N2  UNL     1      -3.844   8.915  18.583  1.00  0.00    -0.130 N 
ATOM      7  H3  UNL     1      -2.271   8.725  17.230  1.00  0.00     0.190 HD
HETATM    8  C1  UNL     1      -5.095   8.445  18.543  1.00  0.00     0.692 A 
ATOM      9  H2  UNL     1      -3.433   9.476  19.329  1.00  0.00     0.205 HD
HETATM   10  N6  UNL     1      -5.247   7.755  17.400  1.00  0.00    -0.163 N 
ATOM     11  H6  UNL     1      -6.098   7.282  17.096  1.00  0.00     0.186 HD
BRANCH   8  12
HETATM   12  N1  UNL     1      -6.000   8.613  19.425  1.00  0.00    -0.233 N 
ATOM     13  H12 UNL     1      -6.627   9.416  19.477  1.00  0.00     0.174 HD
ATOM     14  H11 UNL     1      -6.227   7.982  20.194  1.00  0.00     0.174 HD
ENDBRANCH   8  12
ENDBRANCH   1   4
BRANCH   1  15
HETATM   15  C3  UNL     1      -4.470   5.533  14.940  1.00  0.00     0.505 C 
BRANCH  15  16
HETATM   16  N4  UNL     1      -4.438   4.748  16.158  1.00  0.00    -0.036 N 
ATOM     17  H43 UNL     1      -3.841   5.169  16.869  1.00  0.00     0.278 HD
ATOM     18  H42 UNL     1      -5.323   4.789  16.664  1.00  0.00     0.278 HD
ATOM     19  H41 UNL     1      -4.162   3.788  15.946  1.00  0.00     0.278 HD
ENDBRANCH  15  16
BRANCH  15  20
HETATM   20  N5  UNL     1      -5.867   5.756  14.618  1.00  0.00    -0.036 N 
ATOM     21  H53 UNL     1      -6.355   6.277  15.346  1.00  0.00     0.278 HD
ATOM     22  H52 UNL     1      -5.987   6.426  13.857  1.00  0.00     0.278 HD
ATOM     23  H51 UNL     1      -6.314   4.860  14.417  1.00  0.00     0.278 HD
ENDBRANCH  15  20
ENDBRANCH   1  15
TORSDOF 5
ENDMDL
MODEL 5
REMARK VINA RESULT: -4.570431387      1.677      2.376
REMARK  5 active torsions:
REMARK  status: ('A' for Active; 'I' for Inactive)
REMARK    1  A    between atoms: N1_1  and  C1_4 
REMARK    2  A    between atoms: C2_9  and  S1_10 
REMARK    3  A    between atoms: S1_10  and  C3_13 
REMARK    4  A    between atoms: C3_13  and  N4_14 
REMARK    5  A    between atoms: C3_13  and  N5_18 
ROOT
HETATM    1  S1  UNL     1      -4.939   7.111  16.765  1.00  0.00     0.264 S 
HETATM    2  O1  UNL     1      -6.235   7.747  16.330  1.00  0.00    -0.216 OA
HETATM    3  O2  UNL     1      -5.292   5.891  17.566  1.00  0.00    -0.216 OA
ENDROOT
BRANCH   1   4
HETATM    4  C2  UNL     1      -4.005   8.173  17.758  1.00  0.00     0.236 A 
HETATM    5  N3  UNL     1      -2.751   8.558  17.462  1.00  0.00    -0.261 N 
HETATM    6  N2  UNL     1      -2.302   9.367  18.406  1.00  0.00    -0.130 N 
ATOM      7  H3  UNL     1      -2.227   8.270  16.636  1.00  0.00     0.190 HD
HETATM    8  C1  UNL     1      -3.276   9.501  19.312  1.00  0.00     0.692 A 
ATOM      9  H2  UNL     1      -1.382   9.807  18.438  1.00  0.00     0.205 HD
HETATM   10  N6  UNL     1      -4.326   8.765  18.911  1.00  0.00    -0.163 N 
ATOM     11  H6  UNL     1      -5.215   8.673  19.403  1.00  0.00     0.186 HD
BRANCH   8  12
HETATM   12  N1  UNL     1      -3.235  10.202  20.377  1.00  0.00    -0.233 N 
ATOM     13  H12 UNL     1      -3.406  11.207  20.425  1.00  0.00     0.174 HD
ATOM     14  H11 UNL     1      -3.028   9.868  21.319  1.00  0.00     0.174 HD
ENDBRANCH   8  12
ENDBRANCH   1   4
BRANCH   1  15
HETATM   15  C3  UNL     1      -4.059   6.597  15.313  1.00  0.00     0.505 C 
BRANCH  15  16
HETATM   16  N4  UNL     1      -3.969   5.151  15.275  1.00  0.00    -0.036 N 
ATOM     17  H43 UNL     1      -4.441   4.718  16.068  1.00  0.00     0.278 HD
ATOM     18  H42 UNL     1      -4.538   4.752  14.527  1.00  0.00     0.278 HD
ATOM     19  H41 UNL     1      -2.992   4.865  15.208  1.00  0.00     0.278 HD
ENDBRANCH  15  16
BRANCH  15  20
HETATM   20  N5  UNL     1      -4.802   7.006  14.134  1.00  0.00    -0.036 N 
ATOM     21  H53 UNL     1      -4.284   7.673  13.563  1.00  0.00     0.278 HD
ATOM     22  H52 UNL     1      -4.879   6.257  13.446  1.00  0.00     0.278 HD
ATOM     23  H51 UNL     1      -5.713   7.366  14.419  1.00  0.00     0.278 HD
ENDBRANCH  15  20
ENDBRANCH   1  15
TORSDOF 5
ENDMDL
