MODEL 1
REMARK VINA RESULT: -7.264137078      0.000      0.000
REMARK  9 active torsions:
REMARK  status: ('A' for Active; 'I' for Inactive)
REMARK    1  A    between atoms: C2_2  and  N1_3 
REMARK    2  A    between atoms: N1_3  and  C3_6 
REMARK    3  A    between atoms: C3_6  and  O1_7 
REMARK    4  A    between atoms: C3_6  and  N2_9 
REMARK    5  A    between atoms: N2_9  and  C4_11 
REMARK    6  A    between atoms: N5_21  and  C10_22 
REMARK    7  A    between atoms: N6_33  and  C21_34 
REMARK    8  A    between atoms: C21_34  and  C22_35 
REMARK    9  A    between atoms: C22_35  and  O2_36 
ROOT
HETATM    1  C10 UNL     1      53.128  44.142  61.462  1.00  0.00     0.092 C 
HETATM    2  C11 UNL     1      54.038  43.114  62.016  1.00  0.00     0.026 C 
HETATM    3  C12 UNL     1      53.733  42.506  63.311  1.00  0.00     0.005 C 
HETATM    4  C13 UNL     1      52.407  41.947  63.577  1.00  0.00     0.041 C 
HETATM    5  C14 UNL     1      51.546  41.586  62.394  1.00  0.00     0.096 C 
HETATM    6  C15 UNL     1      52.152  40.585  61.472  1.00  0.00     0.041 C 
HETATM    7  C16 UNL     1      51.285  39.332  61.286  1.00  0.00     0.006 C 
HETATM    8  C17 UNL     1      49.981  39.612  60.616  1.00  0.00     0.041 C 
HETATM    9  C18 UNL     1      48.921  39.943  61.649  1.00  0.00     0.099 C 
HETATM   10  C19 UNL     1      48.732  38.766  62.556  1.00  0.00     0.071 C 
HETATM   11  C20 UNL     1      47.328  38.731  63.172  1.00  0.00     0.275 C 
HETATM   12  N6  UNL     1      46.315  38.567  62.174  1.00  0.00     0.090 N 
HETATM   13  C23 UNL     1      46.816  38.969  60.873  1.00  0.00     0.275 C 
HETATM   14  C24 UNL     1      47.598  40.256  61.012  1.00  0.00     0.071 C 
HETATM   15  O3  UNL     1      49.354  41.088  62.304  1.00  0.00    -0.229 OA
HETATM   16  O4  UNL     1      50.435  40.922  62.989  1.00  0.00    -0.229 OA
HETATM   17  C25 UNL     1      50.987  42.810  61.756  1.00  0.00     0.043 C 
HETATM   18  C26 UNL     1      51.870  43.582  60.869  1.00  0.00     0.029 C 
ENDROOT
BRANCH   1  19
HETATM   19  N5  UNL     1      52.904  45.313  62.258  1.00  0.00    -0.323 N 
HETATM   20  C6  UNL     1      51.806  46.073  62.285  1.00  0.00     0.136 A 
HETATM   21  N3  UNL     1      50.608  46.054  61.651  1.00  0.00    -0.348 N 
HETATM   22  C7  UNL     1      51.984  47.105  63.187  1.00  0.00     0.080 A 
HETATM   23  C5  UNL     1      49.633  46.958  61.856  1.00  0.00     0.119 A 
ATOM     24  H3  UNL     1      50.435  45.308  60.978  1.00  0.00     0.167 HD
HETATM   25  C4  UNL     1      49.780  47.996  62.746  1.00  0.00     0.049 A 
HETATM   26  C8  UNL     1      50.987  48.049  63.412  1.00  0.00     0.064 A 
HETATM   27  N4  UNL     1      53.214  46.910  63.673  1.00  0.00    -0.349 N 
HETATM   28  C9  UNL     1      53.782  45.830  63.122  1.00  0.00     0.185 A 
ATOM     29  H4  UNL     1      53.661  47.504  64.372  1.00  0.00     0.166 HD
BRANCH  25  30
HETATM   30  N2  UNL     1      48.754  48.954  62.964  1.00  0.00    -0.340 N 
ATOM     31  H2  UNL     1      48.883  49.886  62.569  1.00  0.00     0.164 HD
BRANCH  30  32
HETATM   32  C3  UNL     1      47.547  48.705  63.700  1.00  0.00     0.426 C 
BRANCH  32  33
HETATM   33  N1  UNL     1      46.588  47.987  62.851  1.00  0.00    -0.031 N 
ATOM     34  H12 UNL     1      46.923  47.859  61.895  1.00  0.00     0.282 HD
ATOM     35  H11 UNL     1      45.762  48.543  62.631  1.00  0.00     0.282 HD
BRANCH  33  36
HETATM   36  C2  UNL     1      46.264  46.737  63.502  1.00  0.00     0.233 C 
HETATM   37  C1  UNL     1      47.078  46.687  64.788  1.00  0.00     0.034 C 
ENDBRANCH  33  36
ENDBRANCH  32  33
BRANCH  32  38
HETATM   38  O1  UNL     1      46.963  49.928  64.018  1.00  0.00    -0.354 OA
ATOM     39  H1  UNL     1      46.685  49.871  64.924  1.00  0.00     0.214 HD
ENDBRANCH  32  38
ENDBRANCH  30  32
ENDBRANCH  25  30
ENDBRANCH   1  19
BRANCH  12  40
HETATM   40  C21 UNL     1      45.736  37.258  62.156  1.00  0.00     0.298 C 
BRANCH  40  41
HETATM   41  C22 UNL     1      44.989  37.001  63.429  1.00  0.00     0.194 C 
BRANCH  41  42
HETATM   42  O2  UNL     1      45.575  35.916  64.115  1.00  0.00    -0.399 OA
ATOM     43  H2  UNL     1      45.402  35.993  65.046  1.00  0.00     0.209 HD
ENDBRANCH  41  42
ENDBRANCH  40  41
ENDBRANCH  12  40
TORSDOF 9
ENDMDL
MODEL 2
REMARK VINA RESULT: -7.029724336      3.012      9.392
REMARK  9 active torsions:
REMARK  status: ('A' for Active; 'I' for Inactive)
REMARK    1  A    between atoms: C2_2  and  N1_3 
REMARK    2  A    between atoms: N1_3  and  C3_6 
REMARK    3  A    between atoms: C3_6  and  O1_7 
REMARK    4  A    between atoms: C3_6  and  N2_9 
REMARK    5  A    between atoms: N2_9  and  C4_11 
REMARK    6  A    between atoms: N5_21  and  C10_22 
REMARK    7  A    between atoms: N6_33  and  C21_34 
REMARK    8  A    between atoms: C21_34  and  C22_35 
REMARK    9  A    between atoms: C22_35  and  O2_36 
ROOT
HETATM    1  C10 UNL     1      46.344  45.952  60.758  1.00  0.00     0.092 C 
HETATM    2  C11 UNL     1      45.839  46.859  61.813  1.00  0.00     0.026 C 
HETATM    3  C12 UNL     1      46.182  46.599  63.211  1.00  0.00     0.005 C 
HETATM    4  C13 UNL     1      47.574  46.379  63.607  1.00  0.00     0.041 C 
HETATM    5  C14 UNL     1      48.655  46.879  62.684  1.00  0.00     0.096 C 
HETATM    6  C15 UNL     1      48.610  48.343  62.417  1.00  0.00     0.041 C 
HETATM    7  C16 UNL     1      49.911  49.066  62.794  1.00  0.00     0.006 C 
HETATM    8  C17 UNL     1      51.081  48.642  61.971  1.00  0.00     0.041 C 
HETATM    9  C18 UNL     1      51.784  47.467  62.622  1.00  0.00     0.099 C 
HETATM   10  C19 UNL     1      52.293  47.883  63.969  1.00  0.00     0.071 C 
HETATM   11  C20 UNL     1      53.506  47.055  64.409  1.00  0.00     0.275 C 
HETATM   12  N6  UNL     1      54.626  47.252  63.538  1.00  0.00     0.090 N 
HETATM   13  C23 UNL     1      54.185  47.755  62.251  1.00  0.00     0.275 C 
HETATM   14  C24 UNL     1      52.954  46.994  61.810  1.00  0.00     0.071 C 
HETATM   15  O3  UNL     1      50.860  46.432  62.671  1.00  0.00    -0.229 OA
HETATM   16  O4  UNL     1      49.847  46.670  63.435  1.00  0.00    -0.229 OA
HETATM   17  C25 UNL     1      48.775  45.998  61.489  1.00  0.00     0.043 C 
HETATM   18  C26 UNL     1      47.787  46.168  60.413  1.00  0.00     0.029 C 
ENDROOT
BRANCH   1  19
HETATM   19  N5  UNL     1      45.991  44.567  60.864  1.00  0.00    -0.323 N 
HETATM   20  C6  UNL     1      46.656  43.611  61.519  1.00  0.00     0.136 A 
HETATM   21  N3  UNL     1      47.791  43.565  62.258  1.00  0.00    -0.348 N 
HETATM   22  C7  UNL     1      45.986  42.410  61.384  1.00  0.00     0.080 A 
HETATM   23  C5  UNL     1      48.269  42.447  62.836  1.00  0.00     0.119 A 
ATOM     24  H3  UNL     1      48.316  44.430  62.385  1.00  0.00     0.167 HD
HETATM   25  C4  UNL     1      47.625  41.238  62.718  1.00  0.00     0.049 A 
HETATM   26  C8  UNL     1      46.465  41.245  61.974  1.00  0.00     0.064 A 
HETATM   27  N4  UNL     1      44.921  42.709  60.632  1.00  0.00    -0.349 N 
HETATM   28  C9  UNL     1      44.910  44.009  60.311  1.00  0.00     0.185 A 
ATOM     29  H4  UNL     1      44.211  42.037  60.342  1.00  0.00     0.166 HD
BRANCH  25  30
HETATM   30  N2  UNL     1      48.127  40.055  63.325  1.00  0.00    -0.340 N 
ATOM     31  H2  UNL     1      48.553  40.140  64.249  1.00  0.00     0.164 HD
BRANCH  30  32
HETATM   32  C3  UNL     1      48.079  38.749  62.733  1.00  0.00     0.426 C 
BRANCH  32  33
HETATM   33  N1  UNL     1      47.138  37.902  63.476  1.00  0.00    -0.031 N 
ATOM     34  H12 UNL     1      46.910  38.277  64.397  1.00  0.00     0.282 HD
ATOM     35  H11 UNL     1      47.556  37.026  63.787  1.00  0.00     0.282 HD
BRANCH  33  36
HETATM   36  C2  UNL     1      45.969  37.702  62.648  1.00  0.00     0.233 C 
HETATM   37  C1  UNL     1      44.880  37.141  63.552  1.00  0.00     0.034 C 
ENDBRANCH  33  36
ENDBRANCH  32  33
BRANCH  32  38
HETATM   38  O1  UNL     1      49.335  38.159  62.859  1.00  0.00    -0.354 OA
ATOM     39  H1  UNL     1      49.739  38.541  63.629  1.00  0.00     0.214 HD
ENDBRANCH  32  38
ENDBRANCH  30  32
ENDBRANCH  25  30
ENDBRANCH   1  19
BRANCH  12  40
HETATM   40  C21 UNL     1      55.664  48.054  64.113  1.00  0.00     0.298 C 
BRANCH  40  41
HETATM   41  C22 UNL     1      55.779  49.357  63.384  1.00  0.00     0.194 C 
BRANCH  41  42
HETATM   42  O2  UNL     1      56.132  50.380  64.289  1.00  0.00    -0.399 OA
ATOM     43  H2  UNL     1      56.334  50.003  65.137  1.00  0.00     0.209 HD
ENDBRANCH  41  42
ENDBRANCH  40  41
ENDBRANCH  12  40
TORSDOF 9
ENDMDL
MODEL 3
REMARK VINA RESULT: -6.508000610      3.073      9.643
REMARK  9 active torsions:
REMARK  status: ('A' for Active; 'I' for Inactive)
REMARK    1  A    between atoms: C2_2  and  N1_3 
REMARK    2  A    between atoms: N1_3  and  C3_6 
REMARK    3  A    between atoms: C3_6  and  O1_7 
REMARK    4  A    between atoms: C3_6  and  N2_9 
REMARK    5  A    between atoms: N2_9  and  C4_11 
REMARK    6  A    between atoms: N5_21  and  C10_22 
REMARK    7  A    between atoms: N6_33  and  C21_34 
REMARK    8  A    between atoms: C21_34  and  C22_35 
REMARK    9  A    between atoms: C22_35  and  O2_36 
ROOT
HETATM    1  C10 UNL     1      48.390  42.451  60.965  1.00  0.00     0.092 C 
HETATM    2  C11 UNL     1      47.395  43.535  61.124  1.00  0.00     0.026 C 
HETATM    3  C12 UNL     1      47.278  44.222  62.410  1.00  0.00     0.005 C 
HETATM    4  C13 UNL     1      48.463  44.766  63.073  1.00  0.00     0.041 C 
HETATM    5  C14 UNL     1      49.684  45.027  62.229  1.00  0.00     0.096 C 
HETATM    6  C15 UNL     1      49.464  45.977  61.103  1.00  0.00     0.041 C 
HETATM    7  C16 UNL     1      50.398  47.194  61.149  1.00  0.00     0.006 C 
HETATM    8  C17 UNL     1      51.837  46.840  60.971  1.00  0.00     0.041 C 
HETATM    9  C18 UNL     1      52.478  46.554  62.316  1.00  0.00     0.099 C 
HETATM   10  C19 UNL     1      52.406  47.785  63.167  1.00  0.00     0.071 C 
HETATM   11  C20 UNL     1      53.524  47.829  64.215  1.00  0.00     0.275 C 
HETATM   12  N6  UNL     1      54.818  47.902  63.606  1.00  0.00     0.090 N 
HETATM   13  C23 UNL     1      54.762  47.425  62.237  1.00  0.00     0.275 C 
HETATM   14  C24 UNL     1      53.921  46.169  62.178  1.00  0.00     0.071 C 
HETATM   15  O3  UNL     1      51.801  45.466  62.851  1.00  0.00    -0.229 OA
HETATM   16  O4  UNL     1      50.562  45.703  63.124  1.00  0.00    -0.229 OA
HETATM   17  C25 UNL     1      50.368  43.750  61.884  1.00  0.00     0.043 C 
HETATM   18  C26 UNL     1      49.798  42.941  60.797  1.00  0.00     0.029 C 
ENDROOT
BRANCH   1  19
HETATM   19  N5  UNL     1      48.285  41.332  61.854  1.00  0.00    -0.323 N 
HETATM   20  C6  UNL     1      47.472  40.279  61.734  1.00  0.00     0.136 A 
HETATM   21  N3  UNL     1      46.534  39.886  60.838  1.00  0.00    -0.348 N 
HETATM   22  C7  UNL     1      47.678  39.417  62.794  1.00  0.00     0.080 A 
HETATM   23  C5  UNL     1      45.828  38.745  60.938  1.00  0.00     0.119 A 
ATOM     24  H3  UNL     1      46.351  40.493  60.039  1.00  0.00     0.167 HD
HETATM   25  C4  UNL     1      46.010  37.868  61.981  1.00  0.00     0.049 A 
HETATM   26  C8  UNL     1      46.957  38.233  62.914  1.00  0.00     0.064 A 
HETATM   27  N4  UNL     1      48.631  40.009  63.522  1.00  0.00    -0.349 N 
HETATM   28  C9  UNL     1      49.009  41.167  62.965  1.00  0.00     0.185 A 
ATOM     29  H4  UNL     1      49.020  39.630  64.385  1.00  0.00     0.166 HD
BRANCH  25  30
HETATM   30  N2  UNL     1      45.265  36.663  62.091  1.00  0.00    -0.340 N 
ATOM     31  H2  UNL     1      45.199  36.069  61.264  1.00  0.00     0.164 HD
BRANCH  30  32
HETATM   32  C3  UNL     1      44.598  36.220  63.282  1.00  0.00     0.426 C 
BRANCH  32  33
HETATM   33  N1  UNL     1      43.680  37.265  63.753  1.00  0.00    -0.031 N 
ATOM     34  H12 UNL     1      44.034  38.208  63.586  1.00  0.00     0.282 HD
ATOM     35  H11 UNL     1      43.630  37.317  64.770  1.00  0.00     0.282 HD
BRANCH  33  36
HETATM   36  C2  UNL     1      42.390  37.035  63.140  1.00  0.00     0.233 C 
HETATM   37  C1  UNL     1      41.361  37.053  64.262  1.00  0.00     0.034 C 
ENDBRANCH  33  36
ENDBRANCH  32  33
BRANCH  32  38
HETATM   38  O1  UNL     1      45.551  36.044  64.283  1.00  0.00    -0.354 OA
ATOM     39  H1  UNL     1      45.991  35.223  64.099  1.00  0.00     0.214 HD
ENDBRANCH  32  38
ENDBRANCH  30  32
ENDBRANCH  25  30
ENDBRANCH   1  19
BRANCH  12  40
HETATM   40  C21 UNL     1      55.428  49.194  63.711  1.00  0.00     0.298 C 
BRANCH  40  41
HETATM   41  C22 UNL     1      56.804  49.075  64.290  1.00  0.00     0.194 C 
BRANCH  41  42
HETATM   42  O2  UNL     1      56.785  48.183  65.384  1.00  0.00    -0.399 OA
ATOM     43  H2  UNL     1      57.311  47.418  65.183  1.00  0.00     0.209 HD
ENDBRANCH  41  42
ENDBRANCH  40  41
ENDBRANCH  12  40
TORSDOF 9
ENDMDL
MODEL 4
REMARK VINA RESULT: -6.487543389      2.954      9.054
REMARK  9 active torsions:
REMARK  status: ('A' for Active; 'I' for Inactive)
REMARK    1  A    between atoms: C2_2  and  N1_3 
REMARK    2  A    between atoms: N1_3  and  C3_6 
REMARK    3  A    between atoms: C3_6  and  O1_7 
REMARK    4  A    between atoms: C3_6  and  N2_9 
REMARK    5  A    between atoms: N2_9  and  C4_11 
REMARK    6  A    between atoms: N5_21  and  C10_22 
REMARK    7  A    between atoms: N6_33  and  C21_34 
REMARK    8  A    between atoms: C21_34  and  C22_35 
REMARK    9  A    between atoms: C22_35  and  O2_36 
ROOT
HETATM    1  C10 UNL     1      46.019  46.307  60.914  1.00  0.00     0.092 C 
HETATM    2  C11 UNL     1      45.621  47.042  62.135  1.00  0.00     0.026 C 
HETATM    3  C12 UNL     1      46.062  46.558  63.443  1.00  0.00     0.005 C 
HETATM    4  C13 UNL     1      47.473  46.257  63.688  1.00  0.00     0.041 C 
HETATM    5  C14 UNL     1      48.494  46.881  62.772  1.00  0.00     0.096 C 
HETATM    6  C15 UNL     1      48.470  48.370  62.743  1.00  0.00     0.041 C 
HETATM    7  C16 UNL     1      49.814  49.004  63.124  1.00  0.00     0.006 C 
HETATM    8  C17 UNL     1      50.906  48.699  62.154  1.00  0.00     0.041 C 
HETATM    9  C18 UNL     1      51.625  47.426  62.555  1.00  0.00     0.099 C 
HETATM   10  C19 UNL     1      52.246  47.614  63.906  1.00  0.00     0.071 C 
HETATM   11  C20 UNL     1      53.466  46.709  64.112  1.00  0.00     0.275 C 
HETATM   12  N6  UNL     1      54.521  47.025  63.197  1.00  0.00     0.090 N 
HETATM   13  C23 UNL     1      53.997  47.733  62.044  1.00  0.00     0.275 C 
HETATM   14  C24 UNL     1      52.716  47.070  61.588  1.00  0.00     0.071 C 
HETATM   15  O3  UNL     1      50.679  46.410  62.513  1.00  0.00    -0.229 OA
HETATM   16  O4  UNL     1      49.734  46.538  63.384  1.00  0.00    -0.229 OA
HETATM   17  C25 UNL     1      48.499  46.200  61.448  1.00  0.00     0.043 C 
HETATM   18  C26 UNL     1      47.437  46.554  60.493  1.00  0.00     0.029 C 
ENDROOT
BRANCH   1  19
HETATM   19  N5  UNL     1      45.638  44.928  60.828  1.00  0.00    -0.323 N 
HETATM   20  C6  UNL     1      46.381  43.863  61.141  1.00  0.00     0.136 A 
HETATM   21  N3  UNL     1      47.639  43.673  61.608  1.00  0.00    -0.348 N 
HETATM   22  C7  UNL     1      45.648  42.712  60.923  1.00  0.00     0.080 A 
HETATM   23  C5  UNL     1      48.176  42.464  61.855  1.00  0.00     0.119 A 
ATOM     24  H3  UNL     1      48.214  44.497  61.784  1.00  0.00     0.167 HD
HETATM   25  C4  UNL     1      47.473  41.301  61.647  1.00  0.00     0.049 A 
HETATM   26  C8  UNL     1      46.188  41.454  61.173  1.00  0.00     0.064 A 
HETATM   27  N4  UNL     1      44.467  43.152  60.477  1.00  0.00    -0.349 N 
HETATM   28  C9  UNL     1      44.445  44.489  60.415  1.00  0.00     0.185 A 
ATOM     29  H4  UNL     1      43.685  42.549  60.219  1.00  0.00     0.166 HD
BRANCH  25  30
HETATM   30  N2  UNL     1      48.038  40.023  61.905  1.00  0.00    -0.340 N 
ATOM     31  H2  UNL     1      47.803  39.263  61.265  1.00  0.00     0.164 HD
BRANCH  30  32
HETATM   32  C3  UNL     1      48.915  39.723  63.000  1.00  0.00     0.426 C 
BRANCH  32  33
HETATM   33  N1  UNL     1      50.292  39.582  62.508  1.00  0.00    -0.031 N 
ATOM     34  H12 UNL     1      50.337  39.413  61.502  1.00  0.00     0.282 HD
ATOM     35  H11 UNL     1      50.732  38.714  62.811  1.00  0.00     0.282 HD
BRANCH  33  36
HETATM   36  C2  UNL     1      51.032  40.758  62.911  1.00  0.00     0.233 C 
HETATM   37  C1  UNL     1      52.370  40.704  62.188  1.00  0.00     0.034 C 
ENDBRANCH  33  36
ENDBRANCH  32  33
BRANCH  32  38
HETATM   38  O1  UNL     1      48.552  38.488  63.532  1.00  0.00    -0.354 OA
ATOM     39  H1  UNL     1      49.122  38.333  64.275  1.00  0.00     0.214 HD
ENDBRANCH  32  38
ENDBRANCH  30  32
ENDBRANCH  25  30
ENDBRANCH   1  19
BRANCH  12  40
HETATM   40  C21 UNL     1      55.621  47.710  63.807  1.00  0.00     0.298 C 
BRANCH  40  41
HETATM   41  C22 UNL     1      56.131  46.934  64.982  1.00  0.00     0.194 C 
BRANCH  41  42
HETATM   42  O2  UNL     1      56.809  45.781  64.533  1.00  0.00    -0.399 OA
ATOM     43  H2  UNL     1      57.744  45.885  64.667  1.00  0.00     0.209 HD
ENDBRANCH  41  42
ENDBRANCH  40  41
ENDBRANCH  12  40
TORSDOF 9
ENDMDL
MODEL 5
REMARK VINA RESULT: -6.480294608      9.755     11.378
REMARK  9 active torsions:
REMARK  status: ('A' for Active; 'I' for Inactive)
REMARK    1  A    between atoms: C2_2  and  N1_3 
REMARK    2  A    between atoms: N1_3  and  C3_6 
REMARK    3  A    between atoms: C3_6  and  O1_7 
REMARK    4  A    between atoms: C3_6  and  N2_9 
REMARK    5  A    between atoms: N2_9  and  C4_11 
REMARK    6  A    between atoms: N5_21  and  C10_22 
REMARK    7  A    between atoms: N6_33  and  C21_34 
REMARK    8  A    between atoms: C21_34  and  C22_35 
REMARK    9  A    between atoms: C22_35  and  O2_36 
ROOT
HETATM    1  C10 UNL     1      51.221  45.543  70.438  1.00  0.00     0.092 C 
HETATM    2  C11 UNL     1      52.546  45.959  69.925  1.00  0.00     0.026 C 
HETATM    3  C12 UNL     1      53.697  45.966  70.828  1.00  0.00     0.005 C 
HETATM    4  C13 UNL     1      54.014  44.789  71.638  1.00  0.00     0.041 C 
HETATM    5  C14 UNL     1      53.456  43.460  71.196  1.00  0.00     0.096 C 
HETATM    6  C15 UNL     1      53.864  43.044  69.826  1.00  0.00     0.041 C 
HETATM    7  C16 UNL     1      54.578  41.686  69.795  1.00  0.00     0.006 C 
HETATM    8  C17 UNL     1      53.703  40.550  70.210  1.00  0.00     0.041 C 
HETATM    9  C18 UNL     1      53.796  40.335  71.708  1.00  0.00     0.099 C 
HETATM   10  C19 UNL     1      55.208  39.987  72.069  1.00  0.00     0.071 C 
HETATM   11  C20 UNL     1      55.287  39.156  73.355  1.00  0.00     0.275 C 
HETATM   12  N6  UNL     1      54.643  37.885  73.205  1.00  0.00     0.090 N 
HETATM   13  C23 UNL     1      53.695  37.924  72.108  1.00  0.00     0.275 C 
HETATM   14  C24 UNL     1      52.910  39.216  72.169  1.00  0.00     0.071 C 
HETATM   15  O3  UNL     1      53.341  41.505  72.302  1.00  0.00    -0.229 OA
HETATM   16  O4  UNL     1      54.087  42.533  72.074  1.00  0.00    -0.229 OA
HETATM   17  C25 UNL     1      52.001  43.374  71.501  1.00  0.00     0.043 C 
HETATM   18  C26 UNL     1      51.070  44.059  70.592  1.00  0.00     0.029 C 
ENDROOT
BRANCH   1  19
HETATM   19  N5  UNL     1      50.687  46.282  71.543  1.00  0.00    -0.323 N 
HETATM   20  C6  UNL     1      49.598  45.990  72.260  1.00  0.00     0.136 A 
HETATM   21  N3  UNL     1      48.671  45.002  72.239  1.00  0.00    -0.348 N 
HETATM   22  C7  UNL     1      49.423  46.948  73.241  1.00  0.00     0.080 A 
HETATM   23  C5  UNL     1      47.635  44.922  73.094  1.00  0.00     0.119 A 
ATOM     24  H3  UNL     1      48.763  44.273  71.531  1.00  0.00     0.167 HD
HETATM   25  C4  UNL     1      47.434  45.860  74.080  1.00  0.00     0.049 A 
HETATM   26  C8  UNL     1      48.358  46.882  74.133  1.00  0.00     0.064 A 
HETATM   27  N4  UNL     1      50.443  47.794  73.062  1.00  0.00    -0.349 N 
HETATM   28  C9  UNL     1      51.216  47.404  72.040  1.00  0.00     0.185 A 
ATOM     29  H4  UNL     1      50.611  48.625  73.628  1.00  0.00     0.166 HD
BRANCH  25  30
HETATM   30  N2  UNL     1      46.341  45.781  74.984  1.00  0.00    -0.340 N 
ATOM     31  H2  UNL     1      45.426  45.539  74.601  1.00  0.00     0.164 HD
BRANCH  30  32
HETATM   32  C3  UNL     1      46.430  46.016  76.396  1.00  0.00     0.426 C 
BRANCH  32  33
HETATM   33  N1  UNL     1      45.540  45.091  77.110  1.00  0.00    -0.031 N 
ATOM     34  H12 UNL     1      44.656  44.938  76.624  1.00  0.00     0.282 HD
ATOM     35  H11 UNL     1      45.156  45.494  77.965  1.00  0.00     0.282 HD
BRANCH  33  36
HETATM   36  C2  UNL     1      46.269  43.864  77.347  1.00  0.00     0.233 C 
HETATM   37  C1  UNL     1      45.534  42.764  76.594  1.00  0.00     0.034 C 
ENDBRANCH  33  36
ENDBRANCH  32  33
BRANCH  32  38
HETATM   38  O1  UNL     1      45.966  47.302  76.661  1.00  0.00    -0.354 OA
ATOM     39  H1  UNL     1      45.051  47.319  76.409  1.00  0.00     0.214 HD
ENDBRANCH  32  38
ENDBRANCH  30  32
ENDBRANCH  25  30
ENDBRANCH   1  19
BRANCH  12  40
HETATM   40  C21 UNL     1      55.558  36.789  73.100  1.00  0.00     0.298 C 
BRANCH  40  41
HETATM   41  C22 UNL     1      55.640  36.314  71.681  1.00  0.00     0.194 C 
BRANCH  41  42
HETATM   42  O2  UNL     1      56.867  36.719  71.114  1.00  0.00    -0.399 OA
ATOM     43  H2  UNL     1      56.738  36.953  70.203  1.00  0.00     0.209 HD
ENDBRANCH  41  42
ENDBRANCH  40  41
ENDBRANCH  12  40
TORSDOF 9
ENDMDL
