MODEL 1
REMARK VINA RESULT: -4.212242983      0.000      0.000
REMARK  4 active torsions:
REMARK  status: ('A' for Active; 'I' for Inactive)
REMARK    1  A    between atoms: C3_3  and  C4_4 
REMARK    2  A    between atoms: C5_5  and  C6_6 
REMARK    3  A    between atoms: C6_6  and  N1_7 
REMARK    4  A    between atoms: N1_7  and  C7_9 
ROOT
HETATM    1  C1  UNL     1      -8.108  27.801  37.588  1.00  0.00     0.113 C 
HETATM    2  C2  UNL     1      -7.843  28.769  36.505  1.00  0.00    -0.097 C 
HETATM    3  C3  UNL     1      -7.626  29.578  35.630  1.00  0.00    -0.015 C 
ENDROOT
BRANCH   3   4
HETATM    4  C4  UNL     1      -7.371  30.543  34.620  1.00  0.00    -0.013 C 
HETATM    5  C5  UNL     1      -7.152  31.385  33.768  1.00  0.00    -0.073 C 
BRANCH   5   6
HETATM    6  C6  UNL     1      -6.879  32.414  32.760  1.00  0.00     0.217 C 
BRANCH   6   7
HETATM    7  N1  UNL     1      -5.572  33.002  32.929  1.00  0.00    -0.358 N 
ATOM      8  H1  UNL     1      -5.481  34.011  32.808  1.00  0.00     0.162 HD
BRANCH   7   9
HETATM    9  C7  UNL     1      -4.421  32.271  33.248  1.00  0.00     0.349 C 
HETATM   10  O1  UNL     1      -3.302  32.860  33.261  1.00  0.00    -0.284 OA
ENDBRANCH   7   9
ENDBRANCH   6   7
ENDBRANCH   5   6
ENDBRANCH   3   4
TORSDOF 4
ENDMDL
MODEL 2
REMARK VINA RESULT: -4.205048952      4.536      6.576
REMARK  4 active torsions:
REMARK  status: ('A' for Active; 'I' for Inactive)
REMARK    1  A    between atoms: C3_3  and  C4_4 
REMARK    2  A    between atoms: C5_5  and  C6_6 
REMARK    3  A    between atoms: C6_6  and  N1_7 
REMARK    4  A    between atoms: N1_7  and  C7_9 
ROOT
HETATM    1  C1  UNL     1      -6.181  32.149  32.962  1.00  0.00     0.113 C 
HETATM    2  C2  UNL     1      -6.666  31.161  33.946  1.00  0.00    -0.097 C 
HETATM    3  C3  UNL     1      -7.061  30.365  34.769  1.00  0.00    -0.015 C 
ENDROOT
BRANCH   3   4
HETATM    4  C4  UNL     1      -7.522  29.447  35.750  1.00  0.00    -0.013 C 
HETATM    5  C5  UNL     1      -7.917  28.675  36.604  1.00  0.00    -0.073 C 
BRANCH   5   6
HETATM    6  C6  UNL     1      -8.401  27.764  37.646  1.00  0.00     0.217 C 
BRANCH   6   7
HETATM    7  N1  UNL     1      -7.605  26.562  37.726  1.00  0.00    -0.358 N 
ATOM      8  H1  UNL     1      -6.862  26.432  37.039  1.00  0.00     0.162 HD
BRANCH   7   9
HETATM    9  C7  UNL     1      -7.792  25.564  38.690  1.00  0.00     0.349 C 
HETATM   10  O1  UNL     1      -6.780  25.026  39.224  1.00  0.00    -0.284 OA
ENDBRANCH   7   9
ENDBRANCH   6   7
ENDBRANCH   5   6
ENDBRANCH   3   4
TORSDOF 4
ENDMDL
MODEL 3
REMARK VINA RESULT: -4.080193809      1.739      2.348
REMARK  4 active torsions:
REMARK  status: ('A' for Active; 'I' for Inactive)
REMARK    1  A    between atoms: C3_3  and  C4_4 
REMARK    2  A    between atoms: C5_5  and  C6_6 
REMARK    3  A    between atoms: C6_6  and  N1_7 
REMARK    4  A    between atoms: N1_7  and  C7_9 
ROOT
HETATM    1  C1  UNL     1      -8.472  28.748  40.305  1.00  0.00     0.113 C 
HETATM    2  C2  UNL     1      -8.007  29.052  38.937  1.00  0.00    -0.097 C 
HETATM    3  C3  UNL     1      -7.609  29.312  37.823  1.00  0.00    -0.015 C 
ENDROOT
BRANCH   3   4
HETATM    4  C4  UNL     1      -7.124  29.624  36.525  1.00  0.00    -0.013 C 
HETATM    5  C5  UNL     1      -6.694  29.904  35.421  1.00  0.00    -0.073 C 
BRANCH   5   6
HETATM    6  C6  UNL     1      -6.154  30.247  34.102  1.00  0.00     0.217 C 
BRANCH   6   7
HETATM    7  N1  UNL     1      -6.969  31.226  33.423  1.00  0.00    -0.358 N 
ATOM      8  H1  UNL     1      -7.973  31.056  33.363  1.00  0.00     0.162 HD
BRANCH   7   9
HETATM    9  C7  UNL     1      -6.463  32.395  32.840  1.00  0.00     0.349 C 
HETATM   10  O1  UNL     1      -5.217  32.606  32.866  1.00  0.00    -0.284 OA
ENDBRANCH   7   9
ENDBRANCH   6   7
ENDBRANCH   5   6
ENDBRANCH   3   4
TORSDOF 4
ENDMDL
MODEL 4
REMARK VINA RESULT: -3.979231093      1.810      2.399
REMARK  4 active torsions:
REMARK  status: ('A' for Active; 'I' for Inactive)
REMARK    1  A    between atoms: C3_3  and  C4_4 
REMARK    2  A    between atoms: C5_5  and  C6_6 
REMARK    3  A    between atoms: C6_6  and  N1_7 
REMARK    4  A    between atoms: N1_7  and  C7_9 
ROOT
HETATM    1  C1  UNL     1      -9.616  27.091  38.829  1.00  0.00     0.113 C 
HETATM    2  C2  UNL     1      -8.750  27.788  37.857  1.00  0.00    -0.097 C 
HETATM    3  C3  UNL     1      -8.054  28.356  37.045  1.00  0.00    -0.015 C 
ENDROOT
BRANCH   3   4
HETATM    4  C4  UNL     1      -7.253  29.022  36.079  1.00  0.00    -0.013 C 
HETATM    5  C5  UNL     1      -6.578  29.582  35.236  1.00  0.00    -0.073 C 
BRANCH   5   6
HETATM    6  C6  UNL     1      -5.783  30.254  34.204  1.00  0.00     0.217 C 
BRANCH   6   7
HETATM    7  N1  UNL     1      -6.583  31.148  33.401  1.00  0.00    -0.358 N 
ATOM      8  H1  UNL     1      -7.523  30.849  33.143  1.00  0.00     0.162 HD
BRANCH   7   9
HETATM    9  C7  UNL     1      -6.145  32.402  32.956  1.00  0.00     0.349 C 
HETATM   10  O1  UNL     1      -6.999  33.254  32.578  1.00  0.00    -0.284 OA
ENDBRANCH   7   9
ENDBRANCH   6   7
ENDBRANCH   5   6
ENDBRANCH   3   4
TORSDOF 4
ENDMDL
MODEL 5
REMARK VINA RESULT: -3.969871382      4.238      6.157
REMARK  4 active torsions:
REMARK  status: ('A' for Active; 'I' for Inactive)
REMARK    1  A    between atoms: C3_3  and  C4_4 
REMARK    2  A    between atoms: C5_5  and  C6_6 
REMARK    3  A    between atoms: C6_6  and  N1_7 
REMARK    4  A    between atoms: N1_7  and  C7_9 
ROOT
HETATM    1  C1  UNL     1      -5.796  32.508  32.644  1.00  0.00     0.113 C 
HETATM    2  C2  UNL     1      -6.317  31.513  33.604  1.00  0.00    -0.097 C 
HETATM    3  C3  UNL     1      -6.745  30.712  34.405  1.00  0.00    -0.015 C 
ENDROOT
BRANCH   3   4
HETATM    4  C4  UNL     1      -7.250  29.789  35.359  1.00  0.00    -0.013 C 
HETATM    5  C5  UNL     1      -7.676  29.010  36.192  1.00  0.00    -0.073 C 
BRANCH   5   6
HETATM    6  C6  UNL     1      -8.189  28.090  37.211  1.00  0.00     0.217 C 
BRANCH   6   7
HETATM    7  N1  UNL     1      -7.430  28.164  38.437  1.00  0.00    -0.358 N 
ATOM      8  H1  UNL     1      -6.610  27.566  38.530  1.00  0.00     0.162 HD
BRANCH   7   9
HETATM    9  C7  UNL     1      -7.754  29.008  39.507  1.00  0.00     0.349 C 
HETATM   10  O1  UNL     1      -8.107  28.497  40.608  1.00  0.00    -0.284 OA
ENDBRANCH   7   9
ENDBRANCH   6   7
ENDBRANCH   5   6
ENDBRANCH   3   4
TORSDOF 4
ENDMDL
