MODEL 1
REMARK VINA RESULT: -11.854144155      0.000      0.000
REMARK  6 active torsions:
REMARK  status: ('A' for Active; 'I' for Inactive)
REMARK    1  A    between atoms: C3_3  and  O1_4 
REMARK    2  A    between atoms: O1_4  and  C4_5 
REMARK    3  A    between atoms: C9_10  and  N1_11 
REMARK       I    between atoms: N1_11  and  C10_12 
REMARK       I    between atoms: C10_12  and  N2_14 
REMARK    4  A    between atoms: N2_14  and  C11_16 
REMARK    5  A    between atoms: C14_21  and  N4_22 
REMARK    6  A    between atoms: N4_22  and  C15_24 
ROOT
HETATM    1  C1  UNL     1      14.715  14.362  34.278  1.00  0.00     0.014 C 
HETATM    2  C2  UNL     1      15.049  15.503  34.334  1.00  0.00    -0.091 C 
HETATM    3  C3  UNL     1      15.463  16.885  34.426  1.00  0.00     0.268 C 
ENDROOT
BRANCH   3   4
HETATM    4  O1  UNL     1      14.347  17.765  34.299  1.00  0.00    -0.339 OA
BRANCH   4   5
HETATM    5  C4  UNL     1      14.506  19.060  33.823  1.00  0.00     0.081 A 
HETATM    6  C5  UNL     1      15.627  19.468  33.146  1.00  0.00     0.038 A 
HETATM    7  C6  UNL     1      15.742  20.763  32.694  1.00  0.00     0.004 A 
HETATM    8  C7  UNL     1      14.737  21.691  32.905  1.00  0.00     0.016 A 
HETATM    9  C8  UNL     1      13.605  21.264  33.592  1.00  0.00     0.018 A 
HETATM   10  C9  UNL     1      12.583  22.234  33.811  1.00  0.00     0.123 A 
HETATM   11  C25 UNL     1      13.494  19.980  34.039  1.00  0.00     0.011 A 
HETATM   12  C22 UNL     1      11.472  21.745  34.522  1.00  0.00     0.046 A 
HETATM   13  C23 UNL     1      11.354  20.454  34.975  1.00  0.00     0.004 A 
HETATM   14  C24 UNL     1      12.367  19.572  34.733  1.00  0.00     0.015 A 
BRANCH  10  15
HETATM   15  N1  UNL     1      12.710  23.430  33.272  1.00  0.00    -0.351 NA
HETATM   16  C10 UNL     1      12.925  24.697  32.717  1.00  0.00     0.398 C 
HETATM   17  O2  UNL     1      14.051  25.264  32.674  1.00  0.00    -0.230 OA
HETATM   18  N2  UNL     1      11.879  25.502  32.131  1.00  0.00    -0.297 N 
ATOM     19  H2  UNL     1      11.915  25.680  31.127  1.00  0.00     0.172 HD
BRANCH  18  20
HETATM   20  C11 UNL     1      10.909  26.004  32.797  1.00  0.00     0.042 A 
HETATM   21  C12 UNL     1      11.190  26.735  33.928  1.00  0.00     0.046 A 
HETATM   22  C13 UNL     1      10.160  27.285  34.685  1.00  0.00     0.092 A 
HETATM   23  N3  UNL     1       8.868  27.084  34.283  1.00  0.00    -0.352 N 
HETATM   24  C14 UNL     1       8.532  26.387  33.199  1.00  0.00     0.107 A 
ATOM     25  H3  UNL     1       8.120  27.490  34.846  1.00  0.00     0.166 HD
HETATM   26  C21 UNL     1       9.598  25.844  32.455  1.00  0.00     0.078 A 
BRANCH  24  27
HETATM   27  N4  UNL     1       7.220  26.144  32.788  1.00  0.00    -0.342 N 
ATOM     28  H4  UNL     1       6.930  26.627  31.937  1.00  0.00     0.167 HD
BRANCH  27  29
HETATM   29  C15 UNL     1       6.254  25.335  33.379  1.00  0.00     0.033 A 
HETATM   30  C16 UNL     1       6.086  25.124  34.714  1.00  0.00     0.029 A 
HETATM   31  C17 UNL     1       5.121  24.283  35.219  1.00  0.00     0.002 A 
HETATM   32  C18 UNL     1       4.271  23.609  34.379  1.00  0.00     0.000 A 
HETATM   33  C19 UNL     1       4.418  23.804  33.010  1.00  0.00     0.002 A 
HETATM   34  C20 UNL     1       5.388  24.648  32.529  1.00  0.00     0.029 A 
ENDBRANCH  27  29
ENDBRANCH  24  27
ENDBRANCH  18  20
ENDBRANCH  10  15
ENDBRANCH   4   5
ENDBRANCH   3   4
TORSDOF 6
ENDMDL
MODEL 2
REMARK VINA RESULT: -11.453250136      1.508      2.590
REMARK  6 active torsions:
REMARK  status: ('A' for Active; 'I' for Inactive)
REMARK    1  A    between atoms: C3_3  and  O1_4 
REMARK    2  A    between atoms: O1_4  and  C4_5 
REMARK    3  A    between atoms: C9_10  and  N1_11 
REMARK       I    between atoms: N1_11  and  C10_12 
REMARK       I    between atoms: C10_12  and  N2_14 
REMARK    4  A    between atoms: N2_14  and  C11_16 
REMARK    5  A    between atoms: C14_21  and  N4_22 
REMARK    6  A    between atoms: N4_22  and  C15_24 
ROOT
HETATM    1  C1  UNL     1      14.528  13.650  33.983  1.00  0.00     0.014 C 
HETATM    2  C2  UNL     1      15.009  14.732  34.103  1.00  0.00    -0.091 C 
HETATM    3  C3  UNL     1      15.589  16.046  34.275  1.00  0.00     0.268 C 
ENDROOT
BRANCH   3   4
HETATM    4  O1  UNL     1      14.799  17.044  33.632  1.00  0.00    -0.339 OA
BRANCH   4   5
HETATM    5  C4  UNL     1      14.276  18.114  34.348  1.00  0.00     0.081 A 
HETATM    6  C5  UNL     1      13.613  17.957  35.537  1.00  0.00     0.038 A 
HETATM    7  C6  UNL     1      13.110  19.047  36.210  1.00  0.00     0.004 A 
HETATM    8  C7  UNL     1      13.255  20.330  35.712  1.00  0.00     0.016 A 
HETATM    9  C8  UNL     1      13.930  20.476  34.505  1.00  0.00     0.018 A 
HETATM   10  C9  UNL     1      14.062  21.803  34.000  1.00  0.00     0.123 A 
HETATM   11  C25 UNL     1      14.428  19.394  33.841  1.00  0.00     0.011 A 
HETATM   12  C22 UNL     1      14.742  21.883  32.770  1.00  0.00     0.046 A 
HETATM   13  C23 UNL     1      15.245  20.797  32.096  1.00  0.00     0.004 A 
HETATM   14  C24 UNL     1      15.087  19.553  32.632  1.00  0.00     0.015 A 
BRANCH  10  15
HETATM   15  N1  UNL     1      13.643  22.813  34.736  1.00  0.00    -0.351 NA
HETATM   16  C10 UNL     1      13.199  23.835  35.583  1.00  0.00     0.398 C 
HETATM   17  O2  UNL     1      12.987  23.683  36.817  1.00  0.00    -0.230 OA
HETATM   18  N2  UNL     1      12.930  25.182  35.138  1.00  0.00    -0.297 N 
ATOM     19  H2  UNL     1      13.530  25.931  35.483  1.00  0.00     0.172 HD
BRANCH  18  20
HETATM   20  C11 UNL     1      11.982  25.491  34.336  1.00  0.00     0.042 A 
HETATM   21  C12 UNL     1      12.274  25.683  33.007  1.00  0.00     0.046 A 
HETATM   22  C13 UNL     1      11.270  26.033  32.108  1.00  0.00     0.092 A 
HETATM   23  N3  UNL     1       9.993  26.183  32.574  1.00  0.00    -0.352 N 
HETATM   24  C14 UNL     1       9.647  26.010  33.848  1.00  0.00     0.107 A 
ATOM     25  H3  UNL     1       9.265  26.442  31.907  1.00  0.00     0.166 HD
HETATM   26  C21 UNL     1      10.686  25.656  34.731  1.00  0.00     0.078 A 
BRANCH  24  27
HETATM   27  N4  UNL     1       8.356  26.187  34.350  1.00  0.00    -0.342 N 
ATOM     28  H4  UNL     1       8.234  26.980  34.979  1.00  0.00     0.167 HD
BRANCH  27  29
HETATM   29  C15 UNL     1       7.213  25.430  34.109  1.00  0.00     0.033 A 
HETATM   30  C16 UNL     1       6.747  25.039  32.890  1.00  0.00     0.029 A 
HETATM   31  C17 UNL     1       5.588  24.314  32.735  1.00  0.00     0.002 A 
HETATM   32  C18 UNL     1       4.841  23.946  33.824  1.00  0.00     0.000 A 
HETATM   33  C19 UNL     1       5.291  24.329  35.083  1.00  0.00     0.002 A 
HETATM   34  C20 UNL     1       6.451  25.053  35.214  1.00  0.00     0.029 A 
ENDBRANCH  27  29
ENDBRANCH  24  27
ENDBRANCH  18  20
ENDBRANCH  10  15
ENDBRANCH   4   5
ENDBRANCH   3   4
TORSDOF 6
ENDMDL
MODEL 3
REMARK VINA RESULT: -11.367308366      1.754      2.528
REMARK  6 active torsions:
REMARK  status: ('A' for Active; 'I' for Inactive)
REMARK    1  A    between atoms: C3_3  and  O1_4 
REMARK    2  A    between atoms: O1_4  and  C4_5 
REMARK    3  A    between atoms: C9_10  and  N1_11 
REMARK       I    between atoms: N1_11  and  C10_12 
REMARK       I    between atoms: C10_12  and  N2_14 
REMARK    4  A    between atoms: N2_14  and  C11_16 
REMARK    5  A    between atoms: C14_21  and  N4_22 
REMARK    6  A    between atoms: N4_22  and  C15_24 
ROOT
HETATM    1  C1  UNL     1      15.171  15.130  34.197  1.00  0.00     0.014 C 
HETATM    2  C2  UNL     1      15.585  16.203  33.893  1.00  0.00    -0.091 C 
HETATM    3  C3  UNL     1      16.092  17.513  33.547  1.00  0.00     0.268 C 
ENDROOT
BRANCH   3   4
HETATM    4  O1  UNL     1      15.064  18.332  32.993  1.00  0.00    -0.339 OA
BRANCH   4   5
HETATM    5  C4  UNL     1      14.320  19.187  33.796  1.00  0.00     0.081 A 
HETATM    6  C5  UNL     1      13.601  18.749  34.878  1.00  0.00     0.038 A 
HETATM    7  C6  UNL     1      12.875  19.632  35.644  1.00  0.00     0.004 A 
HETATM    8  C7  UNL     1      12.846  20.985  35.350  1.00  0.00     0.016 A 
HETATM    9  C8  UNL     1      13.580  21.416  34.250  1.00  0.00     0.018 A 
HETATM   10  C9  UNL     1      13.532  22.810  33.953  1.00  0.00     0.123 A 
HETATM   11  C25 UNL     1      14.298  20.538  33.493  1.00  0.00     0.011 A 
HETATM   12  C22 UNL     1      14.282  23.182  32.823  1.00  0.00     0.046 A 
HETATM   13  C23 UNL     1      15.008  22.303  32.056  1.00  0.00     0.004 A 
HETATM   14  C24 UNL     1      15.014  20.980  32.392  1.00  0.00     0.015 A 
BRANCH  10  15
HETATM   15  N1  UNL     1      12.897  23.619  34.778  1.00  0.00    -0.351 NA
HETATM   16  C10 UNL     1      12.247  24.429  35.717  1.00  0.00     0.398 C 
HETATM   17  O2  UNL     1      12.242  24.202  36.957  1.00  0.00    -0.230 OA
HETATM   18  N2  UNL     1      11.506  25.619  35.370  1.00  0.00    -0.297 N 
ATOM     19  H2  UNL     1      11.868  26.519  35.685  1.00  0.00     0.172 HD
BRANCH  18  20
HETATM   20  C11 UNL     1      10.423  25.610  34.690  1.00  0.00     0.042 A 
HETATM   21  C12 UNL     1      10.491  25.804  33.331  1.00  0.00     0.046 A 
HETATM   22  C13 UNL     1       9.331  25.814  32.560  1.00  0.00     0.092 A 
HETATM   23  N3  UNL     1       8.128  25.628  33.182  1.00  0.00    -0.352 N 
HETATM   24  C14 UNL     1       7.996  25.434  34.494  1.00  0.00     0.107 A 
ATOM     25  H3  UNL     1       7.283  25.638  32.610  1.00  0.00     0.166 HD
HETATM   26  C21 UNL     1       9.189  25.430  35.244  1.00  0.00     0.078 A 
BRANCH  24  27
HETATM   27  N4  UNL     1       6.776  25.272  35.152  1.00  0.00    -0.342 N 
ATOM     28  H4  UNL     1       6.828  25.228  36.170  1.00  0.00     0.167 HD
BRANCH  27  29
HETATM   29  C15 UNL     1       5.498  25.163  34.611  1.00  0.00     0.033 A 
HETATM   30  C16 UNL     1       4.588  26.168  34.483  1.00  0.00     0.029 A 
HETATM   31  C17 UNL     1       3.330  25.971  33.962  1.00  0.00     0.002 A 
HETATM   32  C18 UNL     1       2.933  24.728  33.541  1.00  0.00     0.000 A 
HETATM   33  C19 UNL     1       3.841  23.680  33.657  1.00  0.00     0.002 A 
HETATM   34  C20 UNL     1       5.091  23.900  34.180  1.00  0.00     0.029 A 
ENDBRANCH  27  29
ENDBRANCH  24  27
ENDBRANCH  18  20
ENDBRANCH  10  15
ENDBRANCH   4   5
ENDBRANCH   3   4
TORSDOF 6
ENDMDL
MODEL 4
REMARK VINA RESULT: -11.112170060      1.682      2.580
REMARK  6 active torsions:
REMARK  status: ('A' for Active; 'I' for Inactive)
REMARK    1  A    between atoms: C3_3  and  O1_4 
REMARK    2  A    between atoms: O1_4  and  C4_5 
REMARK    3  A    between atoms: C9_10  and  N1_11 
REMARK       I    between atoms: N1_11  and  C10_12 
REMARK       I    between atoms: C10_12  and  N2_14 
REMARK    4  A    between atoms: N2_14  and  C11_16 
REMARK    5  A    between atoms: C14_21  and  N4_22 
REMARK    6  A    between atoms: N4_22  and  C15_24 
ROOT
HETATM    1  C1  UNL     1      15.198  15.653  34.130  1.00  0.00     0.014 C 
HETATM    2  C2  UNL     1      15.608  16.753  33.935  1.00  0.00    -0.091 C 
HETATM    3  C3  UNL     1      16.105  18.094  33.722  1.00  0.00     0.268 C 
ENDROOT
BRANCH   3   4
HETATM    4  O1  UNL     1      15.150  18.892  33.026  1.00  0.00    -0.339 OA
BRANCH   4   5
HETATM    5  C4  UNL     1      14.177  19.607  33.713  1.00  0.00     0.081 A 
HETATM    6  C5  UNL     1      13.354  19.031  34.645  1.00  0.00     0.038 A 
HETATM    7  C6  UNL     1      12.401  19.777  35.299  1.00  0.00     0.004 A 
HETATM    8  C7  UNL     1      12.243  21.128  35.040  1.00  0.00     0.016 A 
HETATM    9  C8  UNL     1      13.085  21.701  34.093  1.00  0.00     0.018 A 
HETATM   10  C9  UNL     1      12.902  23.090  33.829  1.00  0.00     0.123 A 
HETATM   11  C25 UNL     1      14.028  20.958  33.446  1.00  0.00     0.011 A 
HETATM   12  C22 UNL     1      13.774  23.608  32.852  1.00  0.00     0.046 A 
HETATM   13  C23 UNL     1      14.725  22.864  32.197  1.00  0.00     0.004 A 
HETATM   14  C24 UNL     1      14.850  21.538  32.495  1.00  0.00     0.015 A 
BRANCH  10  15
HETATM   15  N1  UNL     1      12.040  23.772  34.555  1.00  0.00    -0.351 NA
HETATM   16  C10 UNL     1      11.126  24.436  35.383  1.00  0.00     0.398 C 
HETATM   17  O2  UNL     1      10.731  23.989  36.494  1.00  0.00    -0.230 OA
HETATM   18  N2  UNL     1      10.530  25.710  35.056  1.00  0.00    -0.297 N 
ATOM     19  H2  UNL     1      10.773  26.516  35.632  1.00  0.00     0.172 HD
BRANCH  18  20
HETATM   20  C11 UNL     1       9.715  25.887  34.086  1.00  0.00     0.042 A 
HETATM   21  C12 UNL     1       9.927  26.938  33.225  1.00  0.00     0.046 A 
HETATM   22  C13 UNL     1       9.054  27.170  32.166  1.00  0.00     0.092 A 
HETATM   23  N3  UNL     1       7.985  26.334  32.002  1.00  0.00    -0.352 N 
HETATM   24  C14 UNL     1       7.726  25.299  32.800  1.00  0.00     0.107 A 
ATOM     25  H3  UNL     1       7.349  26.512  31.223  1.00  0.00     0.166 HD
HETATM   26  C21 UNL     1       8.629  25.093  33.861  1.00  0.00     0.078 A 
BRANCH  24  27
HETATM   27  N4  UNL     1       6.624  24.452  32.667  1.00  0.00    -0.342 N 
ATOM     28  H4  UNL     1       6.777  23.618  32.100  1.00  0.00     0.167 HD
BRANCH  27  29
HETATM   29  C15 UNL     1       5.347  24.588  33.202  1.00  0.00     0.033 A 
HETATM   30  C16 UNL     1       4.550  23.580  33.655  1.00  0.00     0.029 A 
HETATM   31  C17 UNL     1       3.283  23.796  34.144  1.00  0.00     0.002 A 
HETATM   32  C18 UNL     1       2.759  25.063  34.198  1.00  0.00     0.000 A 
HETATM   33  C19 UNL     1       3.548  26.114  33.743  1.00  0.00     0.002 A 
HETATM   34  C20 UNL     1       4.811  25.875  33.259  1.00  0.00     0.029 A 
ENDBRANCH  27  29
ENDBRANCH  24  27
ENDBRANCH  18  20
ENDBRANCH  10  15
ENDBRANCH   4   5
ENDBRANCH   3   4
TORSDOF 6
ENDMDL
MODEL 5
REMARK VINA RESULT: -11.019417513      1.535      2.026
REMARK  6 active torsions:
REMARK  status: ('A' for Active; 'I' for Inactive)
REMARK    1  A    between atoms: C3_3  and  O1_4 
REMARK    2  A    between atoms: O1_4  and  C4_5 
REMARK    3  A    between atoms: C9_10  and  N1_11 
REMARK       I    between atoms: N1_11  and  C10_12 
REMARK       I    between atoms: C10_12  and  N2_14 
REMARK    4  A    between atoms: N2_14  and  C11_16 
REMARK    5  A    between atoms: C14_21  and  N4_22 
REMARK    6  A    between atoms: N4_22  and  C15_24 
ROOT
HETATM    1  C1  UNL     1      14.405  12.602  35.467  1.00  0.00     0.014 C 
HETATM    2  C2  UNL     1      14.803  13.538  34.849  1.00  0.00    -0.091 C 
HETATM    3  C3  UNL     1      15.311  14.667  34.100  1.00  0.00     0.268 C 
ENDROOT
BRANCH   3   4
HETATM    4  O1  UNL     1      15.121  15.885  34.816  1.00  0.00    -0.339 OA
BRANCH   4   5
HETATM    5  C4  UNL     1      15.078  17.106  34.154  1.00  0.00     0.081 A 
HETATM    6  C5  UNL     1      15.728  17.330  32.968  1.00  0.00     0.038 A 
HETATM    7  C6  UNL     1      15.659  18.556  32.349  1.00  0.00     0.004 A 
HETATM    8  C7  UNL     1      14.935  19.600  32.898  1.00  0.00     0.016 A 
HETATM    9  C8  UNL     1      14.279  19.360  34.101  1.00  0.00     0.018 A 
HETATM   10  C9  UNL     1      13.545  20.448  34.660  1.00  0.00     0.123 A 
HETATM   11  C25 UNL     1      14.349  18.143  34.712  1.00  0.00     0.011 A 
HETATM   12  C22 UNL     1      12.916  20.147  35.882  1.00  0.00     0.046 A 
HETATM   13  C23 UNL     1      12.983  18.924  36.503  1.00  0.00     0.004 A 
HETATM   14  C24 UNL     1      13.701  17.922  35.916  1.00  0.00     0.015 A 
BRANCH  10  15
HETATM   15  N1  UNL     1      13.438  21.567  33.973  1.00  0.00    -0.351 NA
HETATM   16  C10 UNL     1      13.407  22.762  33.244  1.00  0.00     0.398 C 
HETATM   17  O2  UNL     1      14.438  23.399  32.893  1.00  0.00    -0.230 OA
HETATM   18  N2  UNL     1      12.188  23.404  32.811  1.00  0.00    -0.297 N 
ATOM     19  H2  UNL     1      11.998  23.450  31.810  1.00  0.00     0.172 HD
BRANCH  18  20
HETATM   20  C11 UNL     1      11.332  23.919  33.611  1.00  0.00     0.042 A 
HETATM   21  C12 UNL     1      11.588  23.894  34.961  1.00  0.00     0.046 A 
HETATM   22  C13 UNL     1      10.673  24.433  35.862  1.00  0.00     0.092 A 
HETATM   23  N3  UNL     1       9.519  24.983  35.377  1.00  0.00    -0.352 N 
HETATM   24  C14 UNL     1       9.215  25.038  34.081  1.00  0.00     0.107 A 
ATOM     25  H3  UNL     1       8.854  25.374  36.045  1.00  0.00     0.166 HD
HETATM   26  C21 UNL     1      10.161  24.485  33.197  1.00  0.00     0.078 A 
BRANCH  24  27
HETATM   27  N4  UNL     1       8.030  25.568  33.567  1.00  0.00    -0.342 N 
ATOM     28  H4  UNL     1       8.133  26.416  33.008  1.00  0.00     0.167 HD
BRANCH  27  29
HETATM   29  C15 UNL     1       6.727  25.101  33.713  1.00  0.00     0.033 A 
HETATM   30  C16 UNL     1       6.071  24.894  34.889  1.00  0.00     0.029 A 
HETATM   31  C17 UNL     1       4.788  24.400  34.948  1.00  0.00     0.002 A 
HETATM   32  C18 UNL     1       4.104  24.089  33.801  1.00  0.00     0.000 A 
HETATM   33  C19 UNL     1       4.747  24.290  32.584  1.00  0.00     0.002 A 
HETATM   34  C20 UNL     1       6.027  24.784  32.548  1.00  0.00     0.029 A 
ENDBRANCH  27  29
ENDBRANCH  24  27
ENDBRANCH  18  20
ENDBRANCH  10  15
ENDBRANCH   4   5
ENDBRANCH   3   4
TORSDOF 6
ENDMDL
