MODEL 1
REMARK VINA RESULT: -5.561180294      0.000      0.000
REMARK  3 active torsions:
REMARK  status: ('A' for Active; 'I' for Inactive)
REMARK    1  A    between atoms: N1_2  and  C2_5 
REMARK    2  A    between atoms: C2_5  and  N2_6 
REMARK    3  A    between atoms: N2_6  and  C3_8 
ROOT
HETATM    1  C3  UNL     1      83.779 -15.389  64.590  1.00  0.00     0.206 C 
HETATM    2  C4  UNL     1      84.709 -15.746  63.512  1.00  0.00     0.036 C 
HETATM    3  C5  UNL     1      84.536 -16.795  62.783  1.00  0.00     0.090 C 
HETATM    4  N3  UNL     1      83.445 -17.711  62.941  1.00  0.00    -0.341 N 
ATOM      5  H3  UNL     1      83.359 -18.538  62.351  1.00  0.00     0.167 HD
HETATM    6  C6  UNL     1      82.560 -17.445  63.875  1.00  0.00     0.189 C 
HETATM    7  N4  UNL     1      81.467 -18.268  64.151  1.00  0.00    -0.063 NA
HETATM    8  N5  UNL     1      82.632 -16.209  64.618  1.00  0.00    -0.340 N 
ATOM      9  H5  UNL     1      81.831 -15.922  65.180  1.00  0.00     0.164 HD
ENDROOT
BRANCH   1  10
HETATM   10  N2  UNL     1      84.554 -15.480  65.850  1.00  0.00    -0.376 N 
ATOM     11  H2  UNL     1      84.352 -16.179  66.564  1.00  0.00     0.157 HD
BRANCH  10  12
HETATM   12  C2  UNL     1      85.606 -14.520  65.996  1.00  0.00     0.351 C 
BRANCH  12  13
HETATM   13  N1  UNL     1      85.332 -13.735  67.177  1.00  0.00    -0.064 N 
HETATM   14  C1  UNL     1      84.658 -12.536  66.816  1.00  0.00     0.269 C 
ATOM     15  H12 UNL     1      86.176 -13.551  67.720  1.00  0.00     0.278 HD
ATOM     16  H11 UNL     1      84.818 -14.266  67.880  1.00  0.00     0.278 HD
ENDBRANCH  12  13
ENDBRANCH  10  12
ENDBRANCH   1  10
TORSDOF 3
ENDMDL
MODEL 2
REMARK VINA RESULT: -5.254644953      1.486      4.726
REMARK  3 active torsions:
REMARK  status: ('A' for Active; 'I' for Inactive)
REMARK    1  A    between atoms: N1_2  and  C2_5 
REMARK    2  A    between atoms: C2_5  and  N2_6 
REMARK    3  A    between atoms: N2_6  and  C3_8 
ROOT
HETATM    1  C3  UNL     1      84.181 -15.143  65.202  1.00  0.00     0.206 C 
HETATM    2  C4  UNL     1      85.576 -15.575  65.056  1.00  0.00     0.036 C 
HETATM    3  C5  UNL     1      86.548 -14.939  65.615  1.00  0.00     0.090 C 
HETATM    4  N3  UNL     1      86.381 -13.765  66.420  1.00  0.00    -0.341 N 
ATOM      5  H3  UNL     1      87.183 -13.286  66.828  1.00  0.00     0.167 HD
HETATM    6  C6  UNL     1      85.156 -13.330  66.611  1.00  0.00     0.189 C 
HETATM    7  N4  UNL     1      84.858 -12.184  67.349  1.00  0.00    -0.063 NA
HETATM    8  N5  UNL     1      84.028 -14.089  66.127  1.00  0.00    -0.340 N 
ATOM      9  H5  UNL     1      83.093 -13.856  66.463  1.00  0.00     0.164 HD
ENDROOT
BRANCH   1  10
HETATM   10  N2  UNL     1      83.725 -14.758  63.846  1.00  0.00    -0.376 N 
ATOM     11  H2  UNL     1      84.243 -14.100  63.263  1.00  0.00     0.157 HD
BRANCH  10  12
HETATM   12  C2  UNL     1      82.506 -15.371  63.409  1.00  0.00     0.351 C 
BRANCH  12  13
HETATM   13  N1  UNL     1      82.281 -16.544  64.222  1.00  0.00    -0.064 N 
HETATM   14  C1  UNL     1      82.417 -17.716  63.427  1.00  0.00     0.269 C 
ATOM     15  H12 UNL     1      81.383 -16.510  64.704  1.00  0.00     0.278 HD
ATOM     16  H11 UNL     1      82.889 -16.565  65.041  1.00  0.00     0.278 HD
ENDBRANCH  12  13
ENDBRANCH  10  12
ENDBRANCH   1  10
TORSDOF 3
ENDMDL
MODEL 3
REMARK VINA RESULT: -5.152122198      0.701      1.132
REMARK  3 active torsions:
REMARK  status: ('A' for Active; 'I' for Inactive)
REMARK    1  A    between atoms: N1_2  and  C2_5 
REMARK    2  A    between atoms: C2_5  and  N2_6 
REMARK    3  A    between atoms: N2_6  and  C3_8 
ROOT
HETATM    1  C3  UNL     1      83.500 -15.369  64.345  1.00  0.00     0.206 C 
HETATM    2  C4  UNL     1      84.522 -15.794  63.382  1.00  0.00     0.036 C 
HETATM    3  C5  UNL     1      84.460 -16.933  62.782  1.00  0.00     0.090 C 
HETATM    4  N3  UNL     1      83.414 -17.891  62.985  1.00  0.00    -0.341 N 
ATOM      5  H3  UNL     1      83.417 -18.788  62.499  1.00  0.00     0.167 HD
HETATM    6  C6  UNL     1      82.452 -17.571  63.820  1.00  0.00     0.189 C 
HETATM    7  N4  UNL     1      81.391 -18.424  64.128  1.00  0.00    -0.063 NA
HETATM    8  N5  UNL     1      82.401 -16.252  64.404  1.00  0.00    -0.340 N 
ATOM      9  H5  UNL     1      81.548 -15.951  64.874  1.00  0.00     0.164 HD
ENDROOT
BRANCH   1  10
HETATM   10  N2  UNL     1      84.187 -15.256  65.653  1.00  0.00    -0.376 N 
ATOM     11  H2  UNL     1      84.204 -16.020  66.328  1.00  0.00     0.157 HD
BRANCH  10  12
HETATM   12  C2  UNL     1      84.828 -14.000  65.905  1.00  0.00     0.351 C 
BRANCH  12  13
HETATM   13  N1  UNL     1      85.981 -14.247  66.740  1.00  0.00    -0.064 N 
HETATM   14  C1  UNL     1      87.000 -14.885  65.980  1.00  0.00     0.269 C 
ATOM     15  H12 UNL     1      85.741 -14.775  67.579  1.00  0.00     0.278 HD
ATOM     16  H11 UNL     1      86.316 -13.396  67.192  1.00  0.00     0.278 HD
ENDBRANCH  12  13
ENDBRANCH  10  12
ENDBRANCH   1  10
TORSDOF 3
ENDMDL
MODEL 4
REMARK VINA RESULT: -5.094347182      1.843      4.581
REMARK  3 active torsions:
REMARK  status: ('A' for Active; 'I' for Inactive)
REMARK    1  A    between atoms: N1_2  and  C2_5 
REMARK    2  A    between atoms: C2_5  and  N2_6 
REMARK    3  A    between atoms: N2_6  and  C3_8 
ROOT
HETATM    1  C3  UNL     1      84.184 -14.588  64.499  1.00  0.00     0.206 C 
HETATM    2  C4  UNL     1      84.337 -13.610  65.582  1.00  0.00     0.036 C 
HETATM    3  C5  UNL     1      85.399 -13.561  66.310  1.00  0.00     0.090 C 
HETATM    4  N3  UNL     1      86.521 -14.438  66.152  1.00  0.00    -0.341 N 
ATOM      5  H3  UNL     1      87.334 -14.373  66.765  1.00  0.00     0.167 HD
HETATM    6  C6  UNL     1      86.464 -15.329  65.188  1.00  0.00     0.189 C 
HETATM    7  N4  UNL     1      87.475 -16.259  64.945  1.00  0.00    -0.063 NA
HETATM    8  N5  UNL     1      85.361 -15.327  64.257  1.00  0.00    -0.340 N 
ATOM      9  H5  UNL     1      85.435 -15.875  63.400  1.00  0.00     0.164 HD
ENDROOT
BRANCH   1  10
HETATM   10  N2  UNL     1      83.054 -15.463  64.891  1.00  0.00    -0.376 N 
ATOM     11  H2  UNL     1      82.665 -15.461  65.834  1.00  0.00     0.157 HD
BRANCH  10  12
HETATM   12  C2  UNL     1      82.546 -16.313  63.856  1.00  0.00     0.351 C 
BRANCH  12  13
HETATM   13  N1  UNL     1      81.441 -15.631  63.222  1.00  0.00    -0.064 N 
HETATM   14  C1  UNL     1      81.727 -15.423  61.845  1.00  0.00     0.269 C 
ATOM     15  H12 UNL     1      81.202 -14.762  63.699  1.00  0.00     0.278 HD
ATOM     16  H11 UNL     1      80.558 -16.123  63.360  1.00  0.00     0.278 HD
ENDBRANCH  12  13
ENDBRANCH  10  12
ENDBRANCH   1  10
TORSDOF 3
ENDMDL
MODEL 5
REMARK VINA RESULT: -4.982889015      1.366      1.550
REMARK  3 active torsions:
REMARK  status: ('A' for Active; 'I' for Inactive)
REMARK    1  A    between atoms: N1_2  and  C2_5 
REMARK    2  A    between atoms: C2_5  and  N2_6 
REMARK    3  A    between atoms: N2_6  and  C3_8 
ROOT
HETATM    1  C3  UNL     1      84.665 -14.910  64.175  1.00  0.00     0.206 C 
HETATM    2  C4  UNL     1      85.097 -16.194  63.610  1.00  0.00     0.036 C 
HETATM    3  C5  UNL     1      84.321 -16.907  62.868  1.00  0.00     0.090 C 
HETATM    4  N3  UNL     1      82.980 -16.538  62.522  1.00  0.00    -0.341 N 
ATOM      5  H3  UNL     1      82.397 -17.144  61.946  1.00  0.00     0.167 HD
HETATM    6  C6  UNL     1      82.530 -15.390  62.977  1.00  0.00     0.189 C 
HETATM    7  N4  UNL     1      81.236 -14.927  62.738  1.00  0.00    -0.063 NA
HETATM    8  N5  UNL     1      83.408 -14.493  63.689  1.00  0.00    -0.340 N 
ATOM      9  H5  UNL     1      83.111 -13.530  63.846  1.00  0.00     0.164 HD
ENDROOT
BRANCH   1  10
HETATM   10  N2  UNL     1      84.656 -15.090  65.646  1.00  0.00    -0.376 N 
ATOM     11  H2  UNL     1      83.907 -15.585  66.130  1.00  0.00     0.157 HD
BRANCH  10  12
HETATM   12  C2  UNL     1      85.771 -14.521  66.342  1.00  0.00     0.351 C 
BRANCH  12  13
HETATM   13  N1  UNL     1      85.256 -13.665  67.385  1.00  0.00    -0.064 N 
HETATM   14  C1  UNL     1      84.674 -12.501  66.812  1.00  0.00     0.269 C 
ATOM     15  H12 UNL     1      85.967 -13.436  68.079  1.00  0.00     0.278 HD
ATOM     16  H11 UNL     1      84.605 -14.157  67.998  1.00  0.00     0.278 HD
ENDBRANCH  12  13
ENDBRANCH  10  12
ENDBRANCH   1  10
TORSDOF 3
ENDMDL
