MODEL 1
REMARK VINA RESULT: -7.569782839      0.000      0.000
REMARK  13 active torsions:
REMARK  status: ('A' for Active; 'I' for Inactive)
REMARK    1  A    between atoms: C2_2  and  C4_4 
REMARK    2  A    between atoms: C4_4  and  C5_5 
REMARK    3  A    between atoms: C7_10  and  C8_11 
REMARK    4  A    between atoms: C8_11  and  C9_12 
REMARK    5  A    between atoms: C13_19  and  C14_20 
REMARK    6  A    between atoms: C14_20  and  C15_21 
REMARK    7  A    between atoms: C21_29  and  O3_30 
REMARK    8  A    between atoms: C22_32  and  C23_33 
REMARK    9  A    between atoms: C23_33  and  C24_34 
REMARK   10  A    between atoms: C24_34  and  C25_35 
REMARK   11  A    between atoms: C25_35  and  C26_36 
REMARK   12  A    between atoms: C26_36  and  N5_37 
REMARK       I    between atoms: N5_37  and  C27_38 
REMARK       I    between atoms: C27_38  and  N6_40 
REMARK   13  A    between atoms: N6_40  and  N7_42 
ROOT
HETATM    1  C5  UNL     1      26.106  22.659   5.978  1.00  0.00     0.177 C 
HETATM    2  N1  UNL     1      25.984  23.936   6.561  1.00  0.00    -0.346 N 
ATOM      3  H1  UNL     1      25.016  24.239   6.671  1.00  0.00     0.163 HD
HETATM    4  C6  UNL     1      26.911  24.869   7.019  1.00  0.00     0.241 C 
HETATM    5  O1  UNL     1      26.682  25.337   8.202  1.00  0.00    -0.271 OA
HETATM    6  C7  UNL     1      28.105  25.394   6.359  1.00  0.00     0.177 C 
HETATM    7  N2  UNL     1      27.928  25.918   5.029  1.00  0.00    -0.343 N 
ATOM      8  H2  UNL     1      28.758  25.848   4.441  1.00  0.00     0.163 HD
HETATM    9  C12 UNL     1      26.842  26.497   4.402  1.00  0.00     0.266 C 
HETATM   10  O2  UNL     1      26.795  26.377   3.117  1.00  0.00    -0.266 OA
HETATM   11  C13 UNL     1      25.692  27.241   4.875  1.00  0.00     0.096 C 
HETATM   12  N3  UNL     1      24.505  27.212   4.254  1.00  0.00    -0.287 N 
HETATM   13  C18 UNL     1      23.613  28.355   4.352  1.00  0.00     0.151 C 
HETATM   14  C19 UNL     1      22.749  28.225   3.108  1.00  0.00     0.044 C 
HETATM   15  C20 UNL     1      23.566  27.151   2.367  1.00  0.00     0.153 C 
HETATM   16  N4  UNL     1      23.815  26.278   3.556  1.00  0.00    -0.271 N 
HETATM   17  C21 UNL     1      23.317  25.009   3.730  1.00  0.00     0.156 C 
HETATM   18  C22 UNL     1      23.773  23.595   3.748  1.00  0.00     0.161 C 
HETATM   19  N8  UNL     1      25.161  23.345   3.667  1.00  0.00    -0.347 N 
ATOM     20  H8  UNL     1      25.617  23.771   2.861  1.00  0.00     0.163 HD
HETATM   21  C31 UNL     1      26.021  22.617   4.496  1.00  0.00     0.241 C 
HETATM   22  O5  UNL     1      26.817  21.826   3.849  1.00  0.00    -0.271 OA
ENDROOT
BRANCH  18  23
HETATM   23  C23 UNL     1      23.304  23.075   2.329  1.00  0.00     0.037 C 
BRANCH  23  24
HETATM   24  C24 UNL     1      22.873  21.678   2.353  1.00  0.00     0.032 C 
BRANCH  24  25
HETATM   25  C25 UNL     1      22.268  21.168   3.601  1.00  0.00     0.005 C 
BRANCH  25  26
HETATM   26  C26 UNL     1      22.988  20.276   4.508  1.00  0.00     0.184 C 
BRANCH  26  27
HETATM   27  N5  UNL     1      22.445  19.099   5.029  1.00  0.00    -0.364 NA
HETATM   28  C27 UNL     1      21.930  17.981   5.524  1.00  0.00     0.417 C 
HETATM   29  O4  UNL     1      21.062  17.890   6.473  1.00  0.00    -0.228 OA
HETATM   30  N6  UNL     1      22.284  16.640   5.050  1.00  0.00    -0.155 N 
ATOM     31  H6  UNL     1      22.970  16.574   4.298  1.00  0.00     0.200 HD
BRANCH  30  32
HETATM   32  N7  UNL     1      21.769  15.471   5.537  1.00  0.00     0.005 N 
HETATM   33  C28 UNL     1      22.299  15.039   6.813  1.00  0.00     0.301 C 
HETATM   34  C29 UNL     1      20.317  15.454   5.617  1.00  0.00     0.301 C 
HETATM   35  C30 UNL     1      22.140  14.387   4.596  1.00  0.00     0.301 C 
ENDBRANCH  30  32
ENDBRANCH  26  27
ENDBRANCH  25  26
ENDBRANCH  24  25
ENDBRANCH  23  24
ENDBRANCH  18  23
BRANCH  17  36
HETATM   36  O3  UNL     1      21.982  24.933   3.964  1.00  0.00    -0.347 OA
ATOM     37  H3  UNL     1      21.709  24.235   4.548  1.00  0.00     0.219 HD
ENDBRANCH  17  36
BRANCH   1  38
HETATM   38  C4  UNL     1      27.317  21.845   6.385  1.00  0.00     0.038 C 
BRANCH  38  39
HETATM   39  C2  UNL     1      27.080  20.878   7.492  1.00  0.00    -0.020 C 
HETATM   40  C1  UNL     1      25.659  20.341   7.300  1.00  0.00     0.009 C 
HETATM   41  C3  UNL     1      27.090  21.546   8.851  1.00  0.00     0.009 C 
ENDBRANCH  38  39
ENDBRANCH   1  38
BRANCH  11  42
HETATM   42  C14 UNL     1      26.098  28.639   5.277  1.00  0.00     0.068 C 
BRANCH  42  43
HETATM   43  C15 UNL     1      26.536  28.917   6.659  1.00  0.00    -0.017 C 
HETATM   44  C16 UNL     1      27.697  29.970   6.535  1.00  0.00     0.010 C 
HETATM   45  C17 UNL     1      25.550  29.692   7.521  1.00  0.00     0.010 C 
ENDBRANCH  42  43
ENDBRANCH  11  42
BRANCH   6  46
HETATM   46  C8  UNL     1      28.935  26.304   7.214  1.00  0.00     0.038 C 
BRANCH  46  47
HETATM   47  C9  UNL     1      30.179  26.846   6.634  1.00  0.00    -0.020 C 
HETATM   48  C10 UNL     1      30.679  28.016   7.480  1.00  0.00     0.009 C 
HETATM   49  C11 UNL     1      31.232  25.715   6.789  1.00  0.00     0.009 C 
ENDBRANCH  46  47
ENDBRANCH   6  46
TORSDOF 13
ENDMDL
MODEL 2
REMARK VINA RESULT: -7.504735095      1.914      2.374
REMARK  13 active torsions:
REMARK  status: ('A' for Active; 'I' for Inactive)
REMARK    1  A    between atoms: C2_2  and  C4_4 
REMARK    2  A    between atoms: C4_4  and  C5_5 
REMARK    3  A    between atoms: C7_10  and  C8_11 
REMARK    4  A    between atoms: C8_11  and  C9_12 
REMARK    5  A    between atoms: C13_19  and  C14_20 
REMARK    6  A    between atoms: C14_20  and  C15_21 
REMARK    7  A    between atoms: C21_29  and  O3_30 
REMARK    8  A    between atoms: C22_32  and  C23_33 
REMARK    9  A    between atoms: C23_33  and  C24_34 
REMARK   10  A    between atoms: C24_34  and  C25_35 
REMARK   11  A    between atoms: C25_35  and  C26_36 
REMARK   12  A    between atoms: C26_36  and  N5_37 
REMARK       I    between atoms: N5_37  and  C27_38 
REMARK       I    between atoms: C27_38  and  N6_40 
REMARK   13  A    between atoms: N6_40  and  N7_42 
ROOT
HETATM    1  C5  UNL     1      26.404  23.335   6.834  1.00  0.00     0.177 C 
HETATM    2  N1  UNL     1      26.599  24.657   7.280  1.00  0.00    -0.346 N 
ATOM      3  H1  UNL     1      25.730  25.182   7.380  1.00  0.00     0.163 HD
HETATM    4  C6  UNL     1      27.732  25.396   7.612  1.00  0.00     0.241 C 
HETATM    5  O1  UNL     1      27.671  26.018   8.743  1.00  0.00    -0.271 OA
HETATM    6  C7  UNL     1      28.980  25.568   6.870  1.00  0.00     0.177 C 
HETATM    7  N2  UNL     1      28.859  25.985   5.496  1.00  0.00    -0.343 N 
ATOM      8  H2  UNL     1      29.623  25.670   4.898  1.00  0.00     0.163 HD
HETATM    9  C12 UNL     1      27.901  26.731   4.838  1.00  0.00     0.266 C 
HETATM   10  O2  UNL     1      27.767  26.498   3.575  1.00  0.00    -0.266 OA
HETATM   11  C13 UNL     1      26.971  27.759   5.258  1.00  0.00     0.096 C 
HETATM   12  N3  UNL     1      25.779  27.940   4.673  1.00  0.00    -0.287 N 
HETATM   13  C18 UNL     1      25.171  29.260   4.670  1.00  0.00     0.151 C 
HETATM   14  C19 UNL     1      24.240  29.208   3.470  1.00  0.00     0.044 C 
HETATM   15  C20 UNL     1      24.760  27.908   2.827  1.00  0.00     0.153 C 
HETATM   16  N4  UNL     1      24.865  27.124   4.096  1.00  0.00    -0.271 N 
HETATM   17  C21 UNL     1      24.105  26.024   4.417  1.00  0.00     0.156 C 
HETATM   18  C22 UNL     1      24.234  24.552   4.575  1.00  0.00     0.161 C 
HETATM   19  N8  UNL     1      25.525  23.986   4.487  1.00  0.00    -0.347 N 
ATOM     20  H8  UNL     1      26.025  24.216   3.629  1.00  0.00     0.163 HD
HETATM   21  C31 UNL     1      26.240  23.167   5.367  1.00  0.00     0.241 C 
HETATM   22  O5  UNL     1      26.807  22.156   4.788  1.00  0.00    -0.271 OA
ENDROOT
BRANCH  18  23
HETATM   23  C23 UNL     1      23.592  24.015   3.232  1.00  0.00     0.037 C 
BRANCH  23  24
HETATM   24  C24 UNL     1      24.538  24.010   2.116  1.00  0.00     0.032 C 
BRANCH  24  25
HETATM   25  C25 UNL     1      24.578  22.807   1.258  1.00  0.00     0.005 C 
BRANCH  25  26
HETATM   26  C26 UNL     1      25.356  21.622   1.614  1.00  0.00     0.184 C 
BRANCH  26  27
HETATM   27  N5  UNL     1      24.884  20.610   2.453  1.00  0.00    -0.364 NA
HETATM   28  C27 UNL     1      24.435  19.648   3.250  1.00  0.00     0.417 C 
HETATM   29  O4  UNL     1      23.464  18.837   3.003  1.00  0.00    -0.228 OA
HETATM   30  N6  UNL     1      24.995  19.358   4.574  1.00  0.00    -0.155 N 
ATOM     31  H6  UNL     1      25.772  19.937   4.891  1.00  0.00     0.200 HD
BRANCH  30  32
HETATM   32  N7  UNL     1      24.558  18.373   5.415  1.00  0.00     0.005 N 
HETATM   33  C28 UNL     1      23.174  18.474   5.827  1.00  0.00     0.301 C 
HETATM   34  C29 UNL     1      24.788  17.026   4.918  1.00  0.00     0.301 C 
HETATM   35  C30 UNL     1      25.329  18.483   6.677  1.00  0.00     0.301 C 
ENDBRANCH  30  32
ENDBRANCH  26  27
ENDBRANCH  25  26
ENDBRANCH  24  25
ENDBRANCH  23  24
ENDBRANCH  18  23
BRANCH  17  36
HETATM   36  O3  UNL     1      22.800  26.277   4.692  1.00  0.00    -0.347 OA
ATOM     37  H3  UNL     1      22.173  25.717   4.249  1.00  0.00     0.219 HD
ENDBRANCH  17  36
BRANCH   1  38
HETATM   38  C4  UNL     1      27.421  22.311   7.295  1.00  0.00     0.038 C 
BRANCH  38  39
HETATM   39  C2  UNL     1      27.153  21.721   8.635  1.00  0.00    -0.020 C 
HETATM   40  C1  UNL     1      27.761  20.316   8.618  1.00  0.00     0.009 C 
HETATM   41  C3  UNL     1      25.674  21.529   8.894  1.00  0.00     0.009 C 
ENDBRANCH  38  39
ENDBRANCH   1  38
BRANCH  11  42
HETATM   42  C14 UNL     1      27.698  29.062   5.497  1.00  0.00     0.068 C 
BRANCH  42  43
HETATM   43  C15 UNL     1      28.167  29.412   6.853  1.00  0.00    -0.017 C 
HETATM   44  C16 UNL     1      28.490  30.950   6.808  1.00  0.00     0.010 C 
HETATM   45  C17 UNL     1      27.107  29.383   7.945  1.00  0.00     0.010 C 
ENDBRANCH  42  43
ENDBRANCH  11  42
BRANCH   6  46
HETATM   46  C8  UNL     1      30.032  26.345   7.601  1.00  0.00     0.038 C 
BRANCH  46  47
HETATM   47  C9  UNL     1      31.141  26.914   6.810  1.00  0.00    -0.020 C 
HETATM   48  C10 UNL     1      31.651  28.191   7.476  1.00  0.00     0.009 C 
HETATM   49  C11 UNL     1      32.293  25.879   6.911  1.00  0.00     0.009 C 
ENDBRANCH  46  47
ENDBRANCH   6  46
TORSDOF 13
ENDMDL
MODEL 3
REMARK VINA RESULT: -7.457923832      1.142      1.317
REMARK  13 active torsions:
REMARK  status: ('A' for Active; 'I' for Inactive)
REMARK    1  A    between atoms: C2_2  and  C4_4 
REMARK    2  A    between atoms: C4_4  and  C5_5 
REMARK    3  A    between atoms: C7_10  and  C8_11 
REMARK    4  A    between atoms: C8_11  and  C9_12 
REMARK    5  A    between atoms: C13_19  and  C14_20 
REMARK    6  A    between atoms: C14_20  and  C15_21 
REMARK    7  A    between atoms: C21_29  and  O3_30 
REMARK    8  A    between atoms: C22_32  and  C23_33 
REMARK    9  A    between atoms: C23_33  and  C24_34 
REMARK   10  A    between atoms: C24_34  and  C25_35 
REMARK   11  A    between atoms: C25_35  and  C26_36 
REMARK   12  A    between atoms: C26_36  and  N5_37 
REMARK       I    between atoms: N5_37  and  C27_38 
REMARK       I    between atoms: C27_38  and  N6_40 
REMARK   13  A    between atoms: N6_40  and  N7_42 
ROOT
HETATM    1  C5  UNL     1      26.168  22.683   6.031  1.00  0.00     0.177 C 
HETATM    2  N1  UNL     1      25.928  23.981   6.524  1.00  0.00    -0.346 N 
ATOM      3  H1  UNL     1      24.937  24.197   6.627  1.00  0.00     0.163 HD
HETATM    4  C6  UNL     1      26.765  25.030   6.899  1.00  0.00     0.241 C 
HETATM    5  O1  UNL     1      26.502  25.558   8.049  1.00  0.00    -0.271 OA
HETATM    6  C7  UNL     1      27.896  25.618   6.183  1.00  0.00     0.177 C 
HETATM    7  N2  UNL     1      27.655  26.024   4.822  1.00  0.00    -0.343 N 
ATOM      8  H2  UNL     1      28.483  25.992   4.227  1.00  0.00     0.163 HD
HETATM    9  C12 UNL     1      26.512  26.450   4.173  1.00  0.00     0.266 C 
HETATM   10  O2  UNL     1      26.466  26.233   2.901  1.00  0.00    -0.266 OA
HETATM   11  C13 UNL     1      25.300  27.112   4.612  1.00  0.00     0.096 C 
HETATM   12  N3  UNL     1      24.116  26.924   4.014  1.00  0.00    -0.287 N 
HETATM   13  C18 UNL     1      23.118  27.980   4.045  1.00  0.00     0.151 C 
HETATM   14  C19 UNL     1      22.259  27.678   2.828  1.00  0.00     0.044 C 
HETATM   15  C20 UNL     1      23.170  26.636   2.152  1.00  0.00     0.153 C 
HETATM   16  N4  UNL     1      23.514  25.880   3.396  1.00  0.00    -0.271 N 
HETATM   17  C21 UNL     1      23.143  24.584   3.668  1.00  0.00     0.156 C 
HETATM   18  C22 UNL     1      23.734  23.226   3.778  1.00  0.00     0.161 C 
HETATM   19  N8  UNL     1      25.139  23.105   3.693  1.00  0.00    -0.347 N 
ATOM     20  H8  UNL     1      25.544  23.514   2.851  1.00  0.00     0.163 HD
HETATM   21  C31 UNL     1      26.074  22.525   4.557  1.00  0.00     0.241 C 
HETATM   22  O5  UNL     1      26.937  21.770   3.954  1.00  0.00    -0.271 OA
ENDROOT
BRANCH  18  23
HETATM   23  C23 UNL     1      23.304  22.562   2.408  1.00  0.00     0.037 C 
BRANCH  23  24
HETATM   24  C24 UNL     1      22.626  21.280   2.589  1.00  0.00     0.032 C 
BRANCH  24  25
HETATM   25  C25 UNL     1      23.321  20.063   2.117  1.00  0.00     0.005 C 
BRANCH  25  26
HETATM   26  C26 UNL     1      24.453  19.485   2.838  1.00  0.00     0.184 C 
BRANCH  26  27
HETATM   27  N5  UNL     1      24.331  18.458   3.777  1.00  0.00    -0.364 NA
HETATM   28  C27 UNL     1      24.214  17.483   4.669  1.00  0.00     0.417 C 
HETATM   29  O4  UNL     1      25.159  16.722   5.103  1.00  0.00    -0.228 OA
HETATM   30  N6  UNL     1      22.950  17.115   5.314  1.00  0.00    -0.155 N 
ATOM     31  H6  UNL     1      22.118  17.643   5.053  1.00  0.00     0.200 HD
BRANCH  30  32
HETATM   32  N7  UNL     1      22.799  16.119   6.238  1.00  0.00     0.005 N 
HETATM   33  C28 UNL     1      22.999  14.773   5.744  1.00  0.00     0.301 C 
HETATM   34  C29 UNL     1      23.612  16.291   7.431  1.00  0.00     0.301 C 
HETATM   35  C30 UNL     1      21.389  16.139   6.697  1.00  0.00     0.301 C 
ENDBRANCH  30  32
ENDBRANCH  26  27
ENDBRANCH  25  26
ENDBRANCH  24  25
ENDBRANCH  23  24
ENDBRANCH  18  23
BRANCH  17  36
HETATM   36  O3  UNL     1      21.824  24.398   3.929  1.00  0.00    -0.347 OA
ATOM     37  H3  UNL     1      21.264  24.320   3.166  1.00  0.00     0.219 HD
ENDBRANCH  17  36
BRANCH   1  38
HETATM   38  C4  UNL     1      27.456  22.021   6.475  1.00  0.00     0.038 C 
BRANCH  38  39
HETATM   39  C2  UNL     1      27.309  21.047   7.590  1.00  0.00    -0.020 C 
HETATM   40  C1  UNL     1      26.058  20.220   7.280  1.00  0.00     0.009 C 
HETATM   41  C3  UNL     1      27.037  21.727   8.916  1.00  0.00     0.009 C 
ENDBRANCH  38  39
ENDBRANCH   1  38
BRANCH  11  42
HETATM   42  C14 UNL     1      25.572  28.568   4.906  1.00  0.00     0.068 C 
BRANCH  42  43
HETATM   43  C15 UNL     1      26.088  28.975   6.229  1.00  0.00    -0.017 C 
HETATM   44  C16 UNL     1      27.375  29.830   5.940  1.00  0.00     0.010 C 
HETATM   45  C17 UNL     1      25.242  29.992   6.982  1.00  0.00     0.010 C 
ENDBRANCH  42  43
ENDBRANCH  11  42
BRANCH   6  46
HETATM   46  C8  UNL     1      28.641  26.663   6.957  1.00  0.00     0.038 C 
BRANCH  46  47
HETATM   47  C9  UNL     1      29.999  27.019   6.500  1.00  0.00    -0.020 C 
HETATM   48  C10 UNL     1      30.576  28.116   7.393  1.00  0.00     0.009 C 
HETATM   49  C11 UNL     1      30.863  25.754   6.749  1.00  0.00     0.009 C 
ENDBRANCH  46  47
ENDBRANCH   6  46
TORSDOF 13
ENDMDL
MODEL 4
REMARK VINA RESULT: -7.350064534      1.803      2.148
REMARK  13 active torsions:
REMARK  status: ('A' for Active; 'I' for Inactive)
REMARK    1  A    between atoms: C2_2  and  C4_4 
REMARK    2  A    between atoms: C4_4  and  C5_5 
REMARK    3  A    between atoms: C7_10  and  C8_11 
REMARK    4  A    between atoms: C8_11  and  C9_12 
REMARK    5  A    between atoms: C13_19  and  C14_20 
REMARK    6  A    between atoms: C14_20  and  C15_21 
REMARK    7  A    between atoms: C21_29  and  O3_30 
REMARK    8  A    between atoms: C22_32  and  C23_33 
REMARK    9  A    between atoms: C23_33  and  C24_34 
REMARK   10  A    between atoms: C24_34  and  C25_35 
REMARK   11  A    between atoms: C25_35  and  C26_36 
REMARK   12  A    between atoms: C26_36  and  N5_37 
REMARK       I    between atoms: N5_37  and  C27_38 
REMARK       I    between atoms: C27_38  and  N6_40 
REMARK   13  A    between atoms: N6_40  and  N7_42 
ROOT
HETATM    1  C5  UNL     1      26.515  23.471   6.669  1.00  0.00     0.177 C 
HETATM    2  N1  UNL     1      26.753  24.765   7.174  1.00  0.00    -0.346 N 
ATOM      3  H1  UNL     1      25.902  25.313   7.296  1.00  0.00     0.163 HD
HETATM    4  C6  UNL     1      27.909  25.450   7.539  1.00  0.00     0.241 C 
HETATM    5  O1  UNL     1      27.866  26.023   8.697  1.00  0.00    -0.271 OA
HETATM    6  C7  UNL     1      29.164  25.614   6.806  1.00  0.00     0.177 C 
HETATM    7  N2  UNL     1      29.060  26.094   5.452  1.00  0.00    -0.343 N 
ATOM      8  H2  UNL     1      29.814  25.781   4.842  1.00  0.00     0.163 HD
HETATM    9  C12 UNL     1      28.129  26.900   4.827  1.00  0.00     0.266 C 
HETATM   10  O2  UNL     1      27.990  26.729   3.555  1.00  0.00    -0.266 OA
HETATM   11  C13 UNL     1      27.232  27.940   5.292  1.00  0.00     0.096 C 
HETATM   12  N3  UNL     1      26.048  28.186   4.715  1.00  0.00    -0.287 N 
HETATM   13  C18 UNL     1      25.484  29.524   4.770  1.00  0.00     0.151 C 
HETATM   14  C19 UNL     1      24.555  29.556   3.568  1.00  0.00     0.044 C 
HETATM   15  C20 UNL     1      25.033  28.269   2.869  1.00  0.00     0.153 C 
HETATM   16  N4  UNL     1      25.109  27.426   4.102  1.00  0.00    -0.271 N 
HETATM   17  C21 UNL     1      24.312  26.339   4.373  1.00  0.00     0.156 C 
HETATM   18  C22 UNL     1      24.392  24.859   4.465  1.00  0.00     0.161 C 
HETATM   19  N8  UNL     1      25.664  24.255   4.353  1.00  0.00    -0.347 N 
ATOM     20  H8  UNL     1      26.173  24.506   3.506  1.00  0.00     0.163 HD
HETATM   21  C31 UNL     1      26.349  23.374   5.196  1.00  0.00     0.241 C 
HETATM   22  O5  UNL     1      26.883  22.372   4.574  1.00  0.00    -0.271 OA
ENDROOT
BRANCH  18  23
HETATM   23  C23 UNL     1      23.736  24.403   3.099  1.00  0.00     0.037 C 
BRANCH  23  24
HETATM   24  C24 UNL     1      22.791  23.299   3.265  1.00  0.00     0.032 C 
BRANCH  24  25
HETATM   25  C25 UNL     1      23.007  22.084   2.451  1.00  0.00     0.005 C 
BRANCH  25  26
HETATM   26  C26 UNL     1      24.122  21.172   2.694  1.00  0.00     0.184 C 
BRANCH  26  27
HETATM   27  N5  UNL     1      24.250  20.397   3.850  1.00  0.00    -0.364 NA
HETATM   28  C27 UNL     1      24.371  19.660   4.947  1.00  0.00     0.417 C 
HETATM   29  O4  UNL     1      25.452  19.454   5.618  1.00  0.00    -0.228 OA
HETATM   30  N6  UNL     1      23.256  18.947   5.578  1.00  0.00    -0.155 N 
ATOM     31  H6  UNL     1      22.340  19.026   5.138  1.00  0.00     0.200 HD
BRANCH  30  32
HETATM   32  N7  UNL     1      23.349  18.184   6.708  1.00  0.00     0.005 N 
HETATM   33  C28 UNL     1      24.200  17.018   6.606  1.00  0.00     0.301 C 
HETATM   34  C29 UNL     1      23.740  18.930   7.894  1.00  0.00     0.301 C 
HETATM   35  C30 UNL     1      22.002  17.636   6.995  1.00  0.00     0.301 C 
ENDBRANCH  30  32
ENDBRANCH  26  27
ENDBRANCH  25  26
ENDBRANCH  24  25
ENDBRANCH  23  24
ENDBRANCH  18  23
BRANCH  17  36
HETATM   36  O3  UNL     1      23.016  26.624   4.657  1.00  0.00    -0.347 OA
ATOM     37  H3  UNL     1      22.430  25.876   4.686  1.00  0.00     0.219 HD
ENDBRANCH  17  36
BRANCH   1  38
HETATM   38  C4  UNL     1      27.497  22.395   7.086  1.00  0.00     0.038 C 
BRANCH  38  39
HETATM   39  C2  UNL     1      27.242  21.798   8.425  1.00  0.00    -0.020 C 
HETATM   40  C1  UNL     1      27.665  20.330   8.332  1.00  0.00     0.009 C 
HETATM   41  C3  UNL     1      25.770  21.783   8.778  1.00  0.00     0.009 C 
ENDBRANCH  38  39
ENDBRANCH   1  38
BRANCH  11  42
HETATM   42  C14 UNL     1      28.002  29.205   5.589  1.00  0.00     0.068 C 
BRANCH  42  43
HETATM   43  C15 UNL     1      28.413  29.516   6.973  1.00  0.00    -0.017 C 
HETATM   44  C16 UNL     1      28.615  31.075   7.017  1.00  0.00     0.010 C 
HETATM   45  C17 UNL     1      27.336  29.346   8.035  1.00  0.00     0.010 C 
ENDBRANCH  42  43
ENDBRANCH  11  42
BRANCH   6  46
HETATM   46  C8  UNL     1      30.240  26.322   7.572  1.00  0.00     0.038 C 
BRANCH  46  47
HETATM   47  C9  UNL     1      31.330  26.951   6.803  1.00  0.00    -0.020 C 
HETATM   48  C10 UNL     1      31.834  28.193   7.537  1.00  0.00     0.009 C 
HETATM   49  C11 UNL     1      32.496  25.927   6.828  1.00  0.00     0.009 C 
ENDBRANCH  46  47
ENDBRANCH   6  46
TORSDOF 13
ENDMDL
MODEL 5
REMARK VINA RESULT: -6.861333903      3.227      8.022
REMARK  13 active torsions:
REMARK  status: ('A' for Active; 'I' for Inactive)
REMARK    1  A    between atoms: C2_2  and  C4_4 
REMARK    2  A    between atoms: C4_4  and  C5_5 
REMARK    3  A    between atoms: C7_10  and  C8_11 
REMARK    4  A    between atoms: C8_11  and  C9_12 
REMARK    5  A    between atoms: C13_19  and  C14_20 
REMARK    6  A    between atoms: C14_20  and  C15_21 
REMARK    7  A    between atoms: C21_29  and  O3_30 
REMARK    8  A    between atoms: C22_32  and  C23_33 
REMARK    9  A    between atoms: C23_33  and  C24_34 
REMARK   10  A    between atoms: C24_34  and  C25_35 
REMARK   11  A    between atoms: C25_35  and  C26_36 
REMARK   12  A    between atoms: C26_36  and  N5_37 
REMARK       I    between atoms: N5_37  and  C27_38 
REMARK       I    between atoms: C27_38  and  N6_40 
REMARK   13  A    between atoms: N6_40  and  N7_42 
ROOT
HETATM    1  C5  UNL     1      26.905  23.620   5.937  1.00  0.00     0.177 C 
HETATM    2  N1  UNL     1      27.187  22.248   6.091  1.00  0.00    -0.346 N 
ATOM      3  H1  UNL     1      27.516  21.804   5.234  1.00  0.00     0.163 HD
HETATM    4  C6  UNL     1      27.109  21.373   7.172  1.00  0.00     0.241 C 
HETATM    5  O1  UNL     1      28.163  20.654   7.374  1.00  0.00    -0.271 OA
HETATM    6  C7  UNL     1      26.010  21.152   8.112  1.00  0.00     0.177 C 
HETATM    7  N2  UNL     1      24.716  20.884   7.537  1.00  0.00    -0.343 N 
ATOM      8  H2  UNL     1      23.934  21.178   8.121  1.00  0.00     0.163 HD
HETATM    9  C12 UNL     1      24.339  20.303   6.342  1.00  0.00     0.266 C 
HETATM   10  O2  UNL     1      23.195  20.668   5.868  1.00  0.00    -0.266 OA
HETATM   11  C13 UNL     1      24.959  19.335   5.461  1.00  0.00     0.096 C 
HETATM   12  N3  UNL     1      24.758  19.329   4.136  1.00  0.00    -0.287 N 
HETATM   13  C18 UNL     1      24.859  18.082   3.397  1.00  0.00     0.151 C 
HETATM   14  C19 UNL     1      24.008  18.341   2.165  1.00  0.00     0.044 C 
HETATM   15  C20 UNL     1      23.320  19.639   2.625  1.00  0.00     0.153 C 
HETATM   16  N4  UNL     1      24.541  20.283   3.199  1.00  0.00    -0.271 N 
HETATM   17  C21 UNL     1      25.148  21.416   2.710  1.00  0.00     0.156 C 
HETATM   18  C22 UNL     1      25.350  22.846   3.060  1.00  0.00     0.161 C 
HETATM   19  N8  UNL     1      24.906  23.288   4.326  1.00  0.00    -0.347 N 
ATOM     20  H8  UNL     1      23.923  23.094   4.515  1.00  0.00     0.163 HD
HETATM   21  C31 UNL     1      25.573  23.944   5.365  1.00  0.00     0.241 C 
HETATM   22  O5  UNL     1      24.913  24.946   5.854  1.00  0.00    -0.271 OA
ENDROOT
BRANCH  18  23
HETATM   23  C23 UNL     1      24.305  23.570   2.119  1.00  0.00     0.037 C 
BRANCH  23  24
HETATM   24  C24 UNL     1      23.003  23.760   2.759  1.00  0.00     0.032 C 
BRANCH  24  25
HETATM   25  C25 UNL     1      22.573  25.146   3.041  1.00  0.00     0.005 C 
BRANCH  25  26
HETATM   26  C26 UNL     1      21.796  25.492   4.228  1.00  0.00     0.184 C 
BRANCH  26  27
HETATM   27  N5  UNL     1      20.495  26.000   4.181  1.00  0.00    -0.364 NA
HETATM   28  C27 UNL     1      19.259  26.482   4.136  1.00  0.00     0.417 C 
HETATM   29  O4  UNL     1      18.913  27.678   3.801  1.00  0.00    -0.228 OA
HETATM   30  N6  UNL     1      18.066  25.701   4.473  1.00  0.00    -0.155 N 
ATOM     31  H6  UNL     1      18.205  24.732   4.761  1.00  0.00     0.200 HD
BRANCH  30  32
HETATM   32  N7  UNL     1      16.782  26.168   4.433  1.00  0.00     0.005 N 
HETATM   33  C28 UNL     1      16.455  27.180   5.416  1.00  0.00     0.301 C 
HETATM   34  C29 UNL     1      16.370  26.652   3.126  1.00  0.00     0.301 C 
HETATM   35  C30 UNL     1      15.880  25.036   4.754  1.00  0.00     0.301 C 
ENDBRANCH  30  32
ENDBRANCH  26  27
ENDBRANCH  25  26
ENDBRANCH  24  25
ENDBRANCH  23  24
ENDBRANCH  18  23
BRANCH  17  36
HETATM   36  O3  UNL     1      25.793  21.266   1.525  1.00  0.00    -0.347 OA
ATOM     37  H3  UNL     1      25.554  21.888   0.849  1.00  0.00     0.219 HD
ENDBRANCH  17  36
BRANCH   1  38
HETATM   38  C4  UNL     1      27.096  24.490   7.162  1.00  0.00     0.038 C 
BRANCH  38  39
HETATM   39  C2  UNL     1      28.304  25.358   7.134  1.00  0.00    -0.020 C 
HETATM   40  C1  UNL     1      28.163  26.334   8.306  1.00  0.00     0.009 C 
HETATM   41  C3  UNL     1      28.366  26.216   5.887  1.00  0.00     0.009 C 
ENDBRANCH  38  39
ENDBRANCH   1  38
BRANCH  11  42
HETATM   42  C14 UNL     1      24.882  17.950   6.060  1.00  0.00     0.068 C 
BRANCH  42  43
HETATM   43  C15 UNL     1      23.683  17.533   6.815  1.00  0.00    -0.017 C 
HETATM   44  C16 UNL     1      22.599  17.183   5.732  1.00  0.00     0.010 C 
HETATM   45  C17 UNL     1      23.791  16.200   7.540  1.00  0.00     0.010 C 
ENDBRANCH  42  43
ENDBRANCH  11  42
BRANCH   6  46
HETATM   46  C8  UNL     1      26.334  20.209   9.230  1.00  0.00     0.038 C 
BRANCH  46  47
HETATM   47  C9  UNL     1      25.411  19.081   9.467  1.00  0.00    -0.020 C 
HETATM   48  C10 UNL     1      26.196  17.772   9.528  1.00  0.00     0.009 C 
HETATM   49  C11 UNL     1      24.836  19.312  10.891  1.00  0.00     0.009 C 
ENDBRANCH  46  47
ENDBRANCH   6  46
TORSDOF 13
ENDMDL
