MODEL 1
REMARK VINA RESULT: -4.717258001      0.000      0.000
REMARK  14 active torsions:
REMARK  status: ('A' for Active; 'I' for Inactive)
REMARK    1  A    between atoms: C2_2  and  C3_3 
REMARK    2  A    between atoms: C3_3  and  N1_4 
REMARK    3  A    between atoms: C7_11  and  C8_12 
REMARK    4  A    between atoms: C8_12  and  C9_13 
REMARK    5  A    between atoms: C13_20  and  C14_21 
REMARK    6  A    between atoms: C17_24  and  C18_25 
REMARK    7  A    between atoms: C18_25  and  N4_26 
REMARK    8  A    between atoms: C19_32  and  O3_33 
REMARK    9  A    between atoms: C20_35  and  C21_36 
REMARK   10  A    between atoms: C21_36  and  C22_37 
REMARK   11  A    between atoms: C25_42  and  O4_43 
REMARK   12  A    between atoms: C26_47  and  C27_48 
REMARK   13  A    between atoms: C27_48  and  C28_49 
REMARK   14  A    between atoms: C31_52  and  O5_53 
ROOT
HETATM    1  N1  UNL     1      23.849  27.937   3.024  1.00  0.00    -0.355 N 
HETATM    2  C4  UNL     1      24.932  28.325   3.928  1.00  0.00     0.160 C 
HETATM    3  C5  UNL     1      25.830  27.249   4.356  1.00  0.00     0.197 C 
HETATM    4  C6  UNL     1      25.285  26.619   5.629  1.00  0.00     0.243 C 
HETATM    5  O1  UNL     1      24.737  27.333   6.537  1.00  0.00    -0.271 OA
HETATM    6  N2  UNL     1      25.350  25.234   5.880  1.00  0.00    -0.346 N 
ATOM      7  H2  UNL     1      24.706  24.785   6.531  1.00  0.00     0.163 HD
HETATM    8  C7  UNL     1      26.361  24.471   5.183  1.00  0.00     0.177 C 
HETATM    9  C12 UNL     1      27.514  24.426   6.137  1.00  0.00     0.240 C 
HETATM   10  O2  UNL     1      27.347  23.494   7.010  1.00  0.00    -0.271 OA
HETATM   11  N3  UNL     1      28.647  25.210   6.179  1.00  0.00    -0.352 N 
ATOM     12  H3  UNL     1      29.502  24.653   6.207  1.00  0.00     0.163 HD
HETATM   13  C13 UNL     1      28.912  26.600   6.193  1.00  0.00     0.112 C 
HETATM   14  C17 UNL     1      27.808  27.524   5.859  1.00  0.00     0.129 C 
HETATM   15  N6  UNL     1      27.263  27.407   4.491  1.00  0.00    -0.337 N 
HETATM   16  C19 UNL     1      28.243  27.395   3.471  1.00  0.00     0.162 C 
HETATM   17  C20 UNL     1      28.524  28.214   2.274  1.00  0.00     0.064 C 
HETATM   18  N7  UNL     1      27.642  29.261   1.979  1.00  0.00    -0.322 N 
ATOM     19  H7  UNL     1      27.689  30.039   2.637  1.00  0.00     0.169 HD
HETATM   20  C25 UNL     1      26.695  29.448   0.938  1.00  0.00     0.221 C 
HETATM   21  N8  UNL     1      25.844  28.612   0.279  1.00  0.00    -0.322 N 
ATOM     22  H8  UNL     1      26.158  28.494  -0.683  1.00  0.00     0.169 HD
HETATM   23  C26 UNL     1      24.657  27.847   0.491  1.00  0.00     0.063 C 
HETATM   24  C31 UNL     1      23.799  27.978   1.614  1.00  0.00     0.161 C 
ENDROOT
BRANCH  14  25
HETATM   25  C18 UNL     1      28.231  28.937   6.133  1.00  0.00     0.166 C 
BRANCH  25  26
HETATM   26  N4  UNL     1      27.209  29.794   6.654  1.00  0.00    -0.341 N 
HETATM   27  N5  UNL     1      26.505  29.449   7.646  1.00  0.00    -0.349 N 
ATOM     28  H52 UNL     1      26.681  28.539   8.072  1.00  0.00     0.176 HD
ATOM     29  H51 UNL     1      25.777  30.060   8.017  1.00  0.00     0.176 HD
ATOM     30  H4  UNL     1      27.047  30.701   6.215  1.00  0.00     0.179 HD
ENDBRANCH  25  26
ENDBRANCH  14  25
BRANCH  13  31
HETATM   31  C14 UNL     1      29.306  26.865   7.669  1.00  0.00     0.002 C 
HETATM   32  C15 UNL     1      28.330  26.364   8.651  1.00  0.00     0.011 C 
HETATM   33  C16 UNL     1      30.652  26.124   7.914  1.00  0.00     0.011 C 
ENDBRANCH  13  31
BRANCH  16  34
HETATM   34  O3  UNL     1      29.173  26.453   3.535  1.00  0.00    -0.345 OA
ATOM     35  H3  UNL     1      29.899  26.597   4.131  1.00  0.00     0.219 HD
ENDBRANCH  16  34
BRANCH  17  36
HETATM   36  C21 UNL     1      28.960  27.312   1.159  1.00  0.00     0.065 C 
BRANCH  36  37
HETATM   37  C22 UNL     1      30.233  27.632   0.482  1.00  0.00    -0.017 C 
HETATM   38  C23 UNL     1      31.026  26.335   0.214  1.00  0.00     0.010 C 
HETATM   39  C24 UNL     1      31.178  28.457   1.348  1.00  0.00     0.010 C 
ENDBRANCH  36  37
ENDBRANCH  17  36
BRANCH   8  40
HETATM   40  C8  UNL     1      25.781  23.085   4.957  1.00  0.00     0.038 C 
BRANCH  40  41
HETATM   41  C9  UNL     1      25.361  22.848   3.551  1.00  0.00    -0.020 C 
HETATM   42  C10 UNL     1      23.878  22.640   3.376  1.00  0.00     0.009 C 
HETATM   43  C11 UNL     1      26.054  21.602   3.041  1.00  0.00     0.009 C 
ENDBRANCH  40  41
ENDBRANCH   8  40
BRANCH   1  44
HETATM   44  C3  UNL     1      22.623  27.470   3.744  1.00  0.00     0.151 C 
BRANCH  44  45
HETATM   45  C2  UNL     1      22.517  25.999   3.581  1.00  0.00    -0.017 C 
HETATM   46  C1  UNL     1      21.615  25.310   4.245  1.00  0.00     0.008 C 
ENDBRANCH  44  45
ENDBRANCH   1  44
BRANCH  24  47
HETATM   47  O5  UNL     1      22.535  28.217   1.270  1.00  0.00    -0.345 OA
ATOM     48  H5  UNL     1      22.441  27.978   0.355  1.00  0.00     0.219 HD
ENDBRANCH  24  47
BRANCH  20  49
HETATM   49  O4  UNL     1      26.660  30.699   0.555  1.00  0.00    -0.332 OA
ATOM     50  H4  UNL     1      27.528  31.008   0.324  1.00  0.00     0.220 HD
ENDBRANCH  20  49
BRANCH  23  51
HETATM   51  C27 UNL     1      24.979  26.469  -0.048  1.00  0.00     0.065 C 
BRANCH  51  52
HETATM   52  C28 UNL     1      23.908  25.666  -0.645  1.00  0.00    -0.017 C 
HETATM   53  C29 UNL     1      23.490  24.463   0.157  1.00  0.00     0.010 C 
HETATM   54  C30 UNL     1      23.985  25.370  -2.111  1.00  0.00     0.010 C 
ENDBRANCH  51  52
ENDBRANCH  23  51
TORSDOF 14
ENDMDL
MODEL 2
REMARK VINA RESULT: -4.679482602      1.449      1.669
REMARK  14 active torsions:
REMARK  status: ('A' for Active; 'I' for Inactive)
REMARK    1  A    between atoms: C2_2  and  C3_3 
REMARK    2  A    between atoms: C3_3  and  N1_4 
REMARK    3  A    between atoms: C7_11  and  C8_12 
REMARK    4  A    between atoms: C8_12  and  C9_13 
REMARK    5  A    between atoms: C13_20  and  C14_21 
REMARK    6  A    between atoms: C17_24  and  C18_25 
REMARK    7  A    between atoms: C18_25  and  N4_26 
REMARK    8  A    between atoms: C19_32  and  O3_33 
REMARK    9  A    between atoms: C20_35  and  C21_36 
REMARK   10  A    between atoms: C21_36  and  C22_37 
REMARK   11  A    between atoms: C25_42  and  O4_43 
REMARK   12  A    between atoms: C26_47  and  C27_48 
REMARK   13  A    between atoms: C27_48  and  C28_49 
REMARK   14  A    between atoms: C31_52  and  O5_53 
ROOT
HETATM    1  N1  UNL     1      22.960  26.733   2.188  1.00  0.00    -0.355 N 
HETATM    2  C4  UNL     1      23.812  27.379   3.186  1.00  0.00     0.160 C 
HETATM    3  C5  UNL     1      24.920  26.574   3.706  1.00  0.00     0.197 C 
HETATM    4  C6  UNL     1      24.446  25.802   4.928  1.00  0.00     0.243 C 
HETATM    5  O1  UNL     1      23.646  26.330   5.775  1.00  0.00    -0.271 OA
HETATM    6  N2  UNL     1      24.853  24.480   5.197  1.00  0.00    -0.346 N 
ATOM      7  H2  UNL     1      24.293  23.866   5.789  1.00  0.00     0.163 HD
HETATM    8  C7  UNL     1      26.090  24.024   4.605  1.00  0.00     0.177 C 
HETATM    9  C12 UNL     1      27.120  24.271   5.664  1.00  0.00     0.240 C 
HETATM   10  O2  UNL     1      27.126  23.314   6.526  1.00  0.00    -0.271 OA
HETATM   11  N3  UNL     1      27.995  25.326   5.805  1.00  0.00    -0.352 N 
ATOM     12  H3  UNL     1      28.960  25.015   5.918  1.00  0.00     0.163 HD
HETATM   13  C13 UNL     1      27.879  26.736   5.830  1.00  0.00     0.112 C 
HETATM   14  C17 UNL     1      26.606  27.340   5.386  1.00  0.00     0.129 C 
HETATM   15  N6  UNL     1      26.240  27.104   3.974  1.00  0.00    -0.337 N 
HETATM   16  C19 UNL     1      27.279  27.368   3.051  1.00  0.00     0.162 C 
HETATM   17  C20 UNL     1      27.443  28.251   1.877  1.00  0.00     0.064 C 
HETATM   18  N7  UNL     1      26.345  29.032   1.491  1.00  0.00    -0.322 N 
ATOM     19  H7  UNL     1      26.123  29.784   2.143  1.00  0.00     0.169 HD
HETATM   20  C25 UNL     1      25.483  28.978   0.364  1.00  0.00     0.221 C 
HETATM   21  N8  UNL     1      24.950  27.957  -0.364  1.00  0.00    -0.322 N 
ATOM     22  H8  UNL     1      25.373  27.942  -1.291  1.00  0.00     0.169 HD
HETATM   23  C26 UNL     1      23.995  26.900  -0.257  1.00  0.00     0.063 C 
HETATM   24  C31 UNL     1      23.032  26.782   0.780  1.00  0.00     0.161 C 
ENDROOT
BRANCH  14  25
HETATM   25  C18 UNL     1      26.610  28.809   5.685  1.00  0.00     0.166 C 
BRANCH  25  26
HETATM   26  N4  UNL     1      25.410  29.321   6.274  1.00  0.00    -0.341 N 
HETATM   27  N5  UNL     1      24.562  29.960   5.587  1.00  0.00    -0.349 N 
ATOM     28  H52 UNL     1      24.753  30.105   4.595  1.00  0.00     0.176 HD
ATOM     29  H51 UNL     1      23.707  30.325   6.007  1.00  0.00     0.176 HD
ATOM     30  H4  UNL     1      25.236  29.167   7.267  1.00  0.00     0.179 HD
ENDBRANCH  25  26
ENDBRANCH  14  25
BRANCH  13  31
HETATM   31  C14 UNL     1      28.050  27.073   7.334  1.00  0.00     0.002 C 
HETATM   32  C15 UNL     1      27.028  26.468   8.205  1.00  0.00     0.011 C 
HETATM   33  C16 UNL     1      29.435  26.512   7.765  1.00  0.00     0.011 C 
ENDBRANCH  13  31
BRANCH  16  34
HETATM   34  O3  UNL     1      28.415  26.705   3.210  1.00  0.00    -0.345 OA
ATOM     35  H3  UNL     1      28.706  26.162   2.487  1.00  0.00     0.219 HD
ENDBRANCH  16  34
BRANCH  17  36
HETATM   36  C21 UNL     1      28.204  27.515   0.817  1.00  0.00     0.065 C 
BRANCH  36  37
HETATM   37  C22 UNL     1      29.029  28.317  -0.111  1.00  0.00    -0.017 C 
HETATM   38  C23 UNL     1      28.588  28.053  -1.566  1.00  0.00     0.010 C 
HETATM   39  C24 UNL     1      30.498  27.912  -0.103  1.00  0.00     0.010 C 
ENDBRANCH  36  37
ENDBRANCH  17  36
BRANCH   8  40
HETATM   40  C8  UNL     1      25.922  22.536   4.339  1.00  0.00     0.038 C 
BRANCH  40  41
HETATM   41  C9  UNL     1      24.671  22.211   3.606  1.00  0.00    -0.020 C 
HETATM   42  C10 UNL     1      24.237  20.773   3.733  1.00  0.00     0.009 C 
HETATM   43  C11 UNL     1      24.885  22.488   2.133  1.00  0.00     0.009 C 
ENDBRANCH  40  41
ENDBRANCH   8  40
BRANCH   1  44
HETATM   44  C3  UNL     1      21.841  25.946   2.794  1.00  0.00     0.151 C 
BRANCH  44  45
HETATM   45  C2  UNL     1      21.027  26.859   3.635  1.00  0.00    -0.017 C 
HETATM   46  C1  UNL     1      19.784  27.141   3.316  1.00  0.00     0.008 C 
ENDBRANCH  44  45
ENDBRANCH   1  44
BRANCH  24  47
HETATM   47  O5  UNL     1      21.787  26.682   0.316  1.00  0.00    -0.345 OA
ATOM     48  H5  UNL     1      21.612  27.465  -0.193  1.00  0.00     0.219 HD
ENDBRANCH  24  47
BRANCH  20  49
HETATM   49  O4  UNL     1      25.153  30.180  -0.032  1.00  0.00    -0.332 OA
ATOM     50  H4  UNL     1      25.222  30.258  -0.976  1.00  0.00     0.220 HD
ENDBRANCH  20  49
BRANCH  23  51
HETATM   51  C27 UNL     1      24.720  25.666  -0.750  1.00  0.00     0.065 C 
BRANCH  51  52
HETATM   52  C28 UNL     1      24.725  25.365  -2.185  1.00  0.00    -0.017 C 
HETATM   53  C29 UNL     1      26.066  25.484  -2.857  1.00  0.00     0.010 C 
HETATM   54  C30 UNL     1      23.619  25.924  -3.026  1.00  0.00     0.010 C 
ENDBRANCH  51  52
ENDBRANCH  23  51
TORSDOF 14
ENDMDL
MODEL 3
REMARK VINA RESULT: -4.512292388      2.011      7.513
REMARK  14 active torsions:
REMARK  status: ('A' for Active; 'I' for Inactive)
REMARK    1  A    between atoms: C2_2  and  C3_3 
REMARK    2  A    between atoms: C3_3  and  N1_4 
REMARK    3  A    between atoms: C7_11  and  C8_12 
REMARK    4  A    between atoms: C8_12  and  C9_13 
REMARK    5  A    between atoms: C13_20  and  C14_21 
REMARK    6  A    between atoms: C17_24  and  C18_25 
REMARK    7  A    between atoms: C18_25  and  N4_26 
REMARK    8  A    between atoms: C19_32  and  O3_33 
REMARK    9  A    between atoms: C20_35  and  C21_36 
REMARK   10  A    between atoms: C21_36  and  C22_37 
REMARK   11  A    between atoms: C25_42  and  O4_43 
REMARK   12  A    between atoms: C26_47  and  C27_48 
REMARK   13  A    between atoms: C27_48  and  C28_49 
REMARK   14  A    between atoms: C31_52  and  O5_53 
ROOT
HETATM    1  N1  UNL     1      26.783  27.618   7.457  1.00  0.00    -0.355 N 
HETATM    2  C4  UNL     1      25.536  27.292   6.765  1.00  0.00     0.160 C 
HETATM    3  C5  UNL     1      25.593  27.288   5.301  1.00  0.00     0.197 C 
HETATM    4  C6  UNL     1      25.264  28.680   4.783  1.00  0.00     0.243 C 
HETATM    5  O1  UNL     1      24.363  29.396   5.341  1.00  0.00    -0.271 OA
HETATM    6  N2  UNL     1      25.919  29.254   3.676  1.00  0.00    -0.346 N 
ATOM      7  H2  UNL     1      25.953  30.266   3.549  1.00  0.00     0.163 HD
HETATM    8  C7  UNL     1      26.544  28.361   2.727  1.00  0.00     0.177 C 
HETATM    9  C12 UNL     1      25.504  28.162   1.667  1.00  0.00     0.240 C 
HETATM   10  O2  UNL     1      25.517  29.138   0.827  1.00  0.00    -0.271 OA
HETATM   11  N3  UNL     1      24.607  27.128   1.504  1.00  0.00    -0.352 N 
ATOM     12  H3  UNL     1      24.642  26.731   0.565  1.00  0.00     0.163 HD
HETATM   13  C13 UNL     1      23.649  26.486   2.323  1.00  0.00     0.112 C 
HETATM   14  C17 UNL     1      23.687  26.745   3.777  1.00  0.00     0.129 C 
HETATM   15  N6  UNL     1      24.915  26.311   4.475  1.00  0.00    -0.337 N 
HETATM   16  C19 UNL     1      25.315  24.986   4.183  1.00  0.00     0.162 C 
HETATM   17  C20 UNL     1      25.564  23.764   4.975  1.00  0.00     0.064 C 
HETATM   18  N7  UNL     1      25.424  23.850   6.367  1.00  0.00    -0.322 N 
ATOM     19  H7  UNL     1      24.460  23.969   6.678  1.00  0.00     0.169 HD
HETATM   20  C25 UNL     1      26.368  23.802   7.427  1.00  0.00     0.221 C 
HETATM   21  N8  UNL     1      27.639  24.268   7.575  1.00  0.00    -0.322 N 
ATOM     22  H8  UNL     1      28.289  23.483   7.605  1.00  0.00     0.169 HD
HETATM   23  C26 UNL     1      28.363  25.493   7.704  1.00  0.00     0.063 C 
HETATM   24  C31 UNL     1      27.775  26.756   7.971  1.00  0.00     0.161 C 
ENDROOT
BRANCH  14  25
HETATM   25  C18 UNL     1      22.477  26.147   4.430  1.00  0.00     0.166 C 
BRANCH  25  26
HETATM   26  N4  UNL     1      22.244  24.764   4.146  1.00  0.00    -0.341 N 
HETATM   27  N5  UNL     1      21.176  24.190   4.508  1.00  0.00    -0.349 N 
ATOM     28  H52 UNL     1      20.478  24.738   5.010  1.00  0.00     0.176 HD
ATOM     29  H51 UNL     1      21.010  23.204   4.305  1.00  0.00     0.176 HD
ATOM     30  H4  UNL     1      22.953  24.231   3.642  1.00  0.00     0.179 HD
ENDBRANCH  25  26
ENDBRANCH  14  25
BRANCH  13  31
HETATM   31  C14 UNL     1      22.304  27.045   1.790  1.00  0.00     0.002 C 
HETATM   32  C15 UNL     1      22.123  28.489   2.013  1.00  0.00     0.011 C 
HETATM   33  C16 UNL     1      22.292  26.795   0.254  1.00  0.00     0.011 C 
ENDBRANCH  13  31
BRANCH  16  34
HETATM   34  O3  UNL     1      25.538  24.686   2.911  1.00  0.00    -0.345 OA
ATOM     35  H3  UNL     1      26.272  25.115   2.486  1.00  0.00     0.219 HD
ENDBRANCH  16  34
BRANCH  17  36
HETATM   36  C21 UNL     1      26.765  23.060   4.420  1.00  0.00     0.065 C 
BRANCH  36  37
HETATM   37  C22 UNL     1      26.640  21.614   4.145  1.00  0.00    -0.017 C 
HETATM   38  C23 UNL     1      25.256  21.314   3.532  1.00  0.00     0.010 C 
HETATM   39  C24 UNL     1      26.664  20.763   5.410  1.00  0.00     0.010 C 
ENDBRANCH  36  37
ENDBRANCH  17  36
BRANCH   8  40
HETATM   40  C8  UNL     1      27.757  29.091   2.175  1.00  0.00     0.038 C 
BRANCH  40  41
HETATM   41  C9  UNL     1      29.022  28.734   2.870  1.00  0.00    -0.020 C 
HETATM   42  C10 UNL     1      29.825  29.919   3.339  1.00  0.00     0.009 C 
HETATM   43  C11 UNL     1      29.894  27.946   1.916  1.00  0.00     0.009 C 
ENDBRANCH  40  41
ENDBRANCH   8  40
BRANCH   1  44
HETATM   44  C3  UNL     1      26.975  29.088   7.658  1.00  0.00     0.151 C 
BRANCH  44  45
HETATM   45  C2  UNL     1      28.004  29.562   6.698  1.00  0.00    -0.017 C 
HETATM   46  C1  UNL     1      29.111  30.130   7.122  1.00  0.00     0.008 C 
ENDBRANCH  44  45
ENDBRANCH   1  44
BRANCH  24  47
HETATM   47  O5  UNL     1      28.299  27.351   9.042  1.00  0.00    -0.345 OA
ATOM     48  H5  UNL     1      27.840  28.174   9.161  1.00  0.00     0.219 HD
ENDBRANCH  24  47
BRANCH  20  49
HETATM   49  O4  UNL     1      25.878  23.169   8.462  1.00  0.00    -0.332 OA
ATOM     50  H4  UNL     1      26.535  23.067   9.140  1.00  0.00     0.220 HD
ENDBRANCH  20  49
BRANCH  23  51
HETATM   51  C27 UNL     1      29.488  25.388   6.696  1.00  0.00     0.065 C 
BRANCH  51  52
HETATM   52  C28 UNL     1      30.505  26.444   6.647  1.00  0.00    -0.017 C 
HETATM   53  C29 UNL     1      31.082  26.709   5.282  1.00  0.00     0.010 C 
HETATM   54  C30 UNL     1      31.551  26.464   7.718  1.00  0.00     0.010 C 
ENDBRANCH  51  52
ENDBRANCH  23  51
TORSDOF 14
ENDMDL
MODEL 4
REMARK VINA RESULT: -4.455192791      1.974      2.760
REMARK  14 active torsions:
REMARK  status: ('A' for Active; 'I' for Inactive)
REMARK    1  A    between atoms: C2_2  and  C3_3 
REMARK    2  A    between atoms: C3_3  and  N1_4 
REMARK    3  A    between atoms: C7_11  and  C8_12 
REMARK    4  A    between atoms: C8_12  and  C9_13 
REMARK    5  A    between atoms: C13_20  and  C14_21 
REMARK    6  A    between atoms: C17_24  and  C18_25 
REMARK    7  A    between atoms: C18_25  and  N4_26 
REMARK    8  A    between atoms: C19_32  and  O3_33 
REMARK    9  A    between atoms: C20_35  and  C21_36 
REMARK   10  A    between atoms: C21_36  and  C22_37 
REMARK   11  A    between atoms: C25_42  and  O4_43 
REMARK   12  A    between atoms: C26_47  and  C27_48 
REMARK   13  A    between atoms: C27_48  and  C28_49 
REMARK   14  A    between atoms: C31_52  and  O5_53 
ROOT
HETATM    1  N1  UNL     1      24.039  28.831   3.729  1.00  0.00    -0.355 N 
HETATM    2  C4  UNL     1      24.710  28.263   4.897  1.00  0.00     0.160 C 
HETATM    3  C5  UNL     1      25.326  26.946   4.710  1.00  0.00     0.197 C 
HETATM    4  C6  UNL     1      24.307  25.866   5.039  1.00  0.00     0.243 C 
HETATM    5  O1  UNL     1      23.485  26.006   6.010  1.00  0.00    -0.271 OA
HETATM    6  N2  UNL     1      24.207  24.666   4.307  1.00  0.00    -0.346 N 
ATOM      7  H2  UNL     1      23.343  24.124   4.298  1.00  0.00     0.163 HD
HETATM    8  C7  UNL     1      25.372  24.229   3.571  1.00  0.00     0.177 C 
HETATM    9  C12 UNL     1      26.068  23.288   4.504  1.00  0.00     0.240 C 
HETATM   10  O2  UNL     1      25.537  22.115   4.450  1.00  0.00    -0.271 OA
HETATM   11  N3  UNL     1      27.133  23.520   5.348  1.00  0.00    -0.352 N 
ATOM     12  H3  UNL     1      27.885  22.843   5.216  1.00  0.00     0.163 HD
HETATM   13  C13 UNL     1      27.436  24.468   6.353  1.00  0.00     0.112 C 
HETATM   14  C17 UNL     1      26.588  25.675   6.452  1.00  0.00     0.129 C 
HETATM   15  N6  UNL     1      26.603  26.570   5.278  1.00  0.00    -0.337 N 
HETATM   16  C19 UNL     1      27.897  26.895   4.808  1.00  0.00     0.162 C 
HETATM   17  C20 UNL     1      28.653  28.146   4.590  1.00  0.00     0.064 C 
HETATM   18  N7  UNL     1      28.000  29.357   4.855  1.00  0.00    -0.322 N 
ATOM     19  H7  UNL     1      27.827  29.524   5.847  1.00  0.00     0.169 HD
HETATM   20  C25 UNL     1      27.533  30.396   4.009  1.00  0.00     0.221 C 
HETATM   21  N8  UNL     1      26.962  30.417   2.772  1.00  0.00    -0.322 N 
ATOM     22  H8  UNL     1      27.615  30.820   2.101  1.00  0.00     0.169 HD
HETATM   23  C26 UNL     1      25.750  30.061   2.105  1.00  0.00     0.063 C 
HETATM   24  C31 UNL     1      24.535  29.727   2.757  1.00  0.00     0.161 C 
ENDROOT
BRANCH  14  25
HETATM   25  C18 UNL     1      26.937  26.438   7.695  1.00  0.00     0.166 C 
BRANCH  25  26
HETATM   26  N4  UNL     1      25.937  27.352   8.158  1.00  0.00    -0.341 N 
HETATM   27  N5  UNL     1      26.169  28.593   8.237  1.00  0.00    -0.349 N 
ATOM     28  H52 UNL     1      27.091  28.932   7.963  1.00  0.00     0.176 HD
ATOM     29  H51 UNL     1      25.456  29.245   8.566  1.00  0.00     0.176 HD
ATOM     30  H4  UNL     1      25.021  26.995   8.428  1.00  0.00     0.179 HD
ENDBRANCH  25  26
ENDBRANCH  14  25
BRANCH  13  31
HETATM   31  C14 UNL     1      27.246  23.661   7.663  1.00  0.00     0.002 C 
HETATM   32  C15 UNL     1      25.842  23.350   7.980  1.00  0.00     0.011 C 
HETATM   33  C16 UNL     1      28.001  22.314   7.473  1.00  0.00     0.011 C 
ENDBRANCH  13  31
BRANCH  16  34
HETATM   34  O3  UNL     1      28.687  25.889   4.463  1.00  0.00    -0.345 OA
ATOM     35  H3  UNL     1      28.387  25.321   3.763  1.00  0.00     0.219 HD
ENDBRANCH  16  34
BRANCH  17  36
HETATM   36  C21 UNL     1      29.440  28.023   3.321  1.00  0.00     0.065 C 
BRANCH  36  37
HETATM   37  C22 UNL     1      30.826  28.535   3.326  1.00  0.00    -0.017 C 
HETATM   38  C23 UNL     1      30.902  29.849   2.520  1.00  0.00     0.010 C 
HETATM   39  C24 UNL     1      31.804  27.615   2.605  1.00  0.00     0.010 C 
ENDBRANCH  36  37
ENDBRANCH  17  36
BRANCH   8  40
HETATM   40  C8  UNL     1      24.859  23.501   2.339  1.00  0.00     0.038 C 
BRANCH  40  41
HETATM   41  C9  UNL     1      23.406  23.706   2.100  1.00  0.00    -0.020 C 
HETATM   42  C10 UNL     1      22.578  22.452   2.211  1.00  0.00     0.009 C 
HETATM   43  C11 UNL     1      23.216  24.249   0.699  1.00  0.00     0.009 C 
ENDBRANCH  40  41
ENDBRANCH   8  40
BRANCH   1  44
HETATM   44  C3  UNL     1      22.611  28.402   3.605  1.00  0.00     0.151 C 
BRANCH  44  45
HETATM   45  C2  UNL     1      22.520  27.380   2.532  1.00  0.00    -0.017 C 
HETATM   46  C1  UNL     1      21.677  27.524   1.534  1.00  0.00     0.008 C 
ENDBRANCH  44  45
ENDBRANCH   1  44
BRANCH  24  47
HETATM   47  O5  UNL     1      23.511  30.476   2.351  1.00  0.00    -0.345 OA
ATOM     48  H5  UNL     1      22.716  30.064   2.667  1.00  0.00     0.219 HD
ENDBRANCH  24  47
BRANCH  20  49
HETATM   49  O4  UNL     1      27.705  31.567   4.567  1.00  0.00    -0.332 OA
ATOM     50  H4  UNL     1      27.229  32.241   4.096  1.00  0.00     0.220 HD
ENDBRANCH  20  49
BRANCH  23  51
HETATM   51  C27 UNL     1      26.191  29.270   0.892  1.00  0.00     0.065 C 
BRANCH  51  52
HETATM   52  C28 UNL     1      25.424  28.085   0.493  1.00  0.00    -0.017 C 
HETATM   53  C29 UNL     1      26.010  26.769   0.930  1.00  0.00     0.010 C 
HETATM   54  C30 UNL     1      24.890  28.030  -0.905  1.00  0.00     0.010 C 
ENDBRANCH  51  52
ENDBRANCH  23  51
TORSDOF 14
ENDMDL
MODEL 5
REMARK VINA RESULT: -4.330006455      2.098      5.413
REMARK  14 active torsions:
REMARK  status: ('A' for Active; 'I' for Inactive)
REMARK    1  A    between atoms: C2_2  and  C3_3 
REMARK    2  A    between atoms: C3_3  and  N1_4 
REMARK    3  A    between atoms: C7_11  and  C8_12 
REMARK    4  A    between atoms: C8_12  and  C9_13 
REMARK    5  A    between atoms: C13_20  and  C14_21 
REMARK    6  A    between atoms: C17_24  and  C18_25 
REMARK    7  A    between atoms: C18_25  and  N4_26 
REMARK    8  A    between atoms: C19_32  and  O3_33 
REMARK    9  A    between atoms: C20_35  and  C21_36 
REMARK   10  A    between atoms: C21_36  and  C22_37 
REMARK   11  A    between atoms: C25_42  and  O4_43 
REMARK   12  A    between atoms: C26_47  and  C27_48 
REMARK   13  A    between atoms: C27_48  and  C28_49 
REMARK   14  A    between atoms: C31_52  and  O5_53 
ROOT
HETATM    1  N1  UNL     1      25.729  23.807   4.818  1.00  0.00    -0.355 N 
HETATM    2  C4  UNL     1      25.762  25.025   5.627  1.00  0.00     0.160 C 
HETATM    3  C5  UNL     1      26.573  26.127   5.102  1.00  0.00     0.197 C 
HETATM    4  C6  UNL     1      27.994  25.997   5.628  1.00  0.00     0.243 C 
HETATM    5  O1  UNL     1      28.223  25.608   6.825  1.00  0.00    -0.271 OA
HETATM    6  N2  UNL     1      29.125  26.292   4.842  1.00  0.00    -0.346 N 
ATOM      7  H2  UNL     1      30.037  25.891   5.059  1.00  0.00     0.163 HD
HETATM    8  C7  UNL     1      28.949  27.184   3.718  1.00  0.00     0.177 C 
HETATM    9  C12 UNL     1      29.304  28.535   4.257  1.00  0.00     0.240 C 
HETATM   10  O2  UNL     1      30.581  28.706   4.252  1.00  0.00    -0.271 OA
HETATM   11  N3  UNL     1      28.480  29.537   4.721  1.00  0.00    -0.352 N 
ATOM     12  H3  UNL     1      28.672  30.433   4.272  1.00  0.00     0.163 HD
HETATM   13  C13 UNL     1      27.432  29.624   5.667  1.00  0.00     0.112 C 
HETATM   14  C17 UNL     1      26.844  28.367   6.176  1.00  0.00     0.129 C 
HETATM   15  N6  UNL     1      26.176  27.517   5.169  1.00  0.00    -0.337 N 
HETATM   16  C19 UNL     1      25.263  28.206   4.337  1.00  0.00     0.162 C 
HETATM   17  C20 UNL     1      23.825  28.078   4.021  1.00  0.00     0.064 C 
HETATM   18  N7  UNL     1      23.117  27.028   4.621  1.00  0.00    -0.322 N 
ATOM     19  H7  UNL     1      22.982  27.142   5.626  1.00  0.00     0.169 HD
HETATM   20  C25 UNL     1      22.550  25.836   4.098  1.00  0.00     0.221 C 
HETATM   21  N8  UNL     1      22.936  24.957   3.131  1.00  0.00    -0.322 N 
ATOM     22  H8  UNL     1      22.308  25.034   2.331  1.00  0.00     0.169 HD
HETATM   23  C26 UNL     1      23.927  23.964   2.867  1.00  0.00     0.063 C 
HETATM   24  C31 UNL     1      24.791  23.403   3.843  1.00  0.00     0.161 C 
ENDROOT
BRANCH  14  25
HETATM   25  C18 UNL     1      25.909  28.668   7.310  1.00  0.00     0.166 C 
BRANCH  25  26
HETATM   26  N4  UNL     1      25.902  27.708   8.371  1.00  0.00    -0.341 N 
HETATM   27  N5  UNL     1      26.979  27.243   8.844  1.00  0.00    -0.349 N 
ATOM     28  H52 UNL     1      27.862  27.568   8.449  1.00  0.00     0.176 HD
ATOM     29  H51 UNL     1      26.974  26.558   9.600  1.00  0.00     0.176 HD
ATOM     30  H4  UNL     1      25.010  27.393   8.754  1.00  0.00     0.179 HD
ENDBRANCH  25  26
ENDBRANCH  14  25
BRANCH  13  31
HETATM   31  C14 UNL     1      28.106  30.337   6.868  1.00  0.00     0.002 C 
HETATM   32  C15 UNL     1      29.213  29.579   7.474  1.00  0.00     0.011 C 
HETATM   33  C16 UNL     1      28.685  31.676   6.327  1.00  0.00     0.011 C 
ENDBRANCH  13  31
BRANCH  16  34
HETATM   34  O3  UNL     1      25.732  29.231   3.640  1.00  0.00    -0.345 OA
ATOM     35  H3  UNL     1      25.789  30.069   4.084  1.00  0.00     0.219 HD
ENDBRANCH  16  34
BRANCH  17  36
HETATM   36  C21 UNL     1      23.624  28.330   2.558  1.00  0.00     0.065 C 
BRANCH  36  37
HETATM   37  C22 UNL     1      22.481  29.178   2.163  1.00  0.00    -0.017 C 
HETATM   38  C23 UNL     1      22.008  30.016   3.370  1.00  0.00     0.010 C 
HETATM   39  C24 UNL     1      21.245  28.372   1.780  1.00  0.00     0.010 C 
ENDBRANCH  36  37
ENDBRANCH  17  36
BRANCH   8  40
HETATM   40  C8  UNL     1      29.938  26.740   2.652  1.00  0.00     0.038 C 
BRANCH  40  41
HETATM   41  C9  UNL     1      29.943  27.622   1.455  1.00  0.00    -0.020 C 
HETATM   42  C10 UNL     1      29.136  27.095   0.297  1.00  0.00     0.009 C 
HETATM   43  C11 UNL     1      31.371  27.780   0.975  1.00  0.00     0.009 C 
ENDBRANCH  40  41
ENDBRANCH   8  40
BRANCH   1  44
HETATM   44  C3  UNL     1      26.850  22.866   5.127  1.00  0.00     0.151 C 
BRANCH  44  45
HETATM   45  C2  UNL     1      26.745  22.463   6.552  1.00  0.00    -0.017 C 
HETATM   46  C1  UNL     1      27.808  22.085   7.226  1.00  0.00     0.008 C 
ENDBRANCH  44  45
ENDBRANCH   1  44
BRANCH  24  47
HETATM   47  O5  UNL     1      24.726  22.073   3.885  1.00  0.00    -0.345 OA
ATOM     48  H5  UNL     1      23.953  21.813   3.397  1.00  0.00     0.219 HD
ENDBRANCH  24  47
BRANCH  20  49
HETATM   49  O4  UNL     1      21.420  25.553   4.694  1.00  0.00    -0.332 OA
ATOM     50  H4  UNL     1      20.949  24.875   4.225  1.00  0.00     0.220 HD
ENDBRANCH  20  49
BRANCH  23  51
HETATM   51  C27 UNL     1      24.470  24.309   1.496  1.00  0.00     0.065 C 
BRANCH  51  52
HETATM   52  C28 UNL     1      24.361  25.687   1.009  1.00  0.00    -0.017 C 
HETATM   53  C29 UNL     1      23.499  25.865  -0.212  1.00  0.00     0.010 C 
HETATM   54  C30 UNL     1      25.608  26.513   0.947  1.00  0.00     0.010 C 
ENDBRANCH  51  52
ENDBRANCH  23  51
TORSDOF 14
ENDMDL
