MODEL 1
REMARK VINA RESULT: -5.566245981      0.000      0.000
REMARK  12 active torsions:
REMARK  status: ('A' for Active; 'I' for Inactive)
REMARK    1  A    between atoms: C3_3  and  C4_4 
REMARK    2  A    between atoms: C3_3  and  N4_12 
REMARK    3  A    between atoms: C4_4  and  N1_5 
REMARK       I    between atoms: N1_5  and  C5_7 
REMARK       I    between atoms: N4_12  and  C6_14 
REMARK    4  A    between atoms: C6_14  and  C7_16 
REMARK    5  A    between atoms: C7_16  and  C8_17 
REMARK    6  A    between atoms: C8_17  and  C9_18 
REMARK    7  A    between atoms: C18_27  and  C19_28 
REMARK    8  A    between atoms: C18_27  and  C21_34 
REMARK    9  A    between atoms: C19_28  and  N5_29 
REMARK   10  A    between atoms: C21_34  and  N8_35 
REMARK   11  A    between atoms: C27_43  and  C28_44 
REMARK   12  A    between atoms: C31_48  and  O3_49 
ROOT
HETATM    1  C1  UNL     1      17.271  -5.359  10.127  1.00  0.00     0.014 C 
HETATM    2  C2  UNL     1      17.416  -5.175   8.943  1.00  0.00    -0.090 C 
HETATM    3  C3  UNL     1      17.602  -4.928   7.495  1.00  0.00     0.181 C 
ENDROOT
BRANCH   3   4
HETATM    4  C4  UNL     1      17.640  -3.428   7.330  1.00  0.00     0.160 C 
BRANCH   4   5
HETATM    5  N1  UNL     1      17.697  -3.146   5.907  1.00  0.00    -0.362 N 
HETATM    6  C5  UNL     1      18.959  -3.095   5.263  1.00  0.00     0.181 C 
HETATM    7  N2  UNL     1      19.877  -3.897   5.694  1.00  0.00    -0.374 N 
HETATM    8  N3  UNL     1      19.141  -2.178   4.199  1.00  0.00    -0.064 NA
ATOM      9  H22 UNL     1      19.746  -4.557   6.460  1.00  0.00     0.158 HD
ATOM     10  H21 UNL     1      20.784  -3.860   5.230  1.00  0.00     0.158 HD
ATOM     11  H1  UNL     1      16.840  -2.986   5.378  1.00  0.00     0.162 HD
ENDBRANCH   4   5
ENDBRANCH   3   4
BRANCH   3  12
HETATM   12  N4  UNL     1      16.521  -5.508   6.731  1.00  0.00    -0.343 N 
HETATM   13  C6  UNL     1      16.702  -6.245   5.553  1.00  0.00     0.235 C 
HETATM   14  O1  UNL     1      17.887  -6.388   5.157  1.00  0.00    -0.272 OA
ATOM     15  H4  UNL     1      15.568  -5.372   7.070  1.00  0.00     0.163 HD
BRANCH  13  16
HETATM   16  C7  UNL     1      15.528  -6.864   4.764  1.00  0.00     0.105 C 
HETATM   17  C12 UNL     1      15.124  -5.737   3.852  1.00  0.00     0.028 C 
HETATM   18  C13 UNL     1      16.216  -4.758   3.541  1.00  0.00     0.002 C 
HETATM   19  C14 UNL     1      16.251  -4.276   2.101  1.00  0.00     0.000 C 
HETATM   20  C15 UNL     1      17.621  -4.242   1.544  1.00  0.00     0.000 C 
HETATM   21  C16 UNL     1      18.171  -5.513   0.938  1.00  0.00     0.002 C 
HETATM   22  C17 UNL     1      17.517  -5.881  -0.301  1.00  0.00     0.035 C 
HETATM   23  C18 UNL     1      17.739  -7.060  -1.125  1.00  0.00     0.075 C 
HETATM   24  N9  UNL     1      17.101  -8.301  -0.738  1.00  0.00    -0.342 N 
HETATM   25  C25 UNL     1      16.910  -9.242  -1.884  1.00  0.00     0.153 C 
HETATM   26  C26 UNL     1      16.626  -8.804   0.457  1.00  0.00     0.243 C 
HETATM   27  O2  UNL     1      16.858 -10.061   0.652  1.00  0.00    -0.271 OA
HETATM   28  C27 UNL     1      15.885  -8.238   1.608  1.00  0.00     0.177 C 
HETATM   29  N10 UNL     1      16.532  -8.430   2.892  1.00  0.00    -0.355 N 
HETATM   30  C30 UNL     1      17.835  -9.147   2.815  1.00  0.00     0.152 C 
HETATM   31  C31 UNL     1      16.115  -8.049   4.160  1.00  0.00     0.132 C 
BRANCH  16  32
HETATM   32  C8  UNL     1      14.527  -7.064   5.853  1.00  0.00     0.032 C 
BRANCH  32  33
HETATM   33  C9  UNL     1      13.094  -7.163   5.577  1.00  0.00    -0.021 C 
HETATM   34  C10 UNL     1      12.392  -6.487   6.819  1.00  0.00     0.009 C 
HETATM   35  C11 UNL     1      12.516  -8.586   5.690  1.00  0.00     0.009 C 
ENDBRANCH  32  33
ENDBRANCH  16  32
BRANCH  23  36
HETATM   36  C19 UNL     1      16.776  -6.684  -2.328  1.00  0.00     0.154 C 
BRANCH  36  37
HETATM   37  N5  UNL     1      15.646  -5.929  -1.866  1.00  0.00    -0.364 N 
HETATM   38  C20 UNL     1      14.429  -6.226  -2.054  1.00  0.00     0.197 C 
HETATM   39  N6  UNL     1      13.427  -5.362  -1.525  1.00  0.00    -0.067 NA
HETATM   40  N7  UNL     1      13.987  -7.368  -2.761  1.00  0.00    -0.067 NA
ATOM     41  H5  UNL     1      15.841  -5.078  -1.339  1.00  0.00     0.161 HD
ENDBRANCH  36  37
ENDBRANCH  23  36
BRANCH  23  42
HETATM   42  C21 UNL     1      19.038  -7.213  -1.819  1.00  0.00     0.268 C 
BRANCH  42  43
HETATM   43  N8  UNL     1      20.291  -7.437  -1.316  1.00  0.00    -0.076 N 
HETATM   44  C22 UNL     1      21.051  -8.243  -2.360  1.00  0.00     0.271 C 
HETATM   45  C23 UNL     1      21.163  -6.241  -1.317  1.00  0.00     0.271 C 
HETATM   46  C24 UNL     1      20.601  -8.139  -0.140  1.00  0.00     0.271 C 
ENDBRANCH  42  43
ENDBRANCH  23  42
BRANCH  28  47
HETATM   47  C28 UNL     1      14.513  -8.936   1.536  1.00  0.00     0.030 C 
HETATM   48  C29 UNL     1      13.451  -7.855   1.331  1.00  0.00     0.007 C 
ENDBRANCH  28  47
BRANCH  31  49
HETATM   49  O3  UNL     1      16.288  -8.973   5.062  1.00  0.00    -0.348 OA
ATOM     50  H3  UNL     1      17.213  -9.072   5.256  1.00  0.00     0.219 HD
ENDBRANCH  31  49
ENDBRANCH  13  16
ENDBRANCH   3  12
TORSDOF 12
ENDMDL
MODEL 2
REMARK VINA RESULT: -5.261460738      3.194      6.375
REMARK  12 active torsions:
REMARK  status: ('A' for Active; 'I' for Inactive)
REMARK    1  A    between atoms: C3_3  and  C4_4 
REMARK    2  A    between atoms: C3_3  and  N4_12 
REMARK    3  A    between atoms: C4_4  and  N1_5 
REMARK       I    between atoms: N1_5  and  C5_7 
REMARK       I    between atoms: N4_12  and  C6_14 
REMARK    4  A    between atoms: C6_14  and  C7_16 
REMARK    5  A    between atoms: C7_16  and  C8_17 
REMARK    6  A    between atoms: C8_17  and  C9_18 
REMARK    7  A    between atoms: C18_27  and  C19_28 
REMARK    8  A    between atoms: C18_27  and  C21_34 
REMARK    9  A    between atoms: C19_28  and  N5_29 
REMARK   10  A    between atoms: C21_34  and  N8_35 
REMARK   11  A    between atoms: C27_43  and  C28_44 
REMARK   12  A    between atoms: C31_48  and  O3_49 
ROOT
HETATM    1  C1  UNL     1      15.391  -3.877   1.033  1.00  0.00     0.014 C 
HETATM    2  C2  UNL     1      16.077  -3.907   2.026  1.00  0.00    -0.090 C 
HETATM    3  C3  UNL     1      16.930  -3.926   3.235  1.00  0.00     0.181 C 
ENDROOT
BRANCH   3   4
HETATM    4  C4  UNL     1      18.210  -3.223   2.852  1.00  0.00     0.160 C 
BRANCH   4   5
HETATM    5  N1  UNL     1      18.048  -1.815   3.168  1.00  0.00    -0.362 N 
HETATM    6  C5  UNL     1      18.122  -1.398   4.521  1.00  0.00     0.181 C 
HETATM    7  N2  UNL     1      18.938  -2.035   5.293  1.00  0.00    -0.374 N 
HETATM    8  N3  UNL     1      17.306  -0.320   4.944  1.00  0.00    -0.064 NA
ATOM      9  H22 UNL     1      19.526  -2.812   4.989  1.00  0.00     0.158 HD
ATOM     10  H21 UNL     1      18.992  -1.735   6.267  1.00  0.00     0.158 HD
ATOM     11  H1  UNL     1      17.882  -1.135   2.426  1.00  0.00     0.162 HD
ENDBRANCH   4   5
ENDBRANCH   3   4
BRANCH   3  12
HETATM   12  N4  UNL     1      17.189  -5.282   3.661  1.00  0.00    -0.343 N 
HETATM   13  C6  UNL     1      17.543  -5.638   4.970  1.00  0.00     0.235 C 
HETATM   14  O1  UNL     1      17.641  -4.698   5.799  1.00  0.00    -0.272 OA
ATOM     15  H4  UNL     1      17.108  -6.026   2.967  1.00  0.00     0.163 HD
BRANCH  13  16
HETATM   16  C7  UNL     1      17.802  -7.098   5.399  1.00  0.00     0.105 C 
HETATM   17  C12 UNL     1      16.707  -7.337   6.404  1.00  0.00     0.028 C 
HETATM   18  C13 UNL     1      15.489  -6.481   6.221  1.00  0.00     0.002 C 
HETATM   19  C14 UNL     1      14.167  -7.196   6.443  1.00  0.00     0.000 C 
HETATM   20  C15 UNL     1      13.158  -6.862   5.414  1.00  0.00     0.000 C 
HETATM   21  C16 UNL     1      13.162  -7.663   4.133  1.00  0.00     0.002 C 
HETATM   22  C17 UNL     1      12.737  -9.035   4.318  1.00  0.00     0.035 C 
HETATM   23  C18 UNL     1      12.674 -10.102   3.331  1.00  0.00     0.075 C 
HETATM   24  N9  UNL     1      13.893 -10.813   3.004  1.00  0.00    -0.342 N 
HETATM   25  C25 UNL     1      13.644 -12.185   2.468  1.00  0.00     0.153 C 
HETATM   26  C26 UNL     1      15.236 -10.500   3.085  1.00  0.00     0.243 C 
HETATM   27  O2  UNL     1      15.952 -10.907   2.088  1.00  0.00    -0.271 OA
HETATM   28  C27 UNL     1      16.087  -9.793   4.069  1.00  0.00     0.177 C 
HETATM   29  N10 UNL     1      16.849  -8.687   3.521  1.00  0.00    -0.355 N 
HETATM   30  C30 UNL     1      16.620  -8.453   2.067  1.00  0.00     0.152 C 
HETATM   31  C31 UNL     1      17.745  -7.833   4.146  1.00  0.00     0.132 C 
BRANCH  16  32
HETATM   32  C8  UNL     1      19.130  -6.967   6.069  1.00  0.00     0.032 C 
BRANCH  32  33
HETATM   33  C9  UNL     1      19.348  -7.406   7.446  1.00  0.00    -0.021 C 
HETATM   34  C10 UNL     1      19.827  -6.113   8.215  1.00  0.00     0.009 C 
HETATM   35  C11 UNL     1      20.583  -8.304   7.646  1.00  0.00     0.009 C 
ENDBRANCH  32  33
ENDBRANCH  16  32
BRANCH  23  36
HETATM   36  C19 UNL     1      12.008 -11.218   4.241  1.00  0.00     0.154 C 
BRANCH  36  37
HETATM   37  N5  UNL     1      12.335 -11.016   5.624  1.00  0.00    -0.364 N 
HETATM   38  C20 UNL     1      12.994 -11.813   6.354  1.00  0.00     0.197 C 
HETATM   39  N6  UNL     1      13.230 -11.457   7.713  1.00  0.00    -0.067 NA
HETATM   40  N7  UNL     1      13.521 -13.049   5.911  1.00  0.00    -0.067 NA
ATOM     41  H5  UNL     1      12.006 -10.153   6.057  1.00  0.00     0.161 HD
ENDBRANCH  36  37
ENDBRANCH  23  36
BRANCH  23  42
HETATM   42  C21 UNL     1      11.695  -9.997   2.224  1.00  0.00     0.268 C 
BRANCH  42  43
HETATM   43  N8  UNL     1      11.761  -9.303   1.046  1.00  0.00    -0.076 N 
HETATM   44  C22 UNL     1      11.458 -10.293  -0.069  1.00  0.00     0.271 C 
HETATM   45  C23 UNL     1      10.614  -8.394   0.819  1.00  0.00     0.271 C 
HETATM   46  C24 UNL     1      12.887  -8.639   0.534  1.00  0.00     0.271 C 
ENDBRANCH  42  43
ENDBRANCH  23  42
BRANCH  28  47
HETATM   47  C28 UNL     1      16.995 -10.906   4.629  1.00  0.00     0.030 C 
HETATM   48  C29 UNL     1      16.703 -11.037   6.124  1.00  0.00     0.007 C 
ENDBRANCH  28  47
BRANCH  31  49
HETATM   49  O3  UNL     1      18.824  -7.612   3.448  1.00  0.00    -0.348 OA
ATOM     50  H3  UNL     1      18.655  -6.954   2.784  1.00  0.00     0.219 HD
ENDBRANCH  31  49
ENDBRANCH  13  16
ENDBRANCH   3  12
TORSDOF 12
ENDMDL
MODEL 3
REMARK VINA RESULT: -5.235876141      3.386      6.501
REMARK  12 active torsions:
REMARK  status: ('A' for Active; 'I' for Inactive)
REMARK    1  A    between atoms: C3_3  and  C4_4 
REMARK    2  A    between atoms: C3_3  and  N4_12 
REMARK    3  A    between atoms: C4_4  and  N1_5 
REMARK       I    between atoms: N1_5  and  C5_7 
REMARK       I    between atoms: N4_12  and  C6_14 
REMARK    4  A    between atoms: C6_14  and  C7_16 
REMARK    5  A    between atoms: C7_16  and  C8_17 
REMARK    6  A    between atoms: C8_17  and  C9_18 
REMARK    7  A    between atoms: C18_27  and  C19_28 
REMARK    8  A    between atoms: C18_27  and  C21_34 
REMARK    9  A    between atoms: C19_28  and  N5_29 
REMARK   10  A    between atoms: C21_34  and  N8_35 
REMARK   11  A    between atoms: C27_43  and  C28_44 
REMARK   12  A    between atoms: C31_48  and  O3_49 
ROOT
HETATM    1  C1  UNL     1      17.469  -5.080   1.149  1.00  0.00     0.014 C 
HETATM    2  C2  UNL     1      17.464  -4.661   2.281  1.00  0.00    -0.090 C 
HETATM    3  C3  UNL     1      17.466  -4.127   3.662  1.00  0.00     0.181 C 
ENDROOT
BRANCH   3   4
HETATM    4  C4  UNL     1      18.386  -2.930   3.644  1.00  0.00     0.160 C 
BRANCH   4   5
HETATM    5  N1  UNL     1      17.674  -1.822   4.256  1.00  0.00    -0.362 N 
HETATM    6  C5  UNL     1      18.351  -0.593   4.457  1.00  0.00     0.181 C 
HETATM    7  N2  UNL     1      19.231  -0.250   3.574  1.00  0.00    -0.374 N 
HETATM    8  N3  UNL     1      18.030   0.180   5.599  1.00  0.00    -0.064 NA
ATOM      9  H22 UNL     1      19.463  -0.806   2.751  1.00  0.00     0.158 HD
ATOM     10  H21 UNL     1      19.718   0.635   3.718  1.00  0.00     0.158 HD
ATOM     11  H1  UNL     1      16.700  -1.927   4.538  1.00  0.00     0.162 HD
ENDBRANCH   4   5
ENDBRANCH   3   4
BRANCH   3  12
HETATM   12  N4  UNL     1      17.929  -5.125   4.599  1.00  0.00    -0.343 N 
HETATM   13  C6  UNL     1      17.966  -4.937   5.988  1.00  0.00     0.235 C 
HETATM   14  O1  UNL     1      17.573  -3.821   6.414  1.00  0.00    -0.272 OA
ATOM     15  H4  UNL     1      18.248  -6.019   4.228  1.00  0.00     0.163 HD
BRANCH  13  16
HETATM   16  C7  UNL     1      18.454  -6.026   6.967  1.00  0.00     0.105 C 
HETATM   17  C12 UNL     1      17.161  -6.608   7.473  1.00  0.00     0.028 C 
HETATM   18  C13 UNL     1      15.999  -6.461   6.537  1.00  0.00     0.002 C 
HETATM   19  C14 UNL     1      15.088  -7.674   6.456  1.00  0.00     0.000 C 
HETATM   20  C15 UNL     1      14.699  -8.004   5.067  1.00  0.00     0.000 C 
HETATM   21  C16 UNL     1      15.630  -8.881   4.261  1.00  0.00     0.002 C 
HETATM   22  C17 UNL     1      15.672 -10.249   4.732  1.00  0.00     0.035 C 
HETATM   23  C18 UNL     1      16.491 -11.349   4.243  1.00  0.00     0.075 C 
HETATM   24  N9  UNL     1      17.864 -11.440   4.695  1.00  0.00    -0.342 N 
HETATM   25  C25 UNL     1      18.413 -12.828   4.624  1.00  0.00     0.153 C 
HETATM   26  C26 UNL     1      18.776 -10.524   5.183  1.00  0.00     0.243 C 
HETATM   27  O2  UNL     1      19.988 -10.682   4.761  1.00  0.00    -0.271 OA
HETATM   28  C27 UNL     1      18.704  -9.369   6.107  1.00  0.00     0.177 C 
HETATM   29  N10 UNL     1      19.203  -8.124   5.553  1.00  0.00    -0.355 N 
HETATM   30  C30 UNL     1      19.681  -8.233   4.146  1.00  0.00     0.152 C 
HETATM   31  C31 UNL     1      19.300  -6.870   6.138  1.00  0.00     0.132 C 
BRANCH  16  32
HETATM   32  C8  UNL     1      19.118  -5.193   8.013  1.00  0.00     0.032 C 
BRANCH  32  33
HETATM   33  C9  UNL     1      18.791  -5.328   9.432  1.00  0.00    -0.021 C 
HETATM   34  C10 UNL     1      18.078  -3.975   9.817  1.00  0.00     0.009 C 
HETATM   35  C11 UNL     1      20.005  -5.266  10.378  1.00  0.00     0.009 C 
ENDBRANCH  32  33
ENDBRANCH  16  32
BRANCH  23  36
HETATM   36  C19 UNL     1      15.887 -12.505   5.146  1.00  0.00     0.154 C 
BRANCH  36  37
HETATM   37  N5  UNL     1      14.897 -11.989   6.047  1.00  0.00    -0.364 N 
HETATM   38  C20 UNL     1      14.767 -12.307   7.266  1.00  0.00     0.197 C 
HETATM   39  N6  UNL     1      13.724 -11.696   8.023  1.00  0.00    -0.067 NA
HETATM   40  N7  UNL     1      15.594 -13.234   7.941  1.00  0.00    -0.067 NA
ATOM     41  H5  UNL     1      14.238 -11.306   5.672  1.00  0.00     0.161 HD
ENDBRANCH  36  37
ENDBRANCH  23  36
BRANCH  23  42
HETATM   42  C21 UNL     1      16.244 -11.873   2.881  1.00  0.00     0.268 C 
BRANCH  42  43
HETATM   43  N8  UNL     1      16.582 -11.359   1.658  1.00  0.00    -0.076 N 
HETATM   44  C22 UNL     1      17.065 -12.524   0.805  1.00  0.00     0.271 C 
HETATM   45  C23 UNL     1      15.420 -10.974   0.825  1.00  0.00     0.271 C 
HETATM   46  C24 UNL     1      17.573 -10.396   1.406  1.00  0.00     0.271 C 
ENDBRANCH  42  43
ENDBRANCH  23  42
BRANCH  28  47
HETATM   47  C28 UNL     1      19.519  -9.831   7.331  1.00  0.00     0.030 C 
HETATM   48  C29 UNL     1      18.731 -10.944   8.021  1.00  0.00     0.007 C 
ENDBRANCH  28  47
BRANCH  31  49
HETATM   49  O3  UNL     1      20.430  -6.268   5.893  1.00  0.00    -0.348 OA
ATOM     50  H3  UNL     1      20.270  -5.430   5.476  1.00  0.00     0.219 HD
ENDBRANCH  31  49
ENDBRANCH  13  16
ENDBRANCH   3  12
TORSDOF 12
ENDMDL
MODEL 4
REMARK VINA RESULT: -5.233918270     16.994     21.693
REMARK  12 active torsions:
REMARK  status: ('A' for Active; 'I' for Inactive)
REMARK    1  A    between atoms: C3_3  and  C4_4 
REMARK    2  A    between atoms: C3_3  and  N4_12 
REMARK    3  A    between atoms: C4_4  and  N1_5 
REMARK       I    between atoms: N1_5  and  C5_7 
REMARK       I    between atoms: N4_12  and  C6_14 
REMARK    4  A    between atoms: C6_14  and  C7_16 
REMARK    5  A    between atoms: C7_16  and  C8_17 
REMARK    6  A    between atoms: C8_17  and  C9_18 
REMARK    7  A    between atoms: C18_27  and  C19_28 
REMARK    8  A    between atoms: C18_27  and  C21_34 
REMARK    9  A    between atoms: C19_28  and  N5_29 
REMARK   10  A    between atoms: C21_34  and  N8_35 
REMARK   11  A    between atoms: C27_43  and  C28_44 
REMARK   12  A    between atoms: C31_48  and  O3_49 
ROOT
HETATM    1  C1  UNL     1      18.013   0.155  18.706  1.00  0.00     0.014 C 
HETATM    2  C2  UNL     1      17.849   1.162  18.061  1.00  0.00    -0.090 C 
HETATM    3  C3  UNL     1      17.660   2.388  17.254  1.00  0.00     0.181 C 
ENDROOT
BRANCH   3   4
HETATM    4  C4  UNL     1      18.769   2.386  16.229  1.00  0.00     0.160 C 
BRANCH   4   5
HETATM    5  N1  UNL     1      19.121   3.770  15.964  1.00  0.00    -0.362 N 
HETATM    6  C5  UNL     1      18.684   4.375  14.759  1.00  0.00     0.181 C 
HETATM    7  N2  UNL     1      17.534   4.012  14.296  1.00  0.00    -0.374 N 
HETATM    8  N3  UNL     1      19.524   5.332  14.138  1.00  0.00    -0.064 NA
ATOM      9  H22 UNL     1      16.929   3.322  14.743  1.00  0.00     0.158 HD
ATOM     10  H21 UNL     1      17.219   4.447  13.429  1.00  0.00     0.158 HD
ATOM     11  H1  UNL     1      19.676   4.299  16.636  1.00  0.00     0.162 HD
ENDBRANCH   4   5
ENDBRANCH   3   4
BRANCH   3  12
HETATM   12  N4  UNL     1      17.723   3.567  18.086  1.00  0.00    -0.343 N 
HETATM   13  C6  UNL     1      16.602   4.178  18.666  1.00  0.00     0.235 C 
HETATM   14  O1  UNL     1      15.487   3.649  18.423  1.00  0.00    -0.272 OA
ATOM     15  H4  UNL     1      18.638   3.980  18.263  1.00  0.00     0.163 HD
BRANCH  13  16
HETATM   16  C7  UNL     1      16.701   5.431  19.562  1.00  0.00     0.105 C 
HETATM   17  C12 UNL     1      17.123   6.494  18.584  1.00  0.00     0.028 C 
HETATM   18  C13 UNL     1      16.727   6.231  17.162  1.00  0.00     0.002 C 
HETATM   19  C14 UNL     1      16.246   7.452  16.397  1.00  0.00     0.000 C 
HETATM   20  C15 UNL     1      15.039   7.178  15.586  1.00  0.00     0.000 C 
HETATM   21  C16 UNL     1      13.691   7.297  16.259  1.00  0.00     0.002 C 
HETATM   22  C17 UNL     1      13.340   8.663  16.590  1.00  0.00     0.035 C 
HETATM   23  C18 UNL     1      12.160   9.148  17.290  1.00  0.00     0.075 C 
HETATM   24  N9  UNL     1      12.140   9.082  18.737  1.00  0.00    -0.342 N 
HETATM   25  C25 UNL     1      11.213  10.078  19.355  1.00  0.00     0.153 C 
HETATM   26  C26 UNL     1      12.795   8.303  19.670  1.00  0.00     0.243 C 
HETATM   27  O2  UNL     1      12.070   7.925  20.672  1.00  0.00    -0.271 OA
HETATM   28  C27 UNL     1      14.174   7.782  19.814  1.00  0.00     0.177 C 
HETATM   29  N10 UNL     1      14.258   6.342  19.971  1.00  0.00    -0.355 N 
HETATM   30  C30 UNL     1      12.940   5.649  19.942  1.00  0.00     0.152 C 
HETATM   31  C31 UNL     1      15.373   5.534  20.145  1.00  0.00     0.132 C 
BRANCH  16  32
HETATM   32  C8  UNL     1      17.827   5.048  20.464  1.00  0.00     0.032 C 
BRANCH  32  33
HETATM   33  C9  UNL     1      18.667   6.049  21.120  1.00  0.00    -0.021 C 
HETATM   34  C10 UNL     1      19.665   5.219  22.017  1.00  0.00     0.009 C 
HETATM   35  C11 UNL     1      17.953   6.871  22.209  1.00  0.00     0.009 C 
ENDBRANCH  32  33
ENDBRANCH  16  32
BRANCH  23  36
HETATM   36  C19 UNL     1      12.431  10.704  17.146  1.00  0.00     0.154 C 
BRANCH  36  37
HETATM   37  N5  UNL     1      13.838  10.977  17.071  1.00  0.00    -0.364 N 
HETATM   38  C20 UNL     1      14.489  11.731  17.853  1.00  0.00     0.197 C 
HETATM   39  N6  UNL     1      15.889  11.892  17.637  1.00  0.00    -0.067 NA
HETATM   40  N7  UNL     1      13.921  12.433  18.941  1.00  0.00    -0.067 NA
ATOM     41  H5  UNL     1      14.359  10.522  16.322  1.00  0.00     0.161 HD
ENDBRANCH  36  37
ENDBRANCH  23  36
BRANCH  23  42
HETATM   42  C21 UNL     1      10.836   9.014  16.639  1.00  0.00     0.268 C 
BRANCH  42  43
HETATM   43  N8  UNL     1      10.108   7.896  16.333  1.00  0.00    -0.076 N 
HETATM   44  C22 UNL     1       8.641   8.298  16.371  1.00  0.00     0.271 C 
HETATM   45  C23 UNL     1      10.169   7.510  14.905  1.00  0.00     0.271 C 
HETATM   46  C24 UNL     1      10.089   6.693  17.056  1.00  0.00     0.271 C 
ENDBRANCH  42  43
ENDBRANCH  23  42
BRANCH  28  47
HETATM   47  C28 UNL     1      14.722   8.536  21.040  1.00  0.00     0.030 C 
HETATM   48  C29 UNL     1      15.821   9.480  20.553  1.00  0.00     0.007 C 
ENDBRANCH  28  47
BRANCH  31  49
HETATM   49  O3  UNL     1      15.212   4.619  21.059  1.00  0.00    -0.348 OA
ATOM     50  H3  UNL     1      14.576   4.907  21.702  1.00  0.00     0.219 HD
ENDBRANCH  31  49
ENDBRANCH  13  16
ENDBRANCH   3  12
TORSDOF 12
ENDMDL
MODEL 5
REMARK VINA RESULT: -5.229975499      2.653      5.889
REMARK  12 active torsions:
REMARK  status: ('A' for Active; 'I' for Inactive)
REMARK    1  A    between atoms: C3_3  and  C4_4 
REMARK    2  A    between atoms: C3_3  and  N4_12 
REMARK    3  A    between atoms: C4_4  and  N1_5 
REMARK       I    between atoms: N1_5  and  C5_7 
REMARK       I    between atoms: N4_12  and  C6_14 
REMARK    4  A    between atoms: C6_14  and  C7_16 
REMARK    5  A    between atoms: C7_16  and  C8_17 
REMARK    6  A    between atoms: C8_17  and  C9_18 
REMARK    7  A    between atoms: C18_27  and  C19_28 
REMARK    8  A    between atoms: C18_27  and  C21_34 
REMARK    9  A    between atoms: C19_28  and  N5_29 
REMARK   10  A    between atoms: C21_34  and  N8_35 
REMARK   11  A    between atoms: C27_43  and  C28_44 
REMARK   12  A    between atoms: C31_48  and  O3_49 
ROOT
HETATM    1  C1  UNL     1      15.964 -12.368   5.023  1.00  0.00     0.014 C 
HETATM    2  C2  UNL     1      15.588 -11.479   5.748  1.00  0.00    -0.090 C 
HETATM    3  C3  UNL     1      15.108 -10.401   6.642  1.00  0.00     0.181 C 
ENDROOT
BRANCH   3   4
HETATM    4  C4  UNL     1      13.610 -10.568   6.729  1.00  0.00     0.160 C 
BRANCH   4   5
HETATM    5  N1  UNL     1      13.053 -10.193   5.442  1.00  0.00    -0.362 N 
HETATM    6  C5  UNL     1      11.809  -9.513   5.399  1.00  0.00     0.181 C 
HETATM    7  N2  UNL     1      11.551  -8.691   6.362  1.00  0.00    -0.374 N 
HETATM    8  N3  UNL     1      10.932  -9.772   4.318  1.00  0.00    -0.064 NA
ATOM      9  H22 UNL     1      12.183  -8.505   7.141  1.00  0.00     0.158 HD
ATOM     10  H21 UNL     1      10.657  -8.201   6.331  1.00  0.00     0.158 HD
ATOM     11  H1  UNL     1      13.549 -10.416   4.579  1.00  0.00     0.162 HD
ENDBRANCH   4   5
ENDBRANCH   3   4
BRANCH   3  12
HETATM   12  N4  UNL     1      15.456  -9.102   6.113  1.00  0.00    -0.343 N 
HETATM   13  C6  UNL     1      16.511  -8.316   6.598  1.00  0.00     0.235 C 
HETATM   14  O1  UNL     1      17.172  -8.793   7.556  1.00  0.00    -0.272 OA
ATOM     15  H4  UNL     1      14.901  -8.734   5.340  1.00  0.00     0.163 HD
BRANCH  13  16
HETATM   16  C7  UNL     1      16.868  -6.936   6.005  1.00  0.00     0.105 C 
HETATM   17  C12 UNL     1      17.974  -7.276   5.042  1.00  0.00     0.028 C 
HETATM   18  C13 UNL     1      17.945  -8.682   4.523  1.00  0.00     0.002 C 
HETATM   19  C14 UNL     1      18.283  -8.825   3.049  1.00  0.00     0.000 C 
HETATM   20  C15 UNL     1      17.376  -9.756   2.343  1.00  0.00     0.000 C 
HETATM   21  C16 UNL     1      16.078  -9.204   1.800  1.00  0.00     0.002 C 
HETATM   22  C17 UNL     1      16.266  -8.304   0.682  1.00  0.00     0.035 C 
HETATM   23  C18 UNL     1      15.260  -7.547  -0.048  1.00  0.00     0.075 C 
HETATM   24  N9  UNL     1      14.786  -6.302   0.521  1.00  0.00    -0.342 N 
HETATM   25  C25 UNL     1      14.240  -5.361  -0.504  1.00  0.00     0.153 C 
HETATM   26  C26 UNL     1      14.736  -5.792   1.803  1.00  0.00     0.243 C 
HETATM   27  O2  UNL     1      13.658  -5.136   2.088  1.00  0.00    -0.271 OA
HETATM   28  C27 UNL     1      15.646  -5.807   2.971  1.00  0.00     0.177 C 
HETATM   29  N10 UNL     1      15.054  -6.329   4.188  1.00  0.00    -0.355 N 
HETATM   30  C30 UNL     1      13.640  -6.773   4.035  1.00  0.00     0.152 C 
HETATM   31  C31 UNL     1      15.607  -6.470   5.453  1.00  0.00     0.132 C 
BRANCH  16  32
HETATM   32  C8  UNL     1      17.399  -6.236   7.212  1.00  0.00     0.032 C 
BRANCH  32  33
HETATM   33  C9  UNL     1      18.576  -5.372   7.150  1.00  0.00    -0.021 C 
HETATM   34  C10 UNL     1      19.141  -5.344   8.623  1.00  0.00     0.009 C 
HETATM   35  C11 UNL     1      18.265  -3.876   6.958  1.00  0.00     0.009 C 
ENDBRANCH  32  33
ENDBRANCH  16  32
BRANCH  23  36
HETATM   36  C19 UNL     1      16.201  -6.932  -1.167  1.00  0.00     0.154 C 
BRANCH  36  37
HETATM   37  N5  UNL     1      17.508  -6.654  -0.643  1.00  0.00    -0.364 N 
HETATM   38  C20 UNL     1      18.225  -5.651  -0.934  1.00  0.00     0.197 C 
HETATM   39  N6  UNL     1      19.506  -5.527  -0.320  1.00  0.00    -0.067 NA
HETATM   40  N7  UNL     1      17.842  -4.631  -1.835  1.00  0.00    -0.067 NA
ATOM     41  H5  UNL     1      17.894  -7.324   0.023  1.00  0.00     0.161 HD
ENDBRANCH  36  37
ENDBRANCH  23  36
BRANCH  23  42
HETATM   42  C21 UNL     1      14.265  -8.280  -0.864  1.00  0.00     0.268 C 
BRANCH  42  43
HETATM   43  N8  UNL     1      13.095  -8.888  -0.500  1.00  0.00    -0.076 N 
HETATM   44  C22 UNL     1      11.998  -8.305  -1.380  1.00  0.00     0.271 C 
HETATM   45  C23 UNL     1      12.982 -10.294  -0.950  1.00  0.00     0.271 C 
HETATM   46  C24 UNL     1      12.492  -8.841   0.767  1.00  0.00     0.271 C 
ENDBRANCH  42  43
ENDBRANCH  23  42
BRANCH  28  47
HETATM   47  C28 UNL     1      16.075  -4.334   3.117  1.00  0.00     0.030 C 
HETATM   48  C29 UNL     1      17.447  -4.181   2.460  1.00  0.00     0.007 C 
ENDBRANCH  28  47
BRANCH  31  49
HETATM   49  O3  UNL     1      14.807  -6.100   6.413  1.00  0.00    -0.348 OA
ATOM     50  H3  UNL     1      13.924  -5.992   6.079  1.00  0.00     0.219 HD
ENDBRANCH  31  49
ENDBRANCH  13  16
ENDBRANCH   3  12
TORSDOF 12
ENDMDL
