MODEL 1
REMARK VINA RESULT: -9.554128123      0.000      0.000
REMARK  11 active torsions:
REMARK  status: ('A' for Active; 'I' for Inactive)
REMARK    1  A    between atoms: C1_2  and  C2_4 
REMARK    2  A    between atoms: C2_4  and  C3_5 
REMARK    3  A    between atoms: C2_4  and  N5_13 
REMARK    4  A    between atoms: C3_5  and  C4_6 
REMARK    5  A    between atoms: C4_6  and  C5_7 
REMARK    6  A    between atoms: C5_7  and  N2_8 
REMARK       I    between atoms: N5_13  and  C7_15 
REMARK    7  A    between atoms: C7_15  and  C8_17 
REMARK    8  A    between atoms: C8_17  and  N6_18 
REMARK       I    between atoms: N6_18  and  C9_20 
REMARK       I    between atoms: C9_20  and  N7_22 
REMARK    9  A    between atoms: N7_22  and  C10_24 
REMARK   10  A    between atoms: N9_34  and  C18_35 
REMARK   11  A    between atoms: C18_35  and  C19_36 
ROOT
HETATM    1  C8  UNL     1      18.880  -0.478  12.789  1.00  0.00     0.116 C 
HETATM    2  C24 UNL     1      17.434  -0.203  13.106  1.00  0.00     0.046 C 
HETATM    3  C25 UNL     1      17.279  -0.467  14.586  1.00  0.00    -0.008 C 
HETATM    4  C26 UNL     1      16.300   0.482  15.256  1.00  0.00     0.005 C 
HETATM    5  C27 UNL     1      16.569   0.397  16.749  1.00  0.00     0.000 C 
HETATM    6  C28 UNL     1      17.411  -0.810  17.112  1.00  0.00     0.000 C 
HETATM    7  C29 UNL     1      18.760  -0.803  16.467  1.00  0.00     0.005 C 
HETATM    8  C30 UNL     1      18.640  -0.099  15.122  1.00  0.00    -0.008 C 
HETATM    9  C31 UNL     1      19.584  -0.613  14.112  1.00  0.00     0.046 C 
ENDROOT
BRANCH   1  10
HETATM   10  C7  UNL     1      19.397   0.690  12.007  1.00  0.00     0.246 C 
HETATM   11  N5  UNL     1      18.585   1.760  11.625  1.00  0.00    -0.346 N 
ATOM     12  H5  UNL     1      17.599   1.747  11.885  1.00  0.00     0.163 HD
HETATM   13  O2  UNL     1      20.628   0.687  11.686  1.00  0.00    -0.271 OA
BRANCH  11  14
HETATM   14  C2  UNL     1      19.116   2.935  10.842  1.00  0.00     0.173 C 
BRANCH  14  15
HETATM   15  C1  UNL     1      19.027   4.107  11.702  1.00  0.00     0.254 C 
HETATM   16  N1  UNL     1      18.463   4.081  13.027  1.00  0.00    -0.060 NA
HETATM   17  O1  UNL     1      19.446   5.227  11.303  1.00  0.00    -0.275 OA
ENDBRANCH  14  15
BRANCH  14  18
HETATM   18  C3  UNL     1      18.280   2.902   9.599  1.00  0.00     0.036 C 
BRANCH  18  19
HETATM   19  C4  UNL     1      18.784   2.391   8.335  1.00  0.00     0.022 C 
BRANCH  19  20
HETATM   20  C5  UNL     1      18.902   0.926   8.130  1.00  0.00     0.122 C 
BRANCH  20  21
HETATM   21  N2  UNL     1      17.636   0.351   7.661  1.00  0.00    -0.367 N 
HETATM   22  C6  UNL     1      17.455   0.125   6.400  1.00  0.00     0.196 C 
HETATM   23  N3  UNL     1      16.194  -0.437   6.020  1.00  0.00    -0.067 NA
HETATM   24  N4  UNL     1      18.482   0.437   5.489  1.00  0.00    -0.067 NA
ATOM     25  H2  UNL     1      16.898   0.129   8.329  1.00  0.00     0.161 HD
ENDBRANCH  20  21
ENDBRANCH  19  20
ENDBRANCH  18  19
ENDBRANCH  14  18
ENDBRANCH  11  14
ENDBRANCH   1  10
BRANCH   1  26
HETATM   26  N6  UNL     1      19.044  -1.710  12.011  1.00  0.00    -0.325 N 
HETATM   27  C9  UNL     1      18.204  -2.016  10.916  1.00  0.00     0.317 C 
HETATM   28  O3  UNL     1      17.291  -1.193  10.621  1.00  0.00    -0.247 OA
HETATM   29  N7  UNL     1      18.309  -3.175  10.125  1.00  0.00    -0.330 N 
ATOM     30  H7  UNL     1      19.035  -3.857  10.339  1.00  0.00     0.165 HD
ATOM     31  H6  UNL     1      19.784  -2.363  12.268  1.00  0.00     0.165 HD
BRANCH  29  32
HETATM   32  C10 UNL     1      17.416  -3.422   9.021  1.00  0.00     0.180 C 
HETATM   33  C11 UNL     1      16.747  -4.759   9.247  1.00  0.00     0.063 C 
HETATM   34  C12 UNL     1      15.888  -5.159   8.083  1.00  0.00     0.252 C 
HETATM   35  N8  UNL     1      16.505  -6.198   7.271  1.00  0.00     0.014 N 
HETATM   36  C13 UNL     1      15.569  -6.732   6.310  1.00  0.00     0.249 C 
HETATM   37  C16 UNL     1      16.918  -7.319   8.060  1.00  0.00     0.249 C 
HETATM   38  C17 UNL     1      17.611  -5.613   6.605  1.00  0.00     0.424 C 
HETATM   39  C14 UNL     1      16.140  -8.064   5.935  1.00  0.00     0.030 C 
HETATM   40  C15 UNL     1      17.061  -8.436   7.057  1.00  0.00     0.030 C 
HETATM   41  O4  UNL     1      18.268  -6.375   5.813  1.00  0.00    -0.239 OA
HETATM   42  N9  UNL     1      18.156  -4.307   6.640  1.00  0.00    -0.262 N 
HETATM   43  C23 UNL     1      18.138  -3.382   7.729  1.00  0.00     0.250 C 
HETATM   44  O5  UNL     1      18.850  -2.360   7.576  1.00  0.00    -0.271 OA
BRANCH  42  45
HETATM   45  C18 UNL     1      18.794  -3.892   5.414  1.00  0.00     0.141 C 
BRANCH  45  46
HETATM   46  C19 UNL     1      17.893  -3.184   4.462  1.00  0.00     0.004 C 
HETATM   47  C20 UNL     1      18.723  -2.625   3.294  1.00  0.00     0.006 C 
HETATM   48  C21 UNL     1      17.521  -2.958   2.406  1.00  0.00     0.001 C 
HETATM   49  C22 UNL     1      17.213  -4.061   3.403  1.00  0.00     0.006 C 
ENDBRANCH  45  46
ENDBRANCH  42  45
ENDBRANCH  29  32
ENDBRANCH   1  26
TORSDOF 11
ENDMDL
MODEL 2
REMARK VINA RESULT: -9.383025951      1.458      3.520
REMARK  11 active torsions:
REMARK  status: ('A' for Active; 'I' for Inactive)
REMARK    1  A    between atoms: C1_2  and  C2_4 
REMARK    2  A    between atoms: C2_4  and  C3_5 
REMARK    3  A    between atoms: C2_4  and  N5_13 
REMARK    4  A    between atoms: C3_5  and  C4_6 
REMARK    5  A    between atoms: C4_6  and  C5_7 
REMARK    6  A    between atoms: C5_7  and  N2_8 
REMARK       I    between atoms: N5_13  and  C7_15 
REMARK    7  A    between atoms: C7_15  and  C8_17 
REMARK    8  A    between atoms: C8_17  and  N6_18 
REMARK       I    between atoms: N6_18  and  C9_20 
REMARK       I    between atoms: C9_20  and  N7_22 
REMARK    9  A    between atoms: N7_22  and  C10_24 
REMARK   10  A    between atoms: N9_34  and  C18_35 
REMARK   11  A    between atoms: C18_35  and  C19_36 
ROOT
HETATM    1  C8  UNL     1      18.227   0.173  13.183  1.00  0.00     0.116 C 
HETATM    2  C24 UNL     1      16.917  -0.109  13.869  1.00  0.00     0.046 C 
HETATM    3  C25 UNL     1      17.249  -0.309  15.330  1.00  0.00    -0.008 C 
HETATM    4  C26 UNL     1      16.177   0.234  16.259  1.00  0.00     0.005 C 
HETATM    5  C27 UNL     1      16.818   0.363  17.630  1.00  0.00     0.000 C 
HETATM    6  C28 UNL     1      18.126  -0.396  17.725  1.00  0.00     0.000 C 
HETATM    7  C29 UNL     1      19.160   0.086  16.757  1.00  0.00     0.005 C 
HETATM    8  C30 UNL     1      18.445   0.593  15.512  1.00  0.00    -0.008 C 
HETATM    9  C31 UNL     1      19.232   0.414  14.278  1.00  0.00     0.046 C 
ENDROOT
BRANCH   1  10
HETATM   10  C7  UNL     1      18.036   1.392  12.335  1.00  0.00     0.246 C 
HETATM   11  N5  UNL     1      18.791   1.637  11.186  1.00  0.00    -0.346 N 
ATOM     12  H5  UNL     1      19.506   0.963  10.914  1.00  0.00     0.163 HD
HETATM   13  O2  UNL     1      17.145   2.226  12.694  1.00  0.00    -0.271 OA
BRANCH  11  14
HETATM   14  C2  UNL     1      18.588   2.866  10.335  1.00  0.00     0.173 C 
BRANCH  14  15
HETATM   15  C1  UNL     1      18.503   2.426   8.949  1.00  0.00     0.254 C 
HETATM   16  N1  UNL     1      18.051   1.116   8.557  1.00  0.00    -0.060 NA
HETATM   17  O1  UNL     1      18.840   3.196   8.011  1.00  0.00    -0.275 OA
ENDBRANCH  14  15
BRANCH  14  18
HETATM   18  C3  UNL     1      19.742   3.733  10.735  1.00  0.00     0.036 C 
BRANCH  18  19
HETATM   19  C4  UNL     1      19.562   5.081  11.249  1.00  0.00     0.022 C 
BRANCH  19  20
HETATM   20  C5  UNL     1      18.801   5.290  12.506  1.00  0.00     0.122 C 
BRANCH  20  21
HETATM   21  N2  UNL     1      19.261   4.383  13.565  1.00  0.00    -0.367 N 
HETATM   22  C6  UNL     1      19.060   4.683  14.807  1.00  0.00     0.196 C 
HETATM   23  N3  UNL     1      19.537   3.748  15.780  1.00  0.00    -0.067 NA
HETATM   24  N4  UNL     1      18.398   5.883  15.129  1.00  0.00    -0.067 NA
ATOM     25  H2  UNL     1      19.739   3.516  13.320  1.00  0.00     0.161 HD
ENDBRANCH  20  21
ENDBRANCH  19  20
ENDBRANCH  18  19
ENDBRANCH  14  18
ENDBRANCH  11  14
ENDBRANCH   1  10
BRANCH   1  26
HETATM   26  N6  UNL     1      18.662  -0.951  12.349  1.00  0.00    -0.325 N 
HETATM   27  C9  UNL     1      17.925  -1.365  11.215  1.00  0.00     0.317 C 
HETATM   28  O3  UNL     1      16.864  -0.735  10.936  1.00  0.00    -0.247 OA
HETATM   29  N7  UNL     1      18.286  -2.429  10.370  1.00  0.00    -0.330 N 
ATOM     30  H7  UNL     1      19.136  -2.955  10.570  1.00  0.00     0.165 HD
ATOM     31  H6  UNL     1      19.518  -1.448  12.594  1.00  0.00     0.165 HD
BRANCH  29  32
HETATM   32  C10 UNL     1      17.486  -2.795   9.228  1.00  0.00     0.180 C 
HETATM   33  C11 UNL     1      16.920  -4.175   9.473  1.00  0.00     0.063 C 
HETATM   34  C12 UNL     1      16.171  -4.693   8.281  1.00  0.00     0.252 C 
HETATM   35  N8  UNL     1      16.921  -5.704   7.551  1.00  0.00     0.014 N 
HETATM   36  C13 UNL     1      16.094  -6.354   6.562  1.00  0.00     0.249 C 
HETATM   37  C16 UNL     1      17.379  -6.754   8.409  1.00  0.00     0.249 C 
HETATM   38  C17 UNL     1      18.012  -5.050   6.924  1.00  0.00     0.424 C 
HETATM   39  C14 UNL     1      16.797  -7.645   6.278  1.00  0.00     0.030 C 
HETATM   40  C15 UNL     1      17.677  -7.892   7.465  1.00  0.00     0.030 C 
HETATM   41  O4  UNL     1      18.778  -5.783   6.204  1.00  0.00    -0.239 OA
HETATM   42  N9  UNL     1      18.441  -3.701   6.934  1.00  0.00    -0.262 N 
HETATM   43  C23 UNL     1      18.279  -2.741   7.979  1.00  0.00     0.250 C 
HETATM   44  O5  UNL     1      18.909  -1.667   7.823  1.00  0.00    -0.271 OA
BRANCH  42  45
HETATM   45  C18 UNL     1      19.115  -3.280   5.729  1.00  0.00     0.141 C 
BRANCH  45  46
HETATM   46  C19 UNL     1      18.237  -2.584   4.746  1.00  0.00     0.004 C 
HETATM   47  C20 UNL     1      18.712  -1.131   4.578  1.00  0.00     0.006 C 
HETATM   48  C21 UNL     1      18.319  -1.274   3.105  1.00  0.00     0.001 C 
HETATM   49  C22 UNL     1      18.616  -2.753   3.270  1.00  0.00     0.006 C 
ENDBRANCH  45  46
ENDBRANCH  42  45
ENDBRANCH  29  32
ENDBRANCH   1  26
TORSDOF 11
ENDMDL
MODEL 3
REMARK VINA RESULT: -9.069761365      2.163      4.353
REMARK  11 active torsions:
REMARK  status: ('A' for Active; 'I' for Inactive)
REMARK    1  A    between atoms: C1_2  and  C2_4 
REMARK    2  A    between atoms: C2_4  and  C3_5 
REMARK    3  A    between atoms: C2_4  and  N5_13 
REMARK    4  A    between atoms: C3_5  and  C4_6 
REMARK    5  A    between atoms: C4_6  and  C5_7 
REMARK    6  A    between atoms: C5_7  and  N2_8 
REMARK       I    between atoms: N5_13  and  C7_15 
REMARK    7  A    between atoms: C7_15  and  C8_17 
REMARK    8  A    between atoms: C8_17  and  N6_18 
REMARK       I    between atoms: N6_18  and  C9_20 
REMARK       I    between atoms: C9_20  and  N7_22 
REMARK    9  A    between atoms: N7_22  and  C10_24 
REMARK   10  A    between atoms: N9_34  and  C18_35 
REMARK   11  A    between atoms: C18_35  and  C19_36 
ROOT
HETATM    1  C8  UNL     1      18.235   1.152  13.357  1.00  0.00     0.116 C 
HETATM    2  C24 UNL     1      16.983   0.544  13.933  1.00  0.00     0.046 C 
HETATM    3  C25 UNL     1      17.365   0.035  15.304  1.00  0.00    -0.008 C 
HETATM    4  C26 UNL     1      16.249   0.189  16.323  1.00  0.00     0.005 C 
HETATM    5  C27 UNL     1      16.893   0.058  17.693  1.00  0.00     0.000 C 
HETATM    6  C28 UNL     1      18.289  -0.527  17.616  1.00  0.00     0.000 C 
HETATM    7  C29 UNL     1      19.235   0.306  16.812  1.00  0.00     0.005 C 
HETATM    8  C30 UNL     1      18.439   1.009  15.720  1.00  0.00    -0.008 C 
HETATM    9  C31 UNL     1      19.220   1.242  14.492  1.00  0.00     0.046 C 
ENDROOT
BRANCH   1  10
HETATM   10  C7  UNL     1      17.874   2.508  12.834  1.00  0.00     0.246 C 
HETATM   11  N5  UNL     1      18.613   3.153  11.840  1.00  0.00    -0.346 N 
ATOM     12  H5  UNL     1      19.435   2.686  11.456  1.00  0.00     0.163 HD
HETATM   13  O2  UNL     1      16.850   3.078  13.328  1.00  0.00    -0.271 OA
BRANCH  11  14
HETATM   14  C2  UNL     1      18.239   4.517  11.315  1.00  0.00     0.173 C 
BRANCH  14  15
HETATM   15  C1  UNL     1      18.015   4.385   9.881  1.00  0.00     0.254 C 
HETATM   16  N1  UNL     1      18.328   3.195   9.134  1.00  0.00    -0.060 NA
HETATM   17  O1  UNL     1      17.531   5.341   9.219  1.00  0.00    -0.275 OA
ENDBRANCH  14  15
BRANCH  14  18
HETATM   18  C3  UNL     1      19.380   5.368  11.779  1.00  0.00     0.036 C 
BRANCH  18  19
HETATM   19  C4  UNL     1      19.446   5.917  13.123  1.00  0.00     0.022 C 
BRANCH  19  20
HETATM   20  C5  UNL     1      18.191   6.196  13.864  1.00  0.00     0.122 C 
BRANCH  20  21
HETATM   21  N2  UNL     1      18.021   5.273  14.992  1.00  0.00    -0.367 N 
HETATM   22  C6  UNL     1      17.380   5.652  16.049  1.00  0.00     0.196 C 
HETATM   23  N3  UNL     1      17.257   4.696  17.107  1.00  0.00    -0.067 NA
HETATM   24  N4  UNL     1      16.850   6.956  16.104  1.00  0.00    -0.067 NA
ATOM     25  H2  UNL     1      18.410   4.331  14.942  1.00  0.00     0.161 HD
ENDBRANCH  20  21
ENDBRANCH  19  20
ENDBRANCH  18  19
ENDBRANCH  14  18
ENDBRANCH  11  14
ENDBRANCH   1  10
BRANCH   1  26
HETATM   26  N6  UNL     1      18.794   0.333  12.278  1.00  0.00    -0.325 N 
HETATM   27  C9  UNL     1      17.970  -0.445  11.431  1.00  0.00     0.317 C 
HETATM   28  O3  UNL     1      16.723  -0.422  11.633  1.00  0.00    -0.247 OA
HETATM   29  N7  UNL     1      18.439  -1.247  10.375  1.00  0.00    -0.330 N 
ATOM     30  H7  UNL     1      19.440  -1.287  10.188  1.00  0.00     0.165 HD
ATOM     31  H6  UNL     1      19.804   0.325  12.134  1.00  0.00     0.165 HD
BRANCH  29  32
HETATM   32  C10 UNL     1      17.541  -2.016   9.551  1.00  0.00     0.180 C 
HETATM   33  C11 UNL     1      17.982  -3.461   9.593  1.00  0.00     0.063 C 
HETATM   34  C12 UNL     1      17.177  -4.320   8.663  1.00  0.00     0.252 C 
HETATM   35  N8  UNL     1      17.915  -4.678   7.461  1.00  0.00     0.014 N 
HETATM   36  C13 UNL     1      17.217  -5.690   6.703  1.00  0.00     0.249 C 
HETATM   37  C16 UNL     1      19.191  -5.248   7.766  1.00  0.00     0.249 C 
HETATM   38  C17 UNL     1      18.058  -3.499   6.687  1.00  0.00     0.424 C 
HETATM   39  C14 UNL     1      18.273  -6.302   5.837  1.00  0.00     0.030 C 
HETATM   40  C15 UNL     1      19.576  -5.977   6.504  1.00  0.00     0.030 C 
HETATM   41  O4  UNL     1      18.664  -3.624   5.565  1.00  0.00    -0.239 OA
HETATM   42  N9  UNL     1      17.652  -2.162   6.912  1.00  0.00    -0.262 N 
HETATM   43  C23 UNL     1      17.505  -1.493   8.166  1.00  0.00     0.250 C 
HETATM   44  O5  UNL     1      17.313  -0.255   8.095  1.00  0.00    -0.271 OA
BRANCH  42  45
HETATM   45  C18 UNL     1      17.357  -1.416   5.712  1.00  0.00     0.141 C 
BRANCH  45  46
HETATM   46  C19 UNL     1      18.449  -0.504   5.271  1.00  0.00     0.004 C 
HETATM   47  C20 UNL     1      18.663  -0.659   3.756  1.00  0.00     0.006 C 
HETATM   48  C21 UNL     1      18.950   0.845   3.739  1.00  0.00     0.001 C 
HETATM   49  C22 UNL     1      18.031   0.935   4.945  1.00  0.00     0.006 C 
ENDBRANCH  45  46
ENDBRANCH  42  45
ENDBRANCH  29  32
ENDBRANCH   1  26
TORSDOF 11
ENDMDL
MODEL 4
REMARK VINA RESULT: -9.011021024      1.947      9.295
REMARK  11 active torsions:
REMARK  status: ('A' for Active; 'I' for Inactive)
REMARK    1  A    between atoms: C1_2  and  C2_4 
REMARK    2  A    between atoms: C2_4  and  C3_5 
REMARK    3  A    between atoms: C2_4  and  N5_13 
REMARK    4  A    between atoms: C3_5  and  C4_6 
REMARK    5  A    between atoms: C4_6  and  C5_7 
REMARK    6  A    between atoms: C5_7  and  N2_8 
REMARK       I    between atoms: N5_13  and  C7_15 
REMARK    7  A    between atoms: C7_15  and  C8_17 
REMARK    8  A    between atoms: C8_17  and  N6_18 
REMARK       I    between atoms: N6_18  and  C9_20 
REMARK       I    between atoms: C9_20  and  N7_22 
REMARK    9  A    between atoms: N7_22  and  C10_24 
REMARK   10  A    between atoms: N9_34  and  C18_35 
REMARK   11  A    between atoms: C18_35  and  C19_36 
ROOT
HETATM    1  C8  UNL     1      18.855  -4.512   7.104  1.00  0.00     0.116 C 
HETATM    2  C24 UNL     1      19.770  -5.659   6.764  1.00  0.00     0.046 C 
HETATM    3  C25 UNL     1      18.978  -6.915   7.044  1.00  0.00    -0.008 C 
HETATM    4  C26 UNL     1      19.276  -8.033   6.059  1.00  0.00     0.005 C 
HETATM    5  C27 UNL     1      18.138  -9.031   6.182  1.00  0.00     0.000 C 
HETATM    6  C28 UNL     1      17.313  -8.809   7.433  1.00  0.00     0.000 C 
HETATM    7  C29 UNL     1      16.664  -7.462   7.482  1.00  0.00     0.005 C 
HETATM    8  C30 UNL     1      17.565  -6.476   6.751  1.00  0.00    -0.008 C 
HETATM    9  C31 UNL     1      17.485  -5.107   7.293  1.00  0.00     0.046 C 
ENDROOT
BRANCH   1  10
HETATM   10  C7  UNL     1      18.885  -3.558   5.950  1.00  0.00     0.246 C 
HETATM   11  N5  UNL     1      17.774  -2.800   5.569  1.00  0.00    -0.346 N 
ATOM     12  H5  UNL     1      16.906  -2.902   6.094  1.00  0.00     0.163 HD
HETATM   13  O2  UNL     1      19.974  -3.448   5.302  1.00  0.00    -0.271 OA
BRANCH  11  14
HETATM   14  C2  UNL     1      17.815  -1.839   4.408  1.00  0.00     0.173 C 
BRANCH  14  15
HETATM   15  C1  UNL     1      17.481  -0.518   4.925  1.00  0.00     0.254 C 
HETATM   16  N1  UNL     1      18.276   0.657   4.678  1.00  0.00    -0.060 NA
HETATM   17  O1  UNL     1      16.455  -0.350   5.637  1.00  0.00    -0.275 OA
ENDBRANCH  14  15
BRANCH  14  18
HETATM   18  C3  UNL     1      16.880  -2.473   3.426  1.00  0.00     0.036 C 
BRANCH  18  19
HETATM   19  C4  UNL     1      17.088  -3.815   2.906  1.00  0.00     0.022 C 
BRANCH  19  20
HETATM   20  C5  UNL     1      15.918  -4.690   2.646  1.00  0.00     0.122 C 
BRANCH  20  21
HETATM   21  N2  UNL     1      15.528  -5.430   3.852  1.00  0.00    -0.367 N 
HETATM   22  C6  UNL     1      14.412  -6.082   3.879  1.00  0.00     0.196 C 
HETATM   23  N3  UNL     1      14.101  -6.779   5.090  1.00  0.00    -0.067 NA
HETATM   24  N4  UNL     1      13.579  -6.073   2.743  1.00  0.00    -0.067 NA
ATOM     25  H2  UNL     1      16.138  -5.430   4.669  1.00  0.00     0.161 HD
ENDBRANCH  20  21
ENDBRANCH  19  20
ENDBRANCH  18  19
ENDBRANCH  14  18
ENDBRANCH  11  14
ENDBRANCH   1  10
BRANCH   1  26
HETATM   26  N6  UNL     1      19.271  -3.824   8.329  1.00  0.00    -0.325 N 
HETATM   27  C9  UNL     1      18.454  -2.852   8.952  1.00  0.00     0.317 C 
HETATM   28  O3  UNL     1      17.341  -2.582   8.415  1.00  0.00    -0.247 OA
HETATM   29  N7  UNL     1      18.788  -2.159  10.129  1.00  0.00    -0.330 N 
ATOM     30  H7  UNL     1      19.680  -2.355  10.584  1.00  0.00     0.165 HD
ATOM     31  H6  UNL     1      20.175  -4.053   8.744  1.00  0.00     0.165 HD
BRANCH  29  32
HETATM   32  C10 UNL     1      17.905  -1.180  10.709  1.00  0.00     0.180 C 
HETATM   33  C11 UNL     1      17.915   0.047   9.825  1.00  0.00     0.063 C 
HETATM   34  C12 UNL     1      17.116   1.171  10.416  1.00  0.00     0.252 C 
HETATM   35  N8  UNL     1      17.960   2.215  10.979  1.00  0.00     0.014 N 
HETATM   36  C13 UNL     1      17.184   3.383  11.321  1.00  0.00     0.249 C 
HETATM   37  C16 UNL     1      18.940   2.672  10.042  1.00  0.00     0.249 C 
HETATM   38  C17 UNL     1      18.577   1.680  12.138  1.00  0.00     0.424 C 
HETATM   39  C14 UNL     1      18.188   4.492  11.384  1.00  0.00     0.030 C 
HETATM   40  C15 UNL     1      19.363   4.014  10.585  1.00  0.00     0.030 C 
HETATM   41  O4  UNL     1      19.343   2.472  12.791  1.00  0.00    -0.239 OA
HETATM   42  N9  UNL     1      18.515   0.401  12.741  1.00  0.00    -0.262 N 
HETATM   43  C23 UNL     1      18.301  -0.857  12.099  1.00  0.00     0.250 C 
HETATM   44  O5  UNL     1      18.473  -1.866  12.825  1.00  0.00    -0.271 OA
BRANCH  42  45
HETATM   45  C18 UNL     1      18.690   0.406  14.173  1.00  0.00     0.141 C 
BRANCH  45  46
HETATM   46  C19 UNL     1      17.452   0.717  14.942  1.00  0.00     0.004 C 
HETATM   47  C20 UNL     1      17.055  -0.506  15.786  1.00  0.00     0.006 C 
HETATM   48  C21 UNL     1      16.600   0.496  16.850  1.00  0.00     0.001 C 
HETATM   49  C22 UNL     1      17.656   1.429  16.285  1.00  0.00     0.006 C 
ENDBRANCH  45  46
ENDBRANCH  42  45
ENDBRANCH  29  32
ENDBRANCH   1  26
TORSDOF 11
ENDMDL
MODEL 5
REMARK VINA RESULT: -8.990231343      2.372      4.516
REMARK  11 active torsions:
REMARK  status: ('A' for Active; 'I' for Inactive)
REMARK    1  A    between atoms: C1_2  and  C2_4 
REMARK    2  A    between atoms: C2_4  and  C3_5 
REMARK    3  A    between atoms: C2_4  and  N5_13 
REMARK    4  A    between atoms: C3_5  and  C4_6 
REMARK    5  A    between atoms: C4_6  and  C5_7 
REMARK    6  A    between atoms: C5_7  and  N2_8 
REMARK       I    between atoms: N5_13  and  C7_15 
REMARK    7  A    between atoms: C7_15  and  C8_17 
REMARK    8  A    between atoms: C8_17  and  N6_18 
REMARK       I    between atoms: N6_18  and  C9_20 
REMARK       I    between atoms: C9_20  and  N7_22 
REMARK    9  A    between atoms: N7_22  and  C10_24 
REMARK   10  A    between atoms: N9_34  and  C18_35 
REMARK   11  A    between atoms: C18_35  and  C19_36 
ROOT
HETATM    1  C8  UNL     1      18.147   1.085  13.059  1.00  0.00     0.116 C 
HETATM    2  C24 UNL     1      16.927   0.437  13.659  1.00  0.00     0.046 C 
HETATM    3  C25 UNL     1      17.294   0.109  15.088  1.00  0.00    -0.008 C 
HETATM    4  C26 UNL     1      16.130   0.276  16.049  1.00  0.00     0.005 C 
HETATM    5  C27 UNL     1      16.728   0.344  17.444  1.00  0.00     0.000 C 
HETATM    6  C28 UNL     1      18.169  -0.126  17.474  1.00  0.00     0.000 C 
HETATM    7  C29 UNL     1      19.075   0.696  16.613  1.00  0.00     0.005 C 
HETATM    8  C30 UNL     1      18.269   1.209  15.428  1.00  0.00    -0.008 C 
HETATM    9  C31 UNL     1      19.077   1.377  14.207  1.00  0.00     0.046 C 
ENDROOT
BRANCH   1  10
HETATM   10  C7  UNL     1      17.699   2.342  12.380  1.00  0.00     0.246 C 
HETATM   11  N5  UNL     1      18.140   3.608  12.772  1.00  0.00    -0.346 N 
ATOM     12  H5  UNL     1      18.791   3.683  13.553  1.00  0.00     0.163 HD
HETATM   13  O2  UNL     1      16.881   2.231  11.412  1.00  0.00    -0.271 OA
BRANCH  11  14
HETATM   14  C2  UNL     1      17.686   4.869  12.080  1.00  0.00     0.173 C 
BRANCH  14  15
HETATM   15  C1  UNL     1      18.463   4.996  10.853  1.00  0.00     0.254 C 
HETATM   16  N1  UNL     1      17.872   5.215   9.558  1.00  0.00    -0.060 NA
HETATM   17  O1  UNL     1      19.719   4.908  10.879  1.00  0.00    -0.275 OA
ENDBRANCH  14  15
BRANCH  14  18
HETATM   18  C3  UNL     1      17.867   5.908  13.144  1.00  0.00     0.036 C 
BRANCH  18  19
HETATM   19  C4  UNL     1      16.789   6.788  13.564  1.00  0.00     0.022 C 
BRANCH  19  20
HETATM   20  C5  UNL     1      16.288   6.719  14.959  1.00  0.00     0.122 C 
BRANCH  20  21
HETATM   21  N2  UNL     1      16.657   5.449  15.596  1.00  0.00    -0.367 N 
HETATM   22  C6  UNL     1      17.060   5.434  16.825  1.00  0.00     0.196 C 
HETATM   23  N3  UNL     1      17.403   4.157  17.375  1.00  0.00    -0.067 NA
HETATM   24  N4  UNL     1      17.140   6.644  17.540  1.00  0.00    -0.067 NA
ATOM     25  H2  UNL     1      16.596   4.578  15.068  1.00  0.00     0.161 HD
ENDBRANCH  20  21
ENDBRANCH  19  20
ENDBRANCH  18  19
ENDBRANCH  14  18
ENDBRANCH  11  14
ENDBRANCH   1  10
BRANCH   1  26
HETATM   26  N6  UNL     1      18.813   0.207  12.092  1.00  0.00    -0.325 N 
HETATM   27  C9  UNL     1      18.091  -0.730  11.316  1.00  0.00     0.317 C 
HETATM   28  O3  UNL     1      16.839  -0.797  11.483  1.00  0.00    -0.247 OA
HETATM   29  N7  UNL     1      18.664  -1.596  10.369  1.00  0.00    -0.330 N 
ATOM     30  H7  UNL     1      19.671  -1.566  10.213  1.00  0.00     0.165 HD
ATOM     31  H6  UNL     1      19.824   0.274  11.976  1.00  0.00     0.165 HD
BRANCH  29  32
HETATM   32  C10 UNL     1      17.866  -2.527   9.612  1.00  0.00     0.180 C 
HETATM   33  C11 UNL     1      18.477  -3.902   9.761  1.00  0.00     0.063 C 
HETATM   34  C12 UNL     1      17.782  -4.920   8.905  1.00  0.00     0.252 C 
HETATM   35  N8  UNL     1      18.559  -5.277   7.728  1.00  0.00     0.014 N 
HETATM   36  C13 UNL     1      17.988  -6.420   7.055  1.00  0.00     0.249 C 
HETATM   37  C16 UNL     1      19.894  -5.665   8.065  1.00  0.00     0.249 C 
HETATM   38  C17 UNL     1      18.561  -4.152   6.865  1.00  0.00     0.424 C 
HETATM   39  C14 UNL     1      19.112  -6.966   6.229  1.00  0.00     0.030 C 
HETATM   40  C15 UNL     1      20.365  -6.437   6.859  1.00  0.00     0.030 C 
HETATM   41  O4  UNL     1      19.178  -4.289   5.751  1.00  0.00    -0.239 OA
HETATM   42  N9  UNL     1      17.997  -2.860   6.991  1.00  0.00    -0.262 N 
HETATM   43  C23 UNL     1      17.769  -2.120   8.192  1.00  0.00     0.250 C 
HETATM   44  O5  UNL     1      17.430  -0.923   8.029  1.00  0.00    -0.271 OA
BRANCH  42  45
HETATM   45  C18 UNL     1      17.616  -2.249   5.741  1.00  0.00     0.141 C 
BRANCH  45  46
HETATM   46  C19 UNL     1      18.588  -1.245   5.226  1.00  0.00     0.004 C 
HETATM   47  C20 UNL     1      18.723  -1.399   3.702  1.00  0.00     0.006 C 
HETATM   48  C21 UNL     1      18.866   0.124   3.656  1.00  0.00     0.001 C 
HETATM   49  C22 UNL     1      18.018   0.144   4.915  1.00  0.00     0.006 C 
ENDBRANCH  45  46
ENDBRANCH  42  45
ENDBRANCH  29  32
ENDBRANCH   1  26
TORSDOF 11
ENDMDL
