MODEL 1
REMARK VINA RESULT: -5.972904292      0.000      0.000
REMARK  17 active torsions:
REMARK  status: ('A' for Active; 'I' for Inactive)
REMARK    1  A    between atoms: C2_2  and  C3_3 
REMARK    2  A    between atoms: C3_3  and  C4_4 
REMARK    3  A    between atoms: C5_7  and  O1_8 
REMARK    4  A    between atoms: C7_11  and  C8_12 
REMARK       I    between atoms: C8_12  and  N2_14 
REMARK    5  A    between atoms: N2_14  and  C9_16 
REMARK    6  A    between atoms: C9_16  and  C10_17 
REMARK    7  A    between atoms: C10_17  and  C11_18 
REMARK    8  A    between atoms: C11_18  and  C12_19 
REMARK    9  A    between atoms: C12_19  and  C13_20 
REMARK   10  A    between atoms: C13_20  and  C14_21 
REMARK   11  A    between atoms: C14_21  and  N3_22 
REMARK   12  A    between atoms: N3_22  and  C15_24 
REMARK   13  A    between atoms: C17_30  and  N5_31 
REMARK   14  A    between atoms: N5_31  and  C18_33 
REMARK   15  A    between atoms: C20_37  and  C21_38 
REMARK   16  A    between atoms: C23_44  and  C24_45 
REMARK   17  A    between atoms: C24_45  and  C25_46 
ROOT
HETATM    1  C4  UNL     1      -1.442   5.233  48.553  1.00  0.00     0.096 C 
HETATM    2  N1  UNL     1      -0.687   4.439  47.637  1.00  0.00    -0.369 N 
ATOM      3  H1  UNL     1      -0.458   3.503  47.973  1.00  0.00     0.161 HD
HETATM    4  C5  UNL     1      -0.209   4.734  46.355  1.00  0.00     0.113 C 
HETATM    5  C6  UNL     1       0.212   6.017  45.775  1.00  0.00     0.118 C 
HETATM    6  C7  UNL     1      -0.824   6.808  45.052  1.00  0.00     0.184 C 
HETATM    7  N4  UNL     1      -1.204   6.274  43.769  1.00  0.00    -0.345 N 
ATOM      8  H4  UNL     1      -0.444   5.847  43.239  1.00  0.00     0.163 HD
HETATM    9  C16 UNL     1      -2.450   6.251  43.135  1.00  0.00     0.248 C 
HETATM   10  O4  UNL     1      -2.581   6.885  42.019  1.00  0.00    -0.271 OA
HETATM   11  C17 UNL     1      -3.697   5.564  43.588  1.00  0.00     0.249 C 
HETATM   12  C19 UNL     1      -4.333   6.237  44.727  1.00  0.00     0.187 C 
HETATM   13  O6  UNL     1      -4.884   7.365  44.522  1.00  0.00    -0.292 OA
HETATM   14  C20 UNL     1      -4.458   5.829  46.135  1.00  0.00     0.218 C 
HETATM   15  N6  UNL     1      -4.201   4.449  46.435  1.00  0.00    -0.343 N 
ATOM     16  H6  UNL     1      -4.717   3.747  45.905  1.00  0.00     0.163 HD
HETATM   17  C22 UNL     1      -3.277   3.985  47.418  1.00  0.00     0.224 C 
HETATM   18  O8  UNL     1      -2.768   2.861  47.213  1.00  0.00    -0.273 OA
HETATM   19  C23 UNL     1      -2.894   4.732  48.634  1.00  0.00     0.101 C 
ENDROOT
BRANCH   6  20
HETATM   20  C8  UNL     1      -0.180   8.160  44.762  1.00  0.00     0.240 C 
HETATM   21  O2  UNL     1       0.295   8.841  45.691  1.00  0.00    -0.271 OA
HETATM   22  N2  UNL     1      -0.122   8.647  43.443  1.00  0.00    -0.359 N 
ATOM     23  H2  UNL     1      -0.513   8.080  42.691  1.00  0.00     0.162 HD
BRANCH  22  24
HETATM   24  C9  UNL     1       0.469   9.921  43.116  1.00  0.00     0.122 C 
BRANCH  24  25
HETATM   25  C10 UNL     1       0.882  10.025  41.675  1.00  0.00     0.020 C 
BRANCH  25  26
HETATM   26  C11 UNL     1       2.386   9.791  41.563  1.00  0.00     0.002 C 
BRANCH  26  27
HETATM   27  C12 UNL     1       3.145  10.179  42.790  1.00  0.00     0.002 C 
BRANCH  27  28
HETATM   28  C13 UNL     1       4.366   9.297  42.946  1.00  0.00     0.020 C 
BRANCH  28  29
HETATM   29  C14 UNL     1       4.038   7.890  43.379  1.00  0.00     0.122 C 
BRANCH  29  30
HETATM   30  N3  UNL     1       3.144   7.906  44.526  1.00  0.00    -0.368 N 
ATOM     31  H3  UNL     1       2.161   7.653  44.428  1.00  0.00     0.161 HD
BRANCH  30  32
HETATM   32  C15 UNL     1       3.674   8.282  45.776  1.00  0.00     0.348 C 
HETATM   33  O3  UNL     1       3.463   9.398  46.320  1.00  0.00    -0.284 OA
ENDBRANCH  30  32
ENDBRANCH  29  30
ENDBRANCH  28  29
ENDBRANCH  27  28
ENDBRANCH  26  27
ENDBRANCH  25  26
ENDBRANCH  24  25
ENDBRANCH  22  24
ENDBRANCH   6  20
BRANCH   4  34
HETATM   34  O1  UNL     1      -0.096   3.763  45.496  1.00  0.00    -0.349 OA
ATOM     35  H1  UNL     1       0.715   3.682  45.008  1.00  0.00     0.219 HD
ENDBRANCH   4  34
BRANCH  11  36
HETATM   36  N5  UNL     1      -3.546   4.149  43.673  1.00  0.00    -0.349 N 
ATOM     37  H5  UNL     1      -4.059   3.669  44.413  1.00  0.00     0.163 HD
BRANCH  36  38
HETATM   38  C18 UNL     1      -2.751   3.359  42.826  1.00  0.00     0.349 C 
HETATM   39  O5  UNL     1      -1.573   3.091  43.166  1.00  0.00    -0.284 OA
ENDBRANCH  36  38
ENDBRANCH  11  36
BRANCH   1  40
HETATM   40  C3  UNL     1      -0.873   5.259  49.950  1.00  0.00     0.026 C 
BRANCH  40  41
HETATM   41  C2  UNL     1      -0.532   6.634  50.465  1.00  0.00    -0.002 C 
HETATM   42  C1  UNL     1      -1.453   7.162  51.518  1.00  0.00     0.005 C 
ENDBRANCH  40  41
ENDBRANCH   1  40
BRANCH  19  43
HETATM   43  C24 UNL     1      -3.090   4.003  49.911  1.00  0.00     0.020 C 
BRANCH  43  44
HETATM   44  C25 UNL     1      -4.246   4.361  50.766  1.00  0.00    -0.022 C 
HETATM   45  C26 UNL     1      -4.090   4.350  52.234  1.00  0.00     0.009 C 
HETATM   46  C27 UNL     1      -4.692   5.777  50.363  1.00  0.00     0.009 C 
ENDBRANCH  43  44
ENDBRANCH  19  43
BRANCH  14  47
HETATM   47  C21 UNL     1      -5.909   6.067  46.524  1.00  0.00     0.264 C 
HETATM   48  O7  UNL     1      -6.169   6.827  47.422  1.00  0.00    -0.304 OA
ENDBRANCH  14  47
TORSDOF 17
ENDMDL
MODEL 2
REMARK VINA RESULT: -5.747829499      2.032      2.499
REMARK  17 active torsions:
REMARK  status: ('A' for Active; 'I' for Inactive)
REMARK    1  A    between atoms: C2_2  and  C3_3 
REMARK    2  A    between atoms: C3_3  and  C4_4 
REMARK    3  A    between atoms: C5_7  and  O1_8 
REMARK    4  A    between atoms: C7_11  and  C8_12 
REMARK       I    between atoms: C8_12  and  N2_14 
REMARK    5  A    between atoms: N2_14  and  C9_16 
REMARK    6  A    between atoms: C9_16  and  C10_17 
REMARK    7  A    between atoms: C10_17  and  C11_18 
REMARK    8  A    between atoms: C11_18  and  C12_19 
REMARK    9  A    between atoms: C12_19  and  C13_20 
REMARK   10  A    between atoms: C13_20  and  C14_21 
REMARK   11  A    between atoms: C14_21  and  N3_22 
REMARK   12  A    between atoms: N3_22  and  C15_24 
REMARK   13  A    between atoms: C17_30  and  N5_31 
REMARK   14  A    between atoms: N5_31  and  C18_33 
REMARK   15  A    between atoms: C20_37  and  C21_38 
REMARK   16  A    between atoms: C23_44  and  C24_45 
REMARK   17  A    between atoms: C24_45  and  C25_46 
ROOT
HETATM    1  C4  UNL     1      -1.409   5.151  48.581  1.00  0.00     0.096 C 
HETATM    2  N1  UNL     1      -0.653   4.386  47.643  1.00  0.00    -0.369 N 
ATOM      3  H1  UNL     1      -0.419   3.443  47.952  1.00  0.00     0.161 HD
HETATM    4  C5  UNL     1      -0.179   4.718  46.368  1.00  0.00     0.113 C 
HETATM    5  C6  UNL     1       0.233   6.019  45.821  1.00  0.00     0.118 C 
HETATM    6  C7  UNL     1      -0.808   6.823  45.123  1.00  0.00     0.184 C 
HETATM    7  N4  UNL     1      -1.189   6.323  43.826  1.00  0.00    -0.345 N 
ATOM      8  H4  UNL     1      -0.428   5.913  43.284  1.00  0.00     0.163 HD
HETATM    9  C16 UNL     1      -2.437   6.310  43.195  1.00  0.00     0.248 C 
HETATM   10  O4  UNL     1      -2.573   6.974  42.097  1.00  0.00    -0.271 OA
HETATM   11  C17 UNL     1      -3.679   5.606  43.632  1.00  0.00     0.249 C 
HETATM   12  C19 UNL     1      -4.315   6.243  44.791  1.00  0.00     0.187 C 
HETATM   13  O6  UNL     1      -4.872   7.374  44.618  1.00  0.00    -0.292 OA
HETATM   14  C20 UNL     1      -4.435   5.798  46.187  1.00  0.00     0.218 C 
HETATM   15  N6  UNL     1      -4.170   4.411  46.449  1.00  0.00    -0.343 N 
ATOM     16  H6  UNL     1      -4.684   3.721  45.901  1.00  0.00     0.163 HD
HETATM   17  C22 UNL     1      -3.242   3.925  47.417  1.00  0.00     0.224 C 
HETATM   18  O8  UNL     1      -2.727   2.809  47.181  1.00  0.00    -0.273 OA
HETATM   19  C23 UNL     1      -2.859   4.641  48.652  1.00  0.00     0.101 C 
ENDROOT
BRANCH   6  20
HETATM   20  C8  UNL     1      -0.172   8.186  44.868  1.00  0.00     0.240 C 
HETATM   21  O2  UNL     1      -0.808   9.231  45.108  1.00  0.00    -0.271 OA
HETATM   22  N2  UNL     1       1.137   8.272  44.357  1.00  0.00    -0.359 N 
ATOM     23  H2  UNL     1       1.648   7.410  44.167  1.00  0.00     0.162 HD
BRANCH  22  24
HETATM   24  C9  UNL     1       1.781   9.534  44.094  1.00  0.00     0.122 C 
BRANCH  24  25
HETATM   25  C10 UNL     1       3.281   9.453  44.156  1.00  0.00     0.020 C 
BRANCH  25  26
HETATM   26  C11 UNL     1       3.853   9.605  42.750  1.00  0.00     0.002 C 
BRANCH  26  27
HETATM   27  C12 UNL     1       4.436  10.955  42.483  1.00  0.00     0.002 C 
BRANCH  27  28
HETATM   28  C13 UNL     1       3.736  11.598  41.304  1.00  0.00     0.020 C 
BRANCH  28  29
HETATM   29  C14 UNL     1       2.691  12.608  41.706  1.00  0.00     0.122 C 
BRANCH  29  30
HETATM   30  N3  UNL     1       2.936  13.882  41.051  1.00  0.00    -0.368 N 
ATOM     31  H3  UNL     1       2.575  14.752  41.444  1.00  0.00     0.161 HD
BRANCH  30  32
HETATM   32  C15 UNL     1       3.686  13.883  39.857  1.00  0.00     0.348 C 
HETATM   33  O3  UNL     1       3.231  14.257  38.744  1.00  0.00    -0.284 OA
ENDBRANCH  30  32
ENDBRANCH  29  30
ENDBRANCH  28  29
ENDBRANCH  27  28
ENDBRANCH  26  27
ENDBRANCH  25  26
ENDBRANCH  24  25
ENDBRANCH  22  24
ENDBRANCH   6  20
BRANCH   4  34
HETATM   34  O1  UNL     1      -0.064   3.771  45.482  1.00  0.00    -0.349 OA
ATOM     35  H1  UNL     1      -0.025   4.012  44.564  1.00  0.00     0.219 HD
ENDBRANCH   4  34
BRANCH  11  36
HETATM   36  N5  UNL     1      -3.520   4.189  43.679  1.00  0.00    -0.349 N 
ATOM     37  H5  UNL     1      -4.054   3.683  44.386  1.00  0.00     0.163 HD
BRANCH  36  38
HETATM   38  C18 UNL     1      -2.692   3.431  42.834  1.00  0.00     0.349 C 
HETATM   39  O5  UNL     1      -1.544   3.112  43.228  1.00  0.00    -0.284 OA
ENDBRANCH  36  38
ENDBRANCH  11  36
BRANCH   1  40
HETATM   40  C3  UNL     1      -0.837   5.143  49.977  1.00  0.00     0.026 C 
BRANCH  40  41
HETATM   41  C2  UNL     1      -0.439   6.498  50.502  1.00  0.00    -0.002 C 
HETATM   42  C1  UNL     1      -1.394   7.103  51.481  1.00  0.00     0.005 C 
ENDBRANCH  40  41
ENDBRANCH   1  40
BRANCH  19  43
HETATM   43  C24 UNL     1      -3.048   3.876  49.909  1.00  0.00     0.020 C 
BRANCH  43  44
HETATM   44  C25 UNL     1      -4.165   4.249  50.809  1.00  0.00    -0.022 C 
HETATM   45  C26 UNL     1      -3.938   4.282  52.267  1.00  0.00     0.009 C 
HETATM   46  C27 UNL     1      -4.644   5.649  50.388  1.00  0.00     0.009 C 
ENDBRANCH  43  44
ENDBRANCH  19  43
BRANCH  14  47
HETATM   47  C21 UNL     1      -5.885   6.017  46.586  1.00  0.00     0.264 C 
HETATM   48  O7  UNL     1      -6.148   6.757  47.500  1.00  0.00    -0.304 OA
ENDBRANCH  14  47
TORSDOF 17
ENDMDL
MODEL 3
REMARK VINA RESULT: -5.703453458     13.817     20.347
REMARK  17 active torsions:
REMARK  status: ('A' for Active; 'I' for Inactive)
REMARK    1  A    between atoms: C2_2  and  C3_3 
REMARK    2  A    between atoms: C3_3  and  C4_4 
REMARK    3  A    between atoms: C5_7  and  O1_8 
REMARK    4  A    between atoms: C7_11  and  C8_12 
REMARK       I    between atoms: C8_12  and  N2_14 
REMARK    5  A    between atoms: N2_14  and  C9_16 
REMARK    6  A    between atoms: C9_16  and  C10_17 
REMARK    7  A    between atoms: C10_17  and  C11_18 
REMARK    8  A    between atoms: C11_18  and  C12_19 
REMARK    9  A    between atoms: C12_19  and  C13_20 
REMARK   10  A    between atoms: C13_20  and  C14_21 
REMARK   11  A    between atoms: C14_21  and  N3_22 
REMARK   12  A    between atoms: N3_22  and  C15_24 
REMARK   13  A    between atoms: C17_30  and  N5_31 
REMARK   14  A    between atoms: N5_31  and  C18_33 
REMARK   15  A    between atoms: C20_37  and  C21_38 
REMARK   16  A    between atoms: C23_44  and  C24_45 
REMARK   17  A    between atoms: C24_45  and  C25_46 
ROOT
HETATM    1  C4  UNL     1       9.811  16.308  30.083  1.00  0.00     0.096 C 
HETATM    2  N1  UNL     1       9.169  15.071  29.769  1.00  0.00    -0.369 N 
ATOM      3  H1  UNL     1       9.279  14.767  28.803  1.00  0.00     0.161 HD
HETATM    4  C5  UNL     1       8.413  14.209  30.572  1.00  0.00     0.113 C 
HETATM    5  C6  UNL     1       7.549  14.503  31.724  1.00  0.00     0.118 C 
HETATM    6  C7  UNL     1       8.174  14.441  33.075  1.00  0.00     0.184 C 
HETATM    7  N4  UNL     1       8.464  13.111  33.546  1.00  0.00    -0.345 N 
ATOM      8  H4  UNL     1       7.779  12.402  33.281  1.00  0.00     0.163 HD
HETATM    9  C16 UNL     1       9.536  12.637  34.309  1.00  0.00     0.248 C 
HETATM   10  O4  UNL     1       9.285  12.134  35.470  1.00  0.00    -0.271 OA
HETATM   11  C17 UNL     1      10.986  12.632  33.950  1.00  0.00     0.249 C 
HETATM   12  C19 UNL     1      11.589  13.969  34.003  1.00  0.00     0.187 C 
HETATM   13  O6  UNL     1      11.749  14.505  35.145  1.00  0.00    -0.292 OA
HETATM   14  C20 UNL     1      12.066  14.851  32.928  1.00  0.00     0.218 C 
HETATM   15  N6  UNL     1      12.271  14.249  31.640  1.00  0.00    -0.343 N 
ATOM     16  H6  UNL     1      12.867  13.424  31.595  1.00  0.00     0.163 HD
HETATM   17  C22 UNL     1      11.703  14.720  30.419  1.00  0.00     0.224 C 
HETATM   18  O8  UNL     1      11.510  13.860  29.530  1.00  0.00    -0.273 OA
HETATM   19  C23 UNL     1      11.337  16.125  30.145  1.00  0.00     0.101 C 
ENDROOT
BRANCH   6  20
HETATM   20  C8  UNL     1       7.130  15.000  34.037  1.00  0.00     0.240 C 
HETATM   21  O2  UNL     1       7.375  15.074  35.256  1.00  0.00    -0.271 OA
HETATM   22  N2  UNL     1       5.881  15.433  33.552  1.00  0.00    -0.359 N 
ATOM     23  H2  UNL     1       5.693  15.369  32.552  1.00  0.00     0.162 HD
BRANCH  22  24
HETATM   24  C9  UNL     1       4.859  15.963  34.419  1.00  0.00     0.122 C 
BRANCH  24  25
HETATM   25  C10 UNL     1       3.467  15.692  33.921  1.00  0.00     0.020 C 
BRANCH  25  26
HETATM   26  C11 UNL     1       2.690  14.924  34.987  1.00  0.00     0.002 C 
BRANCH  26  27
HETATM   27  C12 UNL     1       2.739  13.441  34.810  1.00  0.00     0.002 C 
BRANCH  27  28
HETATM   28  C13 UNL     1       3.051  12.771  36.131  1.00  0.00     0.020 C 
BRANCH  28  29
HETATM   29  C14 UNL     1       4.103  13.492  36.935  1.00  0.00     0.122 C 
BRANCH  29  30
HETATM   30  N3  UNL     1       5.433  13.052  36.544  1.00  0.00    -0.368 N 
ATOM     31  H3  UNL     1       5.770  13.186  35.591  1.00  0.00     0.161 HD
BRANCH  30  32
HETATM   32  C15 UNL     1       6.242  12.434  37.518  1.00  0.00     0.348 C 
HETATM   33  O3  UNL     1       5.839  11.519  38.285  1.00  0.00    -0.284 OA
ENDBRANCH  30  32
ENDBRANCH  29  30
ENDBRANCH  28  29
ENDBRANCH  27  28
ENDBRANCH  26  27
ENDBRANCH  25  26
ENDBRANCH  24  25
ENDBRANCH  22  24
ENDBRANCH   6  20
BRANCH   4  34
HETATM   34  O1  UNL     1       8.437  12.935  30.307  1.00  0.00    -0.349 OA
ATOM     35  H1  UNL     1       9.157  12.415  30.646  1.00  0.00     0.219 HD
ENDBRANCH   4  34
BRANCH  11  36
HETATM   36  N5  UNL     1      11.264  11.842  32.795  1.00  0.00    -0.349 N 
ATOM     37  H5  UNL     1      11.016  12.238  31.888  1.00  0.00     0.163 HD
BRANCH  36  38
HETATM   38  C18 UNL     1      11.848  10.564  32.800  1.00  0.00     0.349 C 
HETATM   39  O5  UNL     1      11.155   9.575  33.140  1.00  0.00    -0.284 OA
ENDBRANCH  36  38
ENDBRANCH  11  36
BRANCH   1  40
HETATM   40  C3  UNL     1       9.507  17.417  29.106  1.00  0.00     0.026 C 
BRANCH  40  41
HETATM   41  C2  UNL     1       8.108  17.968  29.194  1.00  0.00    -0.002 C 
HETATM   42  C1  UNL     1       7.645  18.301  30.576  1.00  0.00     0.005 C 
ENDBRANCH  40  41
ENDBRANCH   1  40
BRANCH  19  43
HETATM   43  C24 UNL     1      11.950  16.711  28.929  1.00  0.00     0.020 C 
BRANCH  43  44
HETATM   44  C25 UNL     1      13.140  17.582  29.079  1.00  0.00    -0.022 C 
HETATM   45  C26 UNL     1      13.390  18.643  28.084  1.00  0.00     0.009 C 
HETATM   46  C27 UNL     1      13.040  18.259  30.457  1.00  0.00     0.009 C 
ENDBRANCH  43  44
ENDBRANCH  19  43
BRANCH  14  47
HETATM   47  C21 UNL     1      13.432  15.359  33.361  1.00  0.00     0.264 C 
HETATM   48  O7  UNL     1      13.628  16.544  33.451  1.00  0.00    -0.304 OA
ENDBRANCH  14  47
TORSDOF 17
ENDMDL
MODEL 4
REMARK VINA RESULT: -5.658373214      1.203      1.958
REMARK  17 active torsions:
REMARK  status: ('A' for Active; 'I' for Inactive)
REMARK    1  A    between atoms: C2_2  and  C3_3 
REMARK    2  A    between atoms: C3_3  and  C4_4 
REMARK    3  A    between atoms: C5_7  and  O1_8 
REMARK    4  A    between atoms: C7_11  and  C8_12 
REMARK       I    between atoms: C8_12  and  N2_14 
REMARK    5  A    between atoms: N2_14  and  C9_16 
REMARK    6  A    between atoms: C9_16  and  C10_17 
REMARK    7  A    between atoms: C10_17  and  C11_18 
REMARK    8  A    between atoms: C11_18  and  C12_19 
REMARK    9  A    between atoms: C12_19  and  C13_20 
REMARK   10  A    between atoms: C13_20  and  C14_21 
REMARK   11  A    between atoms: C14_21  and  N3_22 
REMARK   12  A    between atoms: N3_22  and  C15_24 
REMARK   13  A    between atoms: C17_30  and  N5_31 
REMARK   14  A    between atoms: N5_31  and  C18_33 
REMARK   15  A    between atoms: C20_37  and  C21_38 
REMARK   16  A    between atoms: C23_44  and  C24_45 
REMARK   17  A    between atoms: C24_45  and  C25_46 
ROOT
HETATM    1  C4  UNL     1      -1.817   4.598  48.322  1.00  0.00     0.096 C 
HETATM    2  N1  UNL     1      -1.117   3.856  47.322  1.00  0.00    -0.369 N 
ATOM      3  H1  UNL     1      -1.016   2.862  47.522  1.00  0.00     0.161 HD
HETATM    4  C5  UNL     1      -0.547   4.271  46.113  1.00  0.00     0.113 C 
HETATM    5  C6  UNL     1       0.048   5.564  45.742  1.00  0.00     0.118 C 
HETATM    6  C7  UNL     1      -0.852   6.571  45.114  1.00  0.00     0.184 C 
HETATM    7  N4  UNL     1      -1.230   6.278  43.755  1.00  0.00    -0.345 N 
ATOM      8  H4  UNL     1      -0.501   5.840  43.191  1.00  0.00     0.163 HD
HETATM    9  C16 UNL     1      -2.439   6.499  43.087  1.00  0.00     0.248 C 
HETATM   10  O4  UNL     1      -2.440   7.298  42.074  1.00  0.00    -0.271 OA
HETATM   11  C17 UNL     1      -3.778   5.913  43.396  1.00  0.00     0.249 C 
HETATM   12  C19 UNL     1      -4.384   6.488  44.602  1.00  0.00     0.187 C 
HETATM   13  O6  UNL     1      -4.788   7.693  44.550  1.00  0.00    -0.292 OA
HETATM   14  C20 UNL     1      -4.624   5.901  45.929  1.00  0.00     0.218 C 
HETATM   15  N6  UNL     1      -4.544   4.471  46.029  1.00  0.00    -0.343 N 
ATOM     16  H6  UNL     1      -5.113   3.922  45.385  1.00  0.00     0.163 HD
HETATM   17  C22 UNL     1      -3.730   3.761  46.960  1.00  0.00     0.224 C 
HETATM   18  O8  UNL     1      -3.346   2.623  46.606  1.00  0.00    -0.273 OA
HETATM   19  C23 UNL     1      -3.320   4.273  48.285  1.00  0.00     0.101 C 
ENDROOT
BRANCH   6  20
HETATM   20  C8  UNL     1      -0.041   7.861  45.047  1.00  0.00     0.240 C 
HETATM   21  O2  UNL     1      -0.615   8.966  45.097  1.00  0.00    -0.271 OA
HETATM   22  N2  UNL     1       1.360   7.811  44.926  1.00  0.00    -0.359 N 
ATOM     23  H2  UNL     1       1.818   6.900  44.887  1.00  0.00     0.162 HD
BRANCH  22  24
HETATM   24  C9  UNL     1       2.171   9.000  44.853  1.00  0.00     0.122 C 
BRANCH  24  25
HETATM   25  C10 UNL     1       3.645   8.711  44.909  1.00  0.00     0.020 C 
BRANCH  25  26
HETATM   26  C11 UNL     1       4.194   8.609  43.489  1.00  0.00     0.002 C 
BRANCH  26  27
HETATM   27  C12 UNL     1       4.849   9.864  43.008  1.00  0.00     0.002 C 
BRANCH  27  28
HETATM   28  C13 UNL     1       4.057  10.457  41.863  1.00  0.00     0.020 C 
BRANCH  28  29
HETATM   29  C14 UNL     1       3.302  11.707  42.240  1.00  0.00     0.122 C 
BRANCH  29  30
HETATM   30  N3  UNL     1       1.868  11.466  42.205  1.00  0.00    -0.368 N 
ATOM     31  H3  UNL     1       1.223  12.069  42.715  1.00  0.00     0.161 HD
BRANCH  30  32
HETATM   32  C15 UNL     1       1.396  10.376  41.446  1.00  0.00     0.348 C 
HETATM   33  O3  UNL     1       0.427   9.649  41.792  1.00  0.00    -0.284 OA
ENDBRANCH  30  32
ENDBRANCH  29  30
ENDBRANCH  28  29
ENDBRANCH  27  28
ENDBRANCH  26  27
ENDBRANCH  25  26
ENDBRANCH  24  25
ENDBRANCH  22  24
ENDBRANCH   6  20
BRANCH   4  34
HETATM   34  O1  UNL     1      -0.508   3.428  45.124  1.00  0.00    -0.349 OA
ATOM     35  H1  UNL     1       0.185   2.778  45.109  1.00  0.00     0.219 HD
ENDBRANCH   4  34
BRANCH  11  36
HETATM   36  N5  UNL     1      -3.797   4.492  43.274  1.00  0.00    -0.349 N 
ATOM     37  H5  UNL     1      -4.398   3.978  43.919  1.00  0.00     0.163 HD
BRANCH  36  38
HETATM   38  C18 UNL     1      -3.061   3.741  42.343  1.00  0.00     0.349 C 
HETATM   39  O5  UNL     1      -1.949   3.268  42.681  1.00  0.00    -0.284 OA
ENDBRANCH  36  38
ENDBRANCH  11  36
BRANCH   1  40
HETATM   40  C3  UNL     1      -1.316   4.353  49.725  1.00  0.00     0.026 C 
BRANCH  40  41
HETATM   41  C2  UNL     1      -0.727   5.563  50.402  1.00  0.00    -0.002 C 
HETATM   42  C1  UNL     1      -1.726   6.556  50.905  1.00  0.00     0.005 C 
ENDBRANCH  40  41
ENDBRANCH   1  40
BRANCH  19  43
HETATM   43  C24 UNL     1      -3.661   3.398  49.432  1.00  0.00     0.020 C 
BRANCH  43  44
HETATM   44  C25 UNL     1      -4.948   3.612  50.135  1.00  0.00    -0.022 C 
HETATM   45  C26 UNL     1      -5.147   3.026  51.474  1.00  0.00     0.009 C 
HETATM   46  C27 UNL     1      -5.151   5.131  50.264  1.00  0.00     0.009 C 
ENDBRANCH  43  44
ENDBRANCH  19  43
BRANCH  14  47
HETATM   47  C21 UNL     1      -6.053   6.257  46.306  1.00  0.00     0.264 C 
HETATM   48  O7  UNL     1      -6.273   6.827  47.344  1.00  0.00    -0.304 OA
ENDBRANCH  14  47
TORSDOF 17
ENDMDL
MODEL 5
REMARK VINA RESULT: -5.647971733     13.221     19.755
REMARK  17 active torsions:
REMARK  status: ('A' for Active; 'I' for Inactive)
REMARK    1  A    between atoms: C2_2  and  C3_3 
REMARK    2  A    between atoms: C3_3  and  C4_4 
REMARK    3  A    between atoms: C5_7  and  O1_8 
REMARK    4  A    between atoms: C7_11  and  C8_12 
REMARK       I    between atoms: C8_12  and  N2_14 
REMARK    5  A    between atoms: N2_14  and  C9_16 
REMARK    6  A    between atoms: C9_16  and  C10_17 
REMARK    7  A    between atoms: C10_17  and  C11_18 
REMARK    8  A    between atoms: C11_18  and  C12_19 
REMARK    9  A    between atoms: C12_19  and  C13_20 
REMARK   10  A    between atoms: C13_20  and  C14_21 
REMARK   11  A    between atoms: C14_21  and  N3_22 
REMARK   12  A    between atoms: N3_22  and  C15_24 
REMARK   13  A    between atoms: C17_30  and  N5_31 
REMARK   14  A    between atoms: N5_31  and  C18_33 
REMARK   15  A    between atoms: C20_37  and  C21_38 
REMARK   16  A    between atoms: C23_44  and  C24_45 
REMARK   17  A    between atoms: C24_45  and  C25_46 
ROOT
HETATM    1  C4  UNL     1      10.456  16.326  31.245  1.00  0.00     0.096 C 
HETATM    2  N1  UNL     1       9.710  15.265  30.647  1.00  0.00    -0.369 N 
ATOM      3  H1  UNL     1       9.913  15.105  29.661  1.00  0.00     0.161 HD
HETATM    4  C5  UNL     1       8.745  14.410  31.193  1.00  0.00     0.113 C 
HETATM    5  C6  UNL     1       7.775  14.645  32.272  1.00  0.00     0.118 C 
HETATM    6  C7  UNL     1       8.194  14.276  33.654  1.00  0.00     0.184 C 
HETATM    7  N4  UNL     1       8.242  12.860  33.913  1.00  0.00    -0.345 N 
ATOM      8  H4  UNL     1       7.515  12.314  33.450  1.00  0.00     0.163 HD
HETATM    9  C16 UNL     1       9.128  12.116  34.698  1.00  0.00     0.248 C 
HETATM   10  O4  UNL     1       8.656  11.479  35.716  1.00  0.00    -0.271 OA
HETATM   11  C17 UNL     1      10.601  11.949  34.512  1.00  0.00     0.249 C 
HETATM   12  C19 UNL     1      11.358  13.155  34.869  1.00  0.00     0.187 C 
HETATM   13  O6  UNL     1      11.426  13.473  36.099  1.00  0.00    -0.292 OA
HETATM   14  C20 UNL     1      12.089  14.114  34.028  1.00  0.00     0.218 C 
HETATM   15  N6  UNL     1      12.391  13.700  32.687  1.00  0.00    -0.343 N 
ATOM     16  H6  UNL     1      12.876  12.812  32.566  1.00  0.00     0.163 HD
HETATM   17  C22 UNL     1      12.063  14.438  31.511  1.00  0.00     0.224 C 
HETATM   18  O8  UNL     1      11.885  13.769  30.468  1.00  0.00    -0.273 OA
HETATM   19  C23 UNL     1      11.922  15.908  31.449  1.00  0.00     0.101 C 
ENDROOT
BRANCH   6  20
HETATM   20  C8  UNL     1       7.108  14.827  34.573  1.00  0.00     0.240 C 
HETATM   21  O2  UNL     1       7.300  14.894  35.802  1.00  0.00    -0.271 OA
HETATM   22  N2  UNL     1       5.880  15.259  34.037  1.00  0.00    -0.359 N 
ATOM     23  H2  UNL     1       5.735  15.201  33.029  1.00  0.00     0.162 HD
BRANCH  22  24
HETATM   24  C9  UNL     1       4.819  15.781  34.862  1.00  0.00     0.122 C 
BRANCH  24  25
HETATM   25  C10 UNL     1       3.453  15.553  34.279  1.00  0.00     0.020 C 
BRANCH  25  26
HETATM   26  C11 UNL     1       2.618  14.733  35.258  1.00  0.00     0.002 C 
BRANCH  26  27
HETATM   27  C12 UNL     1       2.774  13.257  35.089  1.00  0.00     0.002 C 
BRANCH  27  28
HETATM   28  C13 UNL     1       2.936  12.593  36.440  1.00  0.00     0.020 C 
BRANCH  28  29
HETATM   29  C14 UNL     1       3.910  13.305  37.344  1.00  0.00     0.122 C 
BRANCH  29  30
HETATM   30  N3  UNL     1       5.275  12.912  37.032  1.00  0.00    -0.368 N 
ATOM     31  H3  UNL     1       5.680  13.103  36.115  1.00  0.00     0.161 HD
BRANCH  30  32
HETATM   32  C15 UNL     1       6.023  12.257  38.031  1.00  0.00     0.348 C 
HETATM   33  O3  UNL     1       5.633  11.220  38.631  1.00  0.00    -0.284 OA
ENDBRANCH  30  32
ENDBRANCH  29  30
ENDBRANCH  28  29
ENDBRANCH  27  28
ENDBRANCH  26  27
ENDBRANCH  25  26
ENDBRANCH  24  25
ENDBRANCH  22  24
ENDBRANCH   6  20
BRANCH   4  34
HETATM   34  O1  UNL     1       8.641  13.205  30.713  1.00  0.00    -0.349 OA
ATOM     35  H1  UNL     1       8.651  12.474  31.319  1.00  0.00     0.219 HD
ENDBRANCH   4  34
BRANCH  11  36
HETATM   36  N5  UNL     1      10.931  11.319  33.276  1.00  0.00    -0.349 N 
ATOM     37  H5  UNL     1      10.986  11.915  32.450  1.00  0.00     0.163 HD
BRANCH  36  38
HETATM   38  C18 UNL     1      11.188   9.949  33.100  1.00  0.00     0.349 C 
HETATM   39  O5  UNL     1      10.322   9.114  33.455  1.00  0.00    -0.284 OA
ENDBRANCH  36  38
ENDBRANCH  11  36
BRANCH   1  40
HETATM   40  C3  UNL     1      10.437  17.609  30.451  1.00  0.00     0.026 C 
BRANCH  40  41
HETATM   41  C2  UNL     1       9.680  18.739  31.100  1.00  0.00    -0.002 C 
HETATM   42  C1  UNL     1      10.465  19.540  32.089  1.00  0.00     0.005 C 
ENDBRANCH  40  41
ENDBRANCH   1  40
BRANCH  19  43
HETATM   43  C24 UNL     1      12.769  16.580  30.434  1.00  0.00     0.020 C 
BRANCH  43  44
HETATM   44  C25 UNL     1      13.924  17.389  30.890  1.00  0.00    -0.022 C 
HETATM   45  C26 UNL     1      14.233  18.659  30.206  1.00  0.00     0.009 C 
HETATM   46  C27 UNL     1      13.697  17.711  32.377  1.00  0.00     0.009 C 
ENDBRANCH  43  44
ENDBRANCH  19  43
BRANCH  14  47
HETATM   47  C21 UNL     1      13.436  14.335  34.698  1.00  0.00     0.264 C 
HETATM   48  O7  UNL     1      13.818  15.457  34.916  1.00  0.00    -0.304 OA
ENDBRANCH  14  47
TORSDOF 17
ENDMDL
