MODEL 1
REMARK VINA RESULT: -9.896593010      0.000      0.000
REMARK  8 active torsions:
REMARK  status: ('A' for Active; 'I' for Inactive)
REMARK    1  A    between atoms: C2_2  and  C4_4 
REMARK    2  A    between atoms: C6_6  and  C7_7 
REMARK    3  A    between atoms: C12_12  and  C13_13 
REMARK       I    between atoms: C13_13  and  N1_15 
REMARK    4  A    between atoms: N1_15  and  C14_17 
REMARK    5  A    between atoms: C16_19  and  N2_20 
REMARK    6  A    between atoms: N3_23  and  C19_24 
REMARK    7  A    between atoms: C19_24  and  C20_25 
REMARK    8  A    between atoms: C24_33  and  O2_34 
ROOT
HETATM    1  C13 UNL     1      59.504   2.062  13.336  1.00  0.00     0.260 C 
HETATM    2  O1  UNL     1      59.527   1.594  14.492  1.00  0.00    -0.267 OA
HETATM    3  N1  UNL     1      59.857   3.366  13.042  1.00  0.00    -0.308 N 
ATOM      4  H1  UNL     1      59.595   3.684  12.109  1.00  0.00     0.170 HD
ENDROOT
BRANCH   3   5
HETATM    5  C14 UNL     1      60.467   4.242  13.762  1.00  0.00     0.116 A 
HETATM    6  C15 UNL     1      61.753   4.595  13.676  1.00  0.00     0.086 A 
HETATM    7  C16 UNL     1      62.214   5.551  14.554  1.00  0.00     0.080 A 
HETATM    8  S1  UNL     1      60.820   5.909  15.458  1.00  0.00    -0.079 SA
HETATM    9  C23 UNL     1      60.380   7.459  16.367  1.00  0.00     0.109 C 
HETATM   10  N4  UNL     1      59.732   4.873  14.721  1.00  0.00    -0.320 N 
ATOM     11  H4  UNL     1      58.745   4.742  14.940  1.00  0.00     0.175 HD
BRANCH   7  12
HETATM   12  N2  UNL     1      63.496   6.127  14.700  1.00  0.00    -0.368 N 
HETATM   13  C17 UNL     1      64.351   5.612  15.745  1.00  0.00     0.168 C 
HETATM   14  C18 UNL     1      65.804   5.667  15.398  1.00  0.00     0.083 C 
HETATM   15  N3  UNL     1      66.154   6.401  14.267  1.00  0.00    -0.370 N 
HETATM   16  C21 UNL     1      65.291   6.738  13.257  1.00  0.00     0.146 C 
HETATM   17  C22 UNL     1      63.942   7.187  13.872  1.00  0.00     0.144 C 
BRANCH  15  18
HETATM   18  C19 UNL     1      67.527   6.368  13.982  1.00  0.00     0.074 C 
BRANCH  18  19
HETATM   19  C20 UNL     1      68.094   5.200  13.262  1.00  0.00     0.129 C 
HETATM   20 BR1  UNL     1      69.189   4.029  14.327  1.00  0.00    -0.091 Br
ENDBRANCH  18  19
ENDBRANCH  15  18
ENDBRANCH   7  12
ENDBRANCH   3   5
BRANCH   1  21
HETATM   21  C12 UNL     1      59.063   1.103  12.296  1.00  0.00     0.066 A 
HETATM   22  C11 UNL     1      59.733   0.975  11.099  1.00  0.00     0.027 A 
HETATM   23  C6  UNL     1      59.329   0.078  10.140  1.00  0.00    -0.049 A 
HETATM   24  C5  UNL     1      58.219  -0.687  10.437  1.00  0.00     0.018 A 
HETATM   25  C4  UNL     1      57.534  -0.565  11.643  1.00  0.00    -0.020 A 
HETATM   26  C24 UNL     1      57.946   0.337  12.598  1.00  0.00     0.088 A 
BRANCH  23  27
HETATM   27  C7  UNL     1      60.038  -0.084   8.842  1.00  0.00    -0.024 C 
HETATM   28  C8  UNL     1      59.462   0.854   7.803  1.00  0.00     0.019 C 
HETATM   29  C9  UNL     1      61.522   0.237   8.962  1.00  0.00     0.019 C 
HETATM   30  C10 UNL     1      59.880  -1.508   8.356  1.00  0.00     0.019 C 
ENDBRANCH  23  27
BRANCH  25  31
HETATM   31  C2  UNL     1      56.359  -1.417  11.930  1.00  0.00     0.013 C 
HETATM   32  C1  UNL     1      55.555  -1.569  10.645  1.00  0.00     0.015 C 
HETATM   33  C3  UNL     1      56.828  -2.805  12.359  1.00  0.00     0.015 C 
ENDBRANCH  25  31
BRANCH  26  34
HETATM   34  O2  UNL     1      57.290   0.501  13.826  1.00  0.00    -0.359 OA
ATOM     35  H2  UNL     1      57.614   1.071  14.513  1.00  0.00     0.217 HD
ENDBRANCH  26  34
ENDBRANCH   1  21
TORSDOF 8
ENDMDL
MODEL 2
REMARK VINA RESULT: -9.335537307      1.223      3.102
REMARK  8 active torsions:
REMARK  status: ('A' for Active; 'I' for Inactive)
REMARK    1  A    between atoms: C2_2  and  C4_4 
REMARK    2  A    between atoms: C6_6  and  C7_7 
REMARK    3  A    between atoms: C12_12  and  C13_13 
REMARK       I    between atoms: C13_13  and  N1_15 
REMARK    4  A    between atoms: N1_15  and  C14_17 
REMARK    5  A    between atoms: C16_19  and  N2_20 
REMARK    6  A    between atoms: N3_23  and  C19_24 
REMARK    7  A    between atoms: C19_24  and  C20_25 
REMARK    8  A    between atoms: C24_33  and  O2_34 
ROOT
HETATM    1  C13 UNL     1      58.965   1.367  13.179  1.00  0.00     0.260 C 
HETATM    2  O1  UNL     1      58.570   0.990  14.301  1.00  0.00    -0.267 OA
HETATM    3  N1  UNL     1      59.654   2.548  12.978  1.00  0.00    -0.308 N 
ATOM      4  H1  UNL     1      59.731   2.842  12.005  1.00  0.00     0.170 HD
ENDROOT
BRANCH   3   5
HETATM    5  C14 UNL     1      60.213   3.337  13.829  1.00  0.00     0.116 A 
HETATM    6  C15 UNL     1      61.229   4.173  13.597  1.00  0.00     0.086 A 
HETATM    7  C16 UNL     1      61.691   4.926  14.654  1.00  0.00     0.080 A 
HETATM    8  S1  UNL     1      60.676   4.424  15.922  1.00  0.00    -0.079 SA
HETATM    9  C23 UNL     1      60.183   5.332  17.456  1.00  0.00     0.109 C 
HETATM   10  N4  UNL     1      59.730   3.314  15.103  1.00  0.00    -0.320 N 
ATOM     11  H4  UNL     1      58.966   2.749  15.473  1.00  0.00     0.175 HD
BRANCH   7  12
HETATM   12  N2  UNL     1      62.725   5.887  14.719  1.00  0.00    -0.368 N 
HETATM   13  C17 UNL     1      63.507   5.954  15.932  1.00  0.00     0.168 C 
HETATM   14  C18 UNL     1      64.925   6.363  15.698  1.00  0.00     0.083 C 
HETATM   15  N3  UNL     1      65.240   6.845  14.430  1.00  0.00    -0.370 N 
HETATM   16  C21 UNL     1      64.494   6.622  13.302  1.00  0.00     0.146 C 
HETATM   17  C22 UNL     1      62.992   6.777  13.649  1.00  0.00     0.144 C 
BRANCH  15  18
HETATM   18  C19 UNL     1      66.598   7.164  14.274  1.00  0.00     0.074 C 
BRANCH  18  19
HETATM   19  C20 UNL     1      67.481   6.240  13.520  1.00  0.00     0.129 C 
HETATM   20 BR1  UNL     1      68.106   4.711  14.508  1.00  0.00    -0.091 Br
ENDBRANCH  18  19
ENDBRANCH  15  18
ENDBRANCH   7  12
ENDBRANCH   3   5
BRANCH   1  21
HETATM   21  C12 UNL     1      58.634   0.439  12.071  1.00  0.00     0.066 A 
HETATM   22  C11 UNL     1      57.518  -0.367  12.111  1.00  0.00     0.027 A 
HETATM   23  C6  UNL     1      57.207  -1.218  11.079  1.00  0.00    -0.049 A 
HETATM   24  C5  UNL     1      58.070  -1.225  10.002  1.00  0.00     0.018 A 
HETATM   25  C4  UNL     1      59.201  -0.415   9.950  1.00  0.00    -0.020 A 
HETATM   26  C24 UNL     1      59.505   0.435  10.990  1.00  0.00     0.088 A 
BRANCH  23  27
HETATM   27  C7  UNL     1      56.005  -2.095  11.095  1.00  0.00    -0.024 C 
HETATM   28  C8  UNL     1      55.665  -2.501  12.513  1.00  0.00     0.019 C 
HETATM   29  C9  UNL     1      54.781  -1.391  10.525  1.00  0.00     0.019 C 
HETATM   30  C10 UNL     1      56.281  -3.341  10.283  1.00  0.00     0.019 C 
ENDBRANCH  23  27
BRANCH  25  31
HETATM   31  C2  UNL     1      60.091  -0.437   8.769  1.00  0.00     0.013 C 
HETATM   32  C1  UNL     1      59.876  -1.756   8.036  1.00  0.00     0.015 C 
HETATM   33  C3  UNL     1      59.708   0.695   7.821  1.00  0.00     0.015 C 
ENDBRANCH  25  31
BRANCH  26  34
HETATM   34  O2  UNL     1      60.632   1.268  10.990  1.00  0.00    -0.359 OA
ATOM     35  H2  UNL     1      60.641   2.127  11.397  1.00  0.00     0.217 HD
ENDBRANCH  26  34
ENDBRANCH   1  21
TORSDOF 8
ENDMDL
MODEL 3
REMARK VINA RESULT: -8.324223092      4.459      6.123
REMARK  8 active torsions:
REMARK  status: ('A' for Active; 'I' for Inactive)
REMARK    1  A    between atoms: C2_2  and  C4_4 
REMARK    2  A    between atoms: C6_6  and  C7_7 
REMARK    3  A    between atoms: C12_12  and  C13_13 
REMARK       I    between atoms: C13_13  and  N1_15 
REMARK    4  A    between atoms: N1_15  and  C14_17 
REMARK    5  A    between atoms: C16_19  and  N2_20 
REMARK    6  A    between atoms: N3_23  and  C19_24 
REMARK    7  A    between atoms: C19_24  and  C20_25 
REMARK    8  A    between atoms: C24_33  and  O2_34 
ROOT
HETATM    1  C13 UNL     1      60.944   0.836   9.489  1.00  0.00     0.260 C 
HETATM    2  O1  UNL     1      60.657   0.703   8.282  1.00  0.00    -0.267 OA
HETATM    3  N1  UNL     1      62.217   1.141   9.933  1.00  0.00    -0.308 N 
ATOM      4  H1  UNL     1      62.366   1.013  10.933  1.00  0.00     0.170 HD
ENDROOT
BRANCH   3   5
HETATM    5  C14 UNL     1      63.244   1.563   9.281  1.00  0.00     0.116 A 
HETATM    6  C15 UNL     1      63.692   2.820   9.219  1.00  0.00     0.086 A 
HETATM    7  C16 UNL     1      64.809   3.063   8.450  1.00  0.00     0.080 A 
HETATM    8  S1  UNL     1      65.175   1.515   7.851  1.00  0.00    -0.079 SA
HETATM    9  C23 UNL     1      66.801   0.831   7.292  1.00  0.00     0.109 C 
HETATM   10  N4  UNL     1      63.946   0.637   8.569  1.00  0.00    -0.320 N 
ATOM     11  H4  UNL     1      63.763  -0.363   8.490  1.00  0.00     0.175 HD
BRANCH   7  12
HETATM   12  N2  UNL     1      65.513   4.263   8.200  1.00  0.00    -0.368 N 
HETATM   13  C17 UNL     1      65.406   5.322   9.178  1.00  0.00     0.168 C 
HETATM   14  C18 UNL     1      66.643   6.155   9.282  1.00  0.00     0.083 C 
HETATM   15  N3  UNL     1      67.610   5.971   8.297  1.00  0.00    -0.370 N 
HETATM   16  C21 UNL     1      67.708   4.865   7.495  1.00  0.00     0.146 C 
HETATM   17  C22 UNL     1      66.290   4.449   7.030  1.00  0.00     0.144 C 
BRANCH  15  18
HETATM   18  C19 UNL     1      68.759   6.754   8.489  1.00  0.00     0.074 C 
BRANCH  18  19
HETATM   19  C20 UNL     1      68.922   8.010   7.715  1.00  0.00     0.129 C 
HETATM   20 BR1  UNL     1      70.010   7.867   6.134  1.00  0.00    -0.091 Br
ENDBRANCH  18  19
ENDBRANCH  15  18
ENDBRANCH   7  12
ENDBRANCH   3   5
BRANCH   1  21
HETATM   21  C12 UNL     1      59.803   0.639  10.414  1.00  0.00     0.066 A 
HETATM   22  C11 UNL     1      58.951  -0.438  10.293  1.00  0.00     0.027 A 
HETATM   23  C6  UNL     1      57.901  -0.625  11.158  1.00  0.00    -0.049 A 
HETATM   24  C5  UNL     1      57.742   0.319  12.152  1.00  0.00     0.018 A 
HETATM   25  C4  UNL     1      58.596   1.411  12.284  1.00  0.00    -0.020 A 
HETATM   26  C24 UNL     1      59.647   1.591  11.412  1.00  0.00     0.088 A 
BRANCH  23  27
HETATM   27  C7  UNL     1      56.970  -1.781  11.052  1.00  0.00    -0.024 C 
HETATM   28  C8  UNL     1      56.862  -2.497  12.381  1.00  0.00     0.019 C 
HETATM   29  C9  UNL     1      55.564  -1.344  10.663  1.00  0.00     0.019 C 
HETATM   30  C10 UNL     1      57.489  -2.752  10.015  1.00  0.00     0.019 C 
ENDBRANCH  23  27
BRANCH  25  31
HETATM   31  C2  UNL     1      58.404   2.391  13.374  1.00  0.00     0.013 C 
HETATM   32  C1  UNL     1      57.445   1.787  14.393  1.00  0.00     0.015 C 
HETATM   33  C3  UNL     1      59.737   2.643  14.074  1.00  0.00     0.015 C 
ENDBRANCH  25  31
BRANCH  26  34
HETATM   34  O2  UNL     1      60.533   2.673  11.498  1.00  0.00    -0.359 OA
ATOM     35  H2  UNL     1      61.384   2.613  11.916  1.00  0.00     0.217 HD
ENDBRANCH  26  34
ENDBRANCH   1  21
TORSDOF 8
ENDMDL
MODEL 4
REMARK VINA RESULT: -8.298091618      4.552      6.219
REMARK  8 active torsions:
REMARK  status: ('A' for Active; 'I' for Inactive)
REMARK    1  A    between atoms: C2_2  and  C4_4 
REMARK    2  A    between atoms: C6_6  and  C7_7 
REMARK    3  A    between atoms: C12_12  and  C13_13 
REMARK       I    between atoms: C13_13  and  N1_15 
REMARK    4  A    between atoms: N1_15  and  C14_17 
REMARK    5  A    between atoms: C16_19  and  N2_20 
REMARK    6  A    between atoms: N3_23  and  C19_24 
REMARK    7  A    between atoms: C19_24  and  C20_25 
REMARK    8  A    between atoms: C24_33  and  O2_34 
ROOT
HETATM    1  C13 UNL     1      61.151   0.934   9.495  1.00  0.00     0.260 C 
HETATM    2  O1  UNL     1      60.907   0.791   8.280  1.00  0.00    -0.267 OA
HETATM    3  N1  UNL     1      62.414   1.210   9.984  1.00  0.00    -0.308 N 
ATOM      4  H1  UNL     1      62.521   1.092  10.991  1.00  0.00     0.170 HD
ENDROOT
BRANCH   3   5
HETATM    5  C14 UNL     1      63.477   1.594   9.366  1.00  0.00     0.116 A 
HETATM    6  C15 UNL     1      64.075   2.784   9.466  1.00  0.00     0.086 A 
HETATM    7  C16 UNL     1      65.203   2.998   8.705  1.00  0.00     0.080 A 
HETATM    8  S1  UNL     1      65.370   1.518   7.887  1.00  0.00    -0.079 SA
HETATM    9  C23 UNL     1      66.892   0.730   7.190  1.00  0.00     0.109 C 
HETATM   10  N4  UNL     1      64.051   0.701   8.512  1.00  0.00    -0.320 N 
ATOM     11  H4  UNL     1      63.746  -0.249   8.301  1.00  0.00     0.175 HD
BRANCH   7  12
HETATM   12  N2  UNL     1      66.046   4.128   8.604  1.00  0.00    -0.368 N 
HETATM   13  C17 UNL     1      66.712   4.361   7.342  1.00  0.00     0.168 C 
HETATM   14  C18 UNL     1      66.920   5.810   7.044  1.00  0.00     0.083 C 
HETATM   15  N3  UNL     1      66.681   6.707   8.082  1.00  0.00    -0.370 N 
HETATM   16  C21 UNL     1      65.925   6.434   9.192  1.00  0.00     0.146 C 
HETATM   17  C22 UNL     1      66.259   5.008   9.694  1.00  0.00     0.144 C 
BRANCH  15  18
HETATM   18  C19 UNL     1      66.854   8.050   7.712  1.00  0.00     0.074 C 
BRANCH  18  19
HETATM   19  C20 UNL     1      68.224   8.618   7.649  1.00  0.00     0.129 C 
HETATM   20 BR1  UNL     1      68.314  10.519   7.365  1.00  0.00    -0.091 Br
ENDBRANCH  18  19
ENDBRANCH  15  18
ENDBRANCH   7  12
ENDBRANCH   3   5
BRANCH   1  21
HETATM   21  C12 UNL     1      59.971   0.781  10.379  1.00  0.00     0.066 A 
HETATM   22  C11 UNL     1      59.113  -0.290  10.261  1.00  0.00     0.027 A 
HETATM   23  C6  UNL     1      58.025  -0.436  11.088  1.00  0.00    -0.049 A 
HETATM   24  C5  UNL     1      57.836   0.545  12.040  1.00  0.00     0.018 A 
HETATM   25  C4  UNL     1      58.696   1.633  12.167  1.00  0.00    -0.020 A 
HETATM   26  C24 UNL     1      59.784   1.770  11.334  1.00  0.00     0.088 A 
BRANCH  23  27
HETATM   27  C7  UNL     1      57.087  -1.586  10.985  1.00  0.00    -0.024 C 
HETATM   28  C8  UNL     1      57.598  -2.599   9.983  1.00  0.00     0.019 C 
HETATM   29  C9  UNL     1      56.930  -2.311  12.315  1.00  0.00     0.019 C 
HETATM   30  C10 UNL     1      55.731  -1.090  10.531  1.00  0.00     0.019 C 
ENDBRANCH  23  27
BRANCH  25  31
HETATM   31  C2  UNL     1      58.470   2.654  13.213  1.00  0.00     0.013 C 
HETATM   32  C1  UNL     1      57.557   2.053  14.275  1.00  0.00     0.015 C 
HETATM   33  C3  UNL     1      59.798   3.005  13.879  1.00  0.00     0.015 C 
ENDBRANCH  25  31
BRANCH  26  34
HETATM   34  O2  UNL     1      60.678   2.847  11.418  1.00  0.00    -0.359 OA
ATOM     35  H2  UNL     1      61.582   2.748  11.695  1.00  0.00     0.217 HD
ENDBRANCH  26  34
ENDBRANCH   1  21
TORSDOF 8
ENDMDL
MODEL 5
REMARK VINA RESULT: -8.256374485      4.813      6.288
REMARK  8 active torsions:
REMARK  status: ('A' for Active; 'I' for Inactive)
REMARK    1  A    between atoms: C2_2  and  C4_4 
REMARK    2  A    between atoms: C6_6  and  C7_7 
REMARK    3  A    between atoms: C12_12  and  C13_13 
REMARK       I    between atoms: C13_13  and  N1_15 
REMARK    4  A    between atoms: N1_15  and  C14_17 
REMARK    5  A    between atoms: C16_19  and  N2_20 
REMARK    6  A    between atoms: N3_23  and  C19_24 
REMARK    7  A    between atoms: C19_24  and  C20_25 
REMARK    8  A    between atoms: C24_33  and  O2_34 
ROOT
HETATM    1  C13 UNL     1      63.132   2.606  11.021  1.00  0.00     0.260 C 
HETATM    2  O1  UNL     1      64.110   1.882  11.298  1.00  0.00    -0.267 OA
HETATM    3  N1  UNL     1      63.244   3.959  10.763  1.00  0.00    -0.308 N 
ATOM      4  H1  UNL     1      62.362   4.471  10.762  1.00  0.00     0.170 HD
ENDROOT
BRANCH   3   5
HETATM    5  C14 UNL     1      64.288   4.674  10.523  1.00  0.00     0.116 A 
HETATM    6  C15 UNL     1      64.701   5.113   9.330  1.00  0.00     0.086 A 
HETATM    7  C16 UNL     1      65.858   5.858   9.289  1.00  0.00     0.080 A 
HETATM    8  S1  UNL     1      66.310   5.908  10.927  1.00  0.00    -0.079 SA
HETATM    9  C23 UNL     1      67.325   7.169  11.823  1.00  0.00     0.109 C 
HETATM   10  N4  UNL     1      65.062   5.014  11.591  1.00  0.00    -0.320 N 
ATOM     11  H4  UNL     1      64.915   4.777  12.572  1.00  0.00     0.175 HD
BRANCH   7  12
HETATM   12  N2  UNL     1      66.530   6.459   8.200  1.00  0.00    -0.368 N 
HETATM   13  C17 UNL     1      66.741   7.888   8.245  1.00  0.00     0.168 C 
HETATM   14  C18 UNL     1      68.001   8.319   7.567  1.00  0.00     0.083 C 
HETATM   15  N3  UNL     1      68.660   7.364   6.797  1.00  0.00    -0.370 N 
HETATM   16  C21 UNL     1      68.484   6.010   6.914  1.00  0.00     0.146 C 
HETATM   17  C22 UNL     1      66.974   5.708   7.085  1.00  0.00     0.144 C 
BRANCH  15  18
HETATM   18  C19 UNL     1      69.856   7.831   6.231  1.00  0.00     0.074 C 
BRANCH  18  19
HETATM   19  C20 UNL     1      70.326   9.203   6.546  1.00  0.00     0.129 C 
HETATM   20 BR1  UNL     1      70.782  10.287   5.024  1.00  0.00    -0.091 Br
ENDBRANCH  18  19
ENDBRANCH  15  18
ENDBRANCH   7  12
ENDBRANCH   3   5
BRANCH   1  21
HETATM   21  C12 UNL     1      61.832   1.894  10.992  1.00  0.00     0.066 A 
HETATM   22  C11 UNL     1      60.927   1.999  12.026  1.00  0.00     0.027 A 
HETATM   23  C6  UNL     1      59.718   1.347  11.993  1.00  0.00    -0.049 A 
HETATM   24  C5  UNL     1      59.458   0.582  10.874  1.00  0.00     0.018 A 
HETATM   25  C4  UNL     1      60.365   0.469   9.824  1.00  0.00    -0.020 A 
HETATM   26  C24 UNL     1      61.575   1.126   9.866  1.00  0.00     0.088 A 
BRANCH  23  27
HETATM   27  C7  UNL     1      58.722   1.447  13.093  1.00  0.00    -0.024 C 
HETATM   28  C8  UNL     1      59.418   1.494  14.436  1.00  0.00     0.019 C 
HETATM   29  C9  UNL     1      57.878   2.709  12.981  1.00  0.00     0.019 C 
HETATM   30  C10 UNL     1      57.810   0.240  13.058  1.00  0.00     0.019 C 
ENDBRANCH  23  27
BRANCH  25  31
HETATM   31  C2  UNL     1      60.041  -0.345   8.632  1.00  0.00     0.013 C 
HETATM   32  C1  UNL     1      59.004  -1.386   9.035  1.00  0.00     0.015 C 
HETATM   33  C3  UNL     1      59.421   0.546   7.559  1.00  0.00     0.015 C 
ENDBRANCH  25  31
BRANCH  26  34
HETATM   34  O2  UNL     1      62.524   1.043   8.838  1.00  0.00    -0.359 OA
ATOM     35  H2  UNL     1      62.710   0.238   8.369  1.00  0.00     0.217 HD
ENDBRANCH  26  34
ENDBRANCH   1  21
TORSDOF 8
ENDMDL
