MODEL 1
REMARK VINA RESULT: -10.505421435      0.000      0.000
REMARK  6 active torsions:
REMARK  status: ('A' for Active; 'I' for Inactive)
REMARK    1  A    between atoms: C3_3  and  C4_4 
REMARK    2  A    between atoms: C3_3  and  O3_17 
REMARK    3  A    between atoms: C4_4  and  C5_5 
REMARK    4  A    between atoms: O3_17  and  C15_18 
REMARK    5  A    between atoms: C15_18  and  C16_19 
REMARK    6  A    between atoms: C19_22  and  N1_23 
ROOT
HETATM    1  C1  UNL     1      42.195  -6.555  -0.150  1.00  0.00     0.015 C 
HETATM    2  C2  UNL     1      43.034  -6.496   0.710  1.00  0.00    -0.085 C 
HETATM    3  C3  UNL     1      44.046  -6.425   1.782  1.00  0.00     0.200 C 
ENDROOT
BRANCH   3   4
HETATM    4  C4  UNL     1      44.816  -5.147   1.546  1.00  0.00     0.063 C 
BRANCH   4   5
HETATM    5  C5  UNL     1      44.417  -4.019   2.515  1.00  0.00     0.111 C 
HETATM    6  C6  UNL     1      45.315  -4.079   3.677  1.00  0.00    -0.012 C 
HETATM    7  C7  UNL     1      45.328  -3.048   4.715  1.00  0.00    -0.007 C 
HETATM    8  C8  UNL     1      44.405  -1.916   4.711  1.00  0.00    -0.027 C 
HETATM    9  C9  UNL     1      44.819  -0.568   4.315  1.00  0.00     0.027 C 
HETATM   10  C10 UNL     1      46.256  -0.242   4.145  1.00  0.00     0.006 C 
HETATM   11  C11 UNL     1      46.734  -0.185   2.708  1.00  0.00     0.032 C 
HETATM   12  C12 UNL     1      46.619  -1.495   1.965  1.00  0.00     0.128 C 
HETATM   13  C13 UNL     1      47.197  -1.195   0.567  1.00  0.00     0.040 C 
HETATM   14  O1  UNL     1      45.284  -1.749   1.795  1.00  0.00    -0.316 OA
HETATM   15  C14 UNL     1      44.491  -2.807   1.671  1.00  0.00     0.267 C 
HETATM   16  O2  UNL     1      43.666  -2.792   0.685  1.00  0.00    -0.265 OA
ENDBRANCH   4   5
ENDBRANCH   3   4
BRANCH   3  17
HETATM   17  O3  UNL     1      44.875  -7.507   1.624  1.00  0.00    -0.371 OA
BRANCH  17  18
HETATM   18  C15 UNL     1      46.057  -7.399   1.008  1.00  0.00     0.201 C 
BRANCH  18  19
HETATM   19  C16 UNL     1      46.316  -8.029  -0.298  1.00  0.00     0.148 C 
HETATM   20  C17 UNL     1      46.742  -7.209  -1.454  1.00  0.00     0.038 C 
HETATM   21  C18 UNL     1      46.868  -8.371  -2.496  1.00  0.00     0.057 C 
HETATM   22  C19 UNL     1      47.501  -9.402  -1.597  1.00  0.00     0.232 C 
HETATM   23  O6  UNL     1      47.136  -9.159  -0.285  1.00  0.00    -0.359 OA
BRANCH  22  24
HETATM   24  N1  UNL     1      47.119 -10.710  -2.074  1.00  0.00    -0.282 N 
HETATM   25  C20 UNL     1      46.270 -10.810  -3.111  1.00  0.00     0.110 A 
HETATM   26  C21 UNL     1      45.892 -12.047  -3.583  1.00  0.00     0.022 A 
HETATM   27  C22 UNL     1      44.966 -12.190  -4.714  1.00  0.00     0.056 C 
HETATM   28  C23 UNL     1      46.383 -13.196  -2.995  1.00  0.00     0.256 A 
HETATM   29  O4  UNL     1      46.043 -14.316  -3.422  1.00  0.00    -0.267 OA
HETATM   30  N2  UNL     1      47.229 -13.027  -1.961  1.00  0.00    -0.275 N 
HETATM   31  C24 UNL     1      47.598 -11.834  -1.499  1.00  0.00     0.331 A 
ATOM     32  H2  UNL     1      47.608 -13.858  -1.508  1.00  0.00     0.173 HD
HETATM   33  O5  UNL     1      48.393 -11.707  -0.528  1.00  0.00    -0.246 OA
ENDBRANCH  22  24
ENDBRANCH  18  19
ENDBRANCH  17  18
ENDBRANCH   3  17
TORSDOF 6
ENDMDL
MODEL 2
REMARK VINA RESULT: -10.085529801      0.977      1.040
REMARK  6 active torsions:
REMARK  status: ('A' for Active; 'I' for Inactive)
REMARK    1  A    between atoms: C3_3  and  C4_4 
REMARK    2  A    between atoms: C3_3  and  O3_17 
REMARK    3  A    between atoms: C4_4  and  C5_5 
REMARK    4  A    between atoms: O3_17  and  C15_18 
REMARK    5  A    between atoms: C15_18  and  C16_19 
REMARK    6  A    between atoms: C19_22  and  N1_23 
ROOT
HETATM    1  C1  UNL     1      42.199  -6.513  -0.140  1.00  0.00     0.015 C 
HETATM    2  C2  UNL     1      42.945  -6.432   0.802  1.00  0.00    -0.085 C 
HETATM    3  C3  UNL     1      43.840  -6.332   1.971  1.00  0.00     0.200 C 
ENDROOT
BRANCH   3   4
HETATM    4  C4  UNL     1      44.709  -5.121   1.729  1.00  0.00     0.063 C 
BRANCH   4   5
HETATM    5  C5  UNL     1      44.373  -3.946   2.666  1.00  0.00     0.111 C 
HETATM    6  C6  UNL     1      45.310  -3.984   3.798  1.00  0.00    -0.012 C 
HETATM    7  C7  UNL     1      45.385  -2.914   4.793  1.00  0.00    -0.007 C 
HETATM    8  C8  UNL     1      44.491  -1.759   4.776  1.00  0.00    -0.027 C 
HETATM    9  C9  UNL     1      44.924  -0.439   4.312  1.00  0.00     0.027 C 
HETATM   10  C10 UNL     1      46.361  -0.158   4.080  1.00  0.00     0.006 C 
HETATM   11  C11 UNL     1      46.789  -0.169   2.626  1.00  0.00     0.032 C 
HETATM   12  C12 UNL     1      46.615  -1.503   1.940  1.00  0.00     0.128 C 
HETATM   13  C13 UNL     1      47.149  -1.273   0.512  1.00  0.00     0.040 C 
HETATM   14  O1  UNL     1      45.269  -1.729   1.827  1.00  0.00    -0.316 OA
HETATM   15  C14 UNL     1      44.446  -2.769   1.772  1.00  0.00     0.267 C 
HETATM   16  O2  UNL     1      43.587  -2.771   0.816  1.00  0.00    -0.265 OA
ENDBRANCH   4   5
ENDBRANCH   3   4
BRANCH   3  17
HETATM   17  O3  UNL     1      44.612  -7.467   1.983  1.00  0.00    -0.371 OA
BRANCH  17  18
HETATM   18  C15 UNL     1      45.856  -7.473   1.492  1.00  0.00     0.201 C 
BRANCH  18  19
HETATM   19  C16 UNL     1      46.174  -8.069   0.183  1.00  0.00     0.148 C 
HETATM   20  C17 UNL     1      46.047  -7.267  -1.055  1.00  0.00     0.038 C 
HETATM   21  C18 UNL     1      46.508  -8.373  -2.064  1.00  0.00     0.057 C 
HETATM   22  C19 UNL     1      47.636  -8.954  -1.250  1.00  0.00     0.232 C 
HETATM   23  O6  UNL     1      47.387  -8.752   0.096  1.00  0.00    -0.359 OA
BRANCH  22  24
HETATM   24  N1  UNL     1      47.781 -10.344  -1.612  1.00  0.00    -0.282 N 
HETATM   25  C20 UNL     1      46.688 -11.064  -1.914  1.00  0.00     0.110 A 
HETATM   26  C21 UNL     1      46.802 -12.391  -2.263  1.00  0.00     0.022 A 
HETATM   27  C22 UNL     1      45.626 -13.204  -2.598  1.00  0.00     0.056 C 
HETATM   28  C23 UNL     1      48.044 -12.994  -2.306  1.00  0.00     0.256 A 
HETATM   29  O4  UNL     1      48.150 -14.194  -2.622  1.00  0.00    -0.267 OA
HETATM   30  N2  UNL     1      49.099 -12.218  -1.993  1.00  0.00    -0.275 N 
HETATM   31  C24 UNL     1      48.995 -10.935  -1.654  1.00  0.00     0.331 A 
ATOM     32  H2  UNL     1      50.029 -12.637  -2.016  1.00  0.00     0.173 HD
HETATM   33  O5  UNL     1      50.003 -10.233  -1.366  1.00  0.00    -0.246 OA
ENDBRANCH  22  24
ENDBRANCH  18  19
ENDBRANCH  17  18
ENDBRANCH   3  17
TORSDOF 6
ENDMDL
MODEL 3
REMARK VINA RESULT: -10.000628850      1.489      1.589
REMARK  6 active torsions:
REMARK  status: ('A' for Active; 'I' for Inactive)
REMARK    1  A    between atoms: C3_3  and  C4_4 
REMARK    2  A    between atoms: C3_3  and  O3_17 
REMARK    3  A    between atoms: C4_4  and  C5_5 
REMARK    4  A    between atoms: O3_17  and  C15_18 
REMARK    5  A    between atoms: C15_18  and  C16_19 
REMARK    6  A    between atoms: C19_22  and  N1_23 
ROOT
HETATM    1  C1  UNL     1      43.328  -8.414  -0.591  1.00  0.00     0.015 C 
HETATM    2  C2  UNL     1      43.899  -7.780   0.257  1.00  0.00    -0.085 C 
HETATM    3  C3  UNL     1      44.584  -7.011   1.314  1.00  0.00     0.200 C 
ENDROOT
BRANCH   3   4
HETATM    4  C4  UNL     1      44.564  -5.570   0.862  1.00  0.00     0.063 C 
BRANCH   4   5
HETATM    5  C5  UNL     1      44.170  -4.594   1.986  1.00  0.00     0.111 C 
HETATM    6  C6  UNL     1      45.111  -4.780   3.100  1.00  0.00    -0.012 C 
HETATM    7  C7  UNL     1      45.133  -3.897   4.266  1.00  0.00    -0.007 C 
HETATM    8  C8  UNL     1      44.180  -2.804   4.444  1.00  0.00    -0.027 C 
HETATM    9  C9  UNL     1      44.545  -1.403   4.220  1.00  0.00     0.027 C 
HETATM   10  C10 UNL     1      45.965  -1.013   4.050  1.00  0.00     0.006 C 
HETATM   11  C11 UNL     1      46.390  -0.750   2.619  1.00  0.00     0.032 C 
HETATM   12  C12 UNL     1      46.284  -1.952   1.710  1.00  0.00     0.128 C 
HETATM   13  C13 UNL     1      46.803  -1.450   0.348  1.00  0.00     0.040 C 
HETATM   14  O1  UNL     1      44.950  -2.222   1.550  1.00  0.00    -0.316 OA
HETATM   15  C14 UNL     1      44.182  -3.278   1.310  1.00  0.00     0.267 C 
HETATM   16  O2  UNL     1      43.322  -3.157   0.362  1.00  0.00    -0.265 OA
ENDBRANCH   4   5
ENDBRANCH   3   4
BRANCH   3  17
HETATM   17  O3  UNL     1      45.878  -7.466   1.368  1.00  0.00    -0.371 OA
BRANCH  17  18
HETATM   18  C15 UNL     1      46.825  -6.981   0.559  1.00  0.00     0.201 C 
BRANCH  18  19
HETATM   19  C16 UNL     1      47.773  -7.860  -0.146  1.00  0.00     0.148 C 
HETATM   20  C17 UNL     1      49.158  -7.409  -0.410  1.00  0.00     0.038 C 
HETATM   21  C18 UNL     1      49.662  -8.703  -1.134  1.00  0.00     0.057 C 
HETATM   22  C19 UNL     1      48.996  -9.723  -0.246  1.00  0.00     0.232 C 
HETATM   23  O6  UNL     1      47.861  -9.172   0.322  1.00  0.00    -0.359 OA
BRANCH  22  24
HETATM   24  N1  UNL     1      48.737 -10.905  -1.034  1.00  0.00    -0.282 N 
HETATM   25  C20 UNL     1      48.481 -10.777  -2.346  1.00  0.00     0.110 A 
HETATM   26  C21 UNL     1      48.232 -11.890  -3.118  1.00  0.00     0.022 A 
HETATM   27  C22 UNL     1      47.949 -11.784  -4.555  1.00  0.00     0.056 C 
HETATM   28  C23 UNL     1      48.243 -13.148  -2.548  1.00  0.00     0.256 A 
HETATM   29  O4  UNL     1      48.018 -14.156  -3.244  1.00  0.00    -0.267 OA
HETATM   30  N2  UNL     1      48.506 -13.207  -1.229  1.00  0.00    -0.275 N 
HETATM   31  C24 UNL     1      48.747 -12.135  -0.477  1.00  0.00     0.331 A 
ATOM     32  H2  UNL     1      48.521 -14.123  -0.781  1.00  0.00     0.173 HD
HETATM   33  O5  UNL     1      48.991 -12.222   0.757  1.00  0.00    -0.246 OA
ENDBRANCH  22  24
ENDBRANCH  18  19
ENDBRANCH  17  18
ENDBRANCH   3  17
TORSDOF 6
ENDMDL
MODEL 4
REMARK VINA RESULT: -9.759862676      4.792     10.741
REMARK  6 active torsions:
REMARK  status: ('A' for Active; 'I' for Inactive)
REMARK    1  A    between atoms: C3_3  and  C4_4 
REMARK    2  A    between atoms: C3_3  and  O3_17 
REMARK    3  A    between atoms: C4_4  and  C5_5 
REMARK    4  A    between atoms: O3_17  and  C15_18 
REMARK    5  A    between atoms: C15_18  and  C16_19 
REMARK    6  A    between atoms: C19_22  and  N1_23 
ROOT
HETATM    1  C1  UNL     1      46.328  -3.584   6.124  1.00  0.00     0.015 C 
HETATM    2  C2  UNL     1      45.471  -3.597   5.279  1.00  0.00    -0.085 C 
HETATM    3  C3  UNL     1      44.406  -3.626   4.258  1.00  0.00     0.200 C 
ENDROOT
BRANCH   3   4
HETATM    4  C4  UNL     1      45.033  -4.218   3.018  1.00  0.00     0.063 C 
BRANCH   4   5
HETATM    5  C5  UNL     1      44.127  -5.252   2.324  1.00  0.00     0.111 C 
HETATM    6  C6  UNL     1      43.882  -4.795   0.949  1.00  0.00    -0.012 C 
HETATM    7  C7  UNL     1      43.199  -5.622  -0.045  1.00  0.00    -0.007 C 
HETATM    8  C8  UNL     1      42.651  -6.939   0.270  1.00  0.00    -0.027 C 
HETATM    9  C9  UNL     1      43.311  -8.181  -0.140  1.00  0.00     0.027 C 
HETATM   10  C10 UNL     1      44.431  -8.153  -1.111  1.00  0.00     0.006 C 
HETATM   11  C11 UNL     1      45.811  -8.300  -0.501  1.00  0.00     0.032 C 
HETATM   12  C12 UNL     1      46.191  -7.188   0.448  1.00  0.00     0.128 C 
HETATM   13  C13 UNL     1      47.625  -7.537   0.894  1.00  0.00     0.040 C 
HETATM   14  O1  UNL     1      45.392  -7.310   1.555  1.00  0.00    -0.316 OA
HETATM   15  C14 UNL     1      44.875  -6.519   2.488  1.00  0.00     0.267 C 
HETATM   16  O2  UNL     1      45.038  -6.889   3.707  1.00  0.00    -0.265 OA
ENDBRANCH   4   5
ENDBRANCH   3   4
BRANCH   3  17
HETATM   17  O3  UNL     1      44.041  -2.324   4.022  1.00  0.00    -0.371 OA
BRANCH  17  18
HETATM   18  C15 UNL     1      44.765  -1.527   3.230  1.00  0.00     0.201 C 
BRANCH  18  19
HETATM   19  C16 UNL     1      45.469  -0.343   3.751  1.00  0.00     0.148 C 
HETATM   20  C17 UNL     1      45.207   0.139   5.127  1.00  0.00     0.038 C 
HETATM   21  C18 UNL     1      46.201   1.349   5.115  1.00  0.00     0.057 C 
HETATM   22  C19 UNL     1      47.343   0.684   4.390  1.00  0.00     0.232 C 
HETATM   23  O6  UNL     1      46.853  -0.323   3.578  1.00  0.00    -0.359 OA
BRANCH  22  24
HETATM   24  N1  UNL     1      48.075   1.704   3.675  1.00  0.00    -0.282 N 
HETATM   25  C20 UNL     1      47.688   2.986   3.778  1.00  0.00     0.110 A 
HETATM   26  C21 UNL     1      48.372   3.974   3.106  1.00  0.00     0.022 A 
HETATM   27  C22 UNL     1      47.974   5.385   3.198  1.00  0.00     0.056 C 
HETATM   28  C23 UNL     1      49.462   3.656   2.320  1.00  0.00     0.256 A 
HETATM   29  O4  UNL     1      50.081   4.549   1.712  1.00  0.00    -0.267 OA
HETATM   30  N2  UNL     1      49.798   2.354   2.260  1.00  0.00    -0.275 N 
HETATM   31  C24 UNL     1      49.141   1.393   2.906  1.00  0.00     0.331 A 
ATOM     32  H2  UNL     1      50.599   2.088   1.687  1.00  0.00     0.173 HD
HETATM   33  O5  UNL     1      49.480   0.180   2.830  1.00  0.00    -0.246 OA
ENDBRANCH  22  24
ENDBRANCH  18  19
ENDBRANCH  17  18
ENDBRANCH   3  17
TORSDOF 6
ENDMDL
MODEL 5
REMARK VINA RESULT: -9.713243981      3.836      5.407
REMARK  6 active torsions:
REMARK  status: ('A' for Active; 'I' for Inactive)
REMARK    1  A    between atoms: C3_3  and  C4_4 
REMARK    2  A    between atoms: C3_3  and  O3_17 
REMARK    3  A    between atoms: C4_4  and  C5_5 
REMARK    4  A    between atoms: O3_17  and  C15_18 
REMARK    5  A    between atoms: C15_18  and  C16_19 
REMARK    6  A    between atoms: C19_22  and  N1_23 
ROOT
HETATM    1  C1  UNL     1      43.201  -8.446  -0.869  1.00  0.00     0.015 C 
HETATM    2  C2  UNL     1      43.841  -7.939   0.016  1.00  0.00    -0.085 C 
HETATM    3  C3  UNL     1      44.610  -7.326   1.115  1.00  0.00     0.200 C 
ENDROOT
BRANCH   3   4
HETATM    4  C4  UNL     1      44.726  -5.858   0.777  1.00  0.00     0.063 C 
BRANCH   4   5
HETATM    5  C5  UNL     1      44.286  -4.940   1.932  1.00  0.00     0.111 C 
HETATM    6  C6  UNL     1      45.270  -5.071   3.017  1.00  0.00    -0.012 C 
HETATM    7  C7  UNL     1      45.253  -4.212   4.201  1.00  0.00    -0.007 C 
HETATM    8  C8  UNL     1      44.221  -3.204   4.427  1.00  0.00    -0.027 C 
HETATM    9  C9  UNL     1      44.464  -1.774   4.224  1.00  0.00     0.027 C 
HETATM   10  C10 UNL     1      45.843  -1.266   4.025  1.00  0.00     0.006 C 
HETATM   11  C11 UNL     1      46.205  -0.941   2.589  1.00  0.00     0.032 C 
HETATM   12  C12 UNL     1      46.170  -2.129   1.658  1.00  0.00     0.128 C 
HETATM   13  C13 UNL     1      46.608  -1.561   0.293  1.00  0.00     0.040 C 
HETATM   14  O1  UNL     1      44.859  -2.505   1.527  1.00  0.00    -0.316 OA
HETATM   15  C14 UNL     1      44.172  -3.614   1.285  1.00  0.00     0.267 C 
HETATM   16  O2  UNL     1      43.279  -3.546   0.363  1.00  0.00    -0.265 OA
ENDBRANCH   4   5
ENDBRANCH   3   4
BRANCH   3  17
HETATM   17  O3  UNL     1      45.853  -7.907   1.109  1.00  0.00    -0.371 OA
BRANCH  17  18
HETATM   18  C15 UNL     1      46.698  -7.742   0.085  1.00  0.00     0.201 C 
BRANCH  18  19
HETATM   19  C16 UNL     1      48.125  -8.090   0.189  1.00  0.00     0.148 C 
HETATM   20  C17 UNL     1      48.635  -9.344  -0.410  1.00  0.00     0.038 C 
HETATM   21  C18 UNL     1      50.139  -9.167  -0.010  1.00  0.00     0.057 C 
HETATM   22  C19 UNL     1      50.266  -7.691  -0.292  1.00  0.00     0.232 C 
HETATM   23  O6  UNL     1      49.030  -7.085  -0.155  1.00  0.00    -0.359 OA
BRANCH  22  24
HETATM   24  N1  UNL     1      51.279  -7.152   0.584  1.00  0.00    -0.282 N 
HETATM   25  C20 UNL     1      51.080  -7.174   1.912  1.00  0.00     0.110 A 
HETATM   26  C21 UNL     1      52.033  -6.666   2.766  1.00  0.00     0.022 A 
HETATM   27  C22 UNL     1      51.845  -6.675   4.223  1.00  0.00     0.056 C 
HETATM   28  C23 UNL     1      53.202  -6.129   2.265  1.00  0.00     0.256 A 
HETATM   29  O4  UNL     1      54.065  -5.669   3.036  1.00  0.00    -0.267 OA
HETATM   30  N2  UNL     1      53.340  -6.137   0.925  1.00  0.00    -0.275 N 
HETATM   31  C24 UNL     1      52.422  -6.626   0.094  1.00  0.00     0.331 A 
ATOM     32  H2  UNL     1      54.194  -5.748   0.526  1.00  0.00     0.173 HD
HETATM   33  O5  UNL     1      52.581  -6.621  -1.158  1.00  0.00    -0.246 OA
ENDBRANCH  22  24
ENDBRANCH  18  19
ENDBRANCH  17  18
ENDBRANCH   3  17
TORSDOF 6
ENDMDL
