MODEL 1
REMARK VINA RESULT: -5.514552908      0.000      0.000
REMARK  3 active torsions:
REMARK  status: ('A' for Active; 'I' for Inactive)
REMARK    1  A    between atoms: C2_2  and  C3_3 
REMARK    2  A    between atoms: C3_3  and  N1_4 
REMARK    3  A    between atoms: C4_5  and  O1_6 
ROOT
HETATM    1  N1  UNL     1      32.517  12.635  -7.038  1.00  0.00    -0.304 N 
HETATM    2  C4  UNL     1      31.535  12.802  -7.899  1.00  0.00     0.158 A 
HETATM    3  C5  UNL     1      31.268  14.040  -8.524  1.00  0.00     0.055 A 
HETATM    4  C6  UNL     1      30.365  14.150  -9.649  1.00  0.00    -0.062 C 
HETATM    5  C7  UNL     1      29.043  14.833  -9.529  1.00  0.00     0.035 C 
HETATM    6  C8  UNL     1      28.459  13.557 -10.173  1.00  0.00     0.009 C 
HETATM    7  C9  UNL     1      29.886  13.106 -10.547  1.00  0.00     0.035 C 
HETATM    8  C10 UNL     1      32.114  15.058  -8.161  1.00  0.00     0.117 A 
HETATM    9  S1  UNL     1      31.965  16.576  -8.789  1.00  0.00    -0.059 SA
HETATM   10  N2  UNL     1      33.128  14.890  -7.282  1.00  0.00    -0.323 N 
ATOM     11  H2  UNL     1      33.740  15.669  -7.038  1.00  0.00     0.169 HD
HETATM   12  C11 UNL     1      33.312  13.678  -6.737  1.00  0.00     0.181 A 
HETATM   13  S2  UNL     1      34.565  13.510  -5.690  1.00  0.00    -0.040 SA
ENDROOT
BRANCH   2  14
HETATM   14  O1  UNL     1      30.735  11.737  -8.213  1.00  0.00    -0.345 OA
ATOM     15  H1  UNL     1      30.744  11.398  -9.101  1.00  0.00     0.219 HD
ENDBRANCH   2  14
BRANCH   1  16
HETATM   16  C3  UNL     1      32.650  11.397  -6.260  1.00  0.00     0.133 C 
BRANCH  16  17
HETATM   17  C2  UNL     1      31.955  11.471  -4.960  1.00  0.00     0.016 C 
HETATM   18  C1  UNL     1      32.484  10.659  -3.836  1.00  0.00     0.006 C 
ENDBRANCH  16  17
ENDBRANCH   1  16
TORSDOF 3
ENDMDL
MODEL 2
REMARK VINA RESULT: -5.227991856      1.201      5.054
REMARK  3 active torsions:
REMARK  status: ('A' for Active; 'I' for Inactive)
REMARK    1  A    between atoms: C2_2  and  C3_3 
REMARK    2  A    between atoms: C3_3  and  N1_4 
REMARK    3  A    between atoms: C4_5  and  O1_6 
ROOT
HETATM    1  N1  UNL     1      31.367  13.513  -7.498  1.00  0.00    -0.304 N 
HETATM    2  C4  UNL     1      31.746  12.563  -6.668  1.00  0.00     0.158 A 
HETATM    3  C5  UNL     1      33.010  12.557  -6.038  1.00  0.00     0.055 A 
HETATM    4  C6  UNL     1      33.315  11.663  -4.943  1.00  0.00    -0.062 C 
HETATM    5  C7  UNL     1      34.277  10.533  -5.098  1.00  0.00     0.035 C 
HETATM    6  C8  UNL     1      33.162   9.655  -4.490  1.00  0.00     0.009 C 
HETATM    7  C9  UNL     1      32.401  10.931  -4.073  1.00  0.00     0.035 C 
HETATM    8  C10 UNL     1      33.814  13.622  -6.360  1.00  0.00     0.117 A 
HETATM    9  S1  UNL     1      35.325  13.795  -5.720  1.00  0.00    -0.059 SA
HETATM   10  N2  UNL     1      33.427  14.604  -7.207  1.00  0.00    -0.323 N 
ATOM     11  H2  UNL     1      34.049  15.383  -7.421  1.00  0.00     0.169 HD
HETATM   12  C11 UNL     1      32.206  14.531  -7.759  1.00  0.00     0.181 A 
HETATM   13  S2  UNL     1      31.766  15.751  -8.765  1.00  0.00    -0.040 SA
ENDROOT
BRANCH   2  14
HETATM   14  O1  UNL     1      30.886  11.535  -6.393  1.00  0.00    -0.345 OA
ATOM     15  H1  UNL     1      30.850  10.791  -6.983  1.00  0.00     0.219 HD
ENDBRANCH   2  14
BRANCH   1  16
HETATM   16  C3  UNL     1      30.133  13.393  -8.285  1.00  0.00     0.133 C 
BRANCH  16  17
HETATM   17  C2  UNL     1      30.356  12.728  -9.583  1.00  0.00     0.016 C 
HETATM   18  C1  UNL     1      29.590  13.211 -10.759  1.00  0.00     0.006 C 
ENDBRANCH  16  17
ENDBRANCH   1  16
TORSDOF 3
ENDMDL
MODEL 3
REMARK VINA RESULT: -5.097326080      2.922      5.387
REMARK  3 active torsions:
REMARK  status: ('A' for Active; 'I' for Inactive)
REMARK    1  A    between atoms: C2_2  and  C3_3 
REMARK    2  A    between atoms: C3_3  and  N1_4 
REMARK    3  A    between atoms: C4_5  and  O1_6 
ROOT
HETATM    1  N1  UNL     1      28.997  12.848 -10.809  1.00  0.00    -0.304 N 
HETATM    2  C4  UNL     1      29.865  12.780  -9.821  1.00  0.00     0.158 A 
HETATM    3  C5  UNL     1      30.460  13.924  -9.244  1.00  0.00     0.055 A 
HETATM    4  C6  UNL     1      31.203  13.858  -8.005  1.00  0.00    -0.062 C 
HETATM    5  C7  UNL     1      32.682  14.051  -7.966  1.00  0.00     0.035 C 
HETATM    6  C8  UNL     1      32.714  12.735  -7.158  1.00  0.00     0.009 C 
HETATM    7  C9  UNL     1      31.184  12.823  -6.978  1.00  0.00     0.035 C 
HETATM    8  C10 UNL     1      30.062  15.115  -9.798  1.00  0.00     0.117 A 
HETATM    9  S1  UNL     1      30.642  16.561  -9.256  1.00  0.00    -0.059 SA
HETATM   10  N2  UNL     1      29.167  15.191 -10.809  1.00  0.00    -0.323 N 
ATOM     11  H2  UNL     1      28.891  16.095 -11.194  1.00  0.00     0.169 HD
HETATM   12  C11 UNL     1      28.648  14.053 -11.295  1.00  0.00     0.181 A 
HETATM   13  S2  UNL     1      27.551  14.188 -12.508  1.00  0.00    -0.040 SA
ENDROOT
BRANCH   2  14
HETATM   14  O1  UNL     1      30.209  11.554  -9.319  1.00  0.00    -0.345 OA
ATOM     15  H1  UNL     1      29.713  11.195  -8.593  1.00  0.00     0.219 HD
ENDBRANCH   2  14
BRANCH   1  16
HETATM   16  C3  UNL     1      28.546  11.643 -11.515  1.00  0.00     0.133 C 
BRANCH  16  17
HETATM   17  C2  UNL     1      27.395  10.999 -10.851  1.00  0.00     0.016 C 
HETATM   18  C1  UNL     1      26.865   9.741 -11.431  1.00  0.00     0.006 C 
ENDBRANCH  16  17
ENDBRANCH   1  16
TORSDOF 3
ENDMDL
MODEL 4
REMARK VINA RESULT: -5.006650226      3.289      4.649
REMARK  3 active torsions:
REMARK  status: ('A' for Active; 'I' for Inactive)
REMARK    1  A    between atoms: C2_2  and  C3_3 
REMARK    2  A    between atoms: C3_3  and  N1_4 
REMARK    3  A    between atoms: C4_5  and  O1_6 
ROOT
HETATM    1  N1  UNL     1      30.242  13.397  -9.962  1.00  0.00    -0.304 N 
HETATM    2  C4  UNL     1      29.715  12.328 -10.523  1.00  0.00     0.158 A 
HETATM    3  C5  UNL     1      28.446  12.336 -11.143  1.00  0.00     0.055 A 
HETATM    4  C6  UNL     1      27.994  11.242 -11.974  1.00  0.00    -0.062 C 
HETATM    5  C7  UNL     1      26.891  10.334 -11.543  1.00  0.00     0.035 C 
HETATM    6  C8  UNL     1      27.860   9.184 -11.894  1.00  0.00     0.009 C 
HETATM    7  C9  UNL     1      28.776  10.193 -12.617  1.00  0.00     0.035 C 
HETATM    8  C10 UNL     1      27.804  13.549 -11.114  1.00  0.00     0.117 A 
HETATM    9  S1  UNL     1      26.314  13.759 -11.791  1.00  0.00    -0.059 SA
HETATM   10  N2  UNL     1      28.343  14.651 -10.544  1.00  0.00    -0.323 N 
ATOM     11  H2  UNL     1      27.838  15.537 -10.543  1.00  0.00     0.169 HD
HETATM   12  C11 UNL     1      29.556  14.554  -9.979  1.00  0.00     0.181 A 
HETATM   13  S2  UNL     1      30.185  15.918  -9.316  1.00  0.00    -0.040 SA
ENDROOT
BRANCH   2  14
HETATM   14  O1  UNL     1      30.419  11.155 -10.516  1.00  0.00    -0.345 OA
ATOM     15  H1  UNL     1      30.310  10.545 -11.236  1.00  0.00     0.219 HD
ENDBRANCH   2  14
BRANCH   1  16
HETATM   16  C3  UNL     1      31.468  13.313  -9.158  1.00  0.00     0.133 C 
BRANCH  16  17
HETATM   17  C2  UNL     1      31.192  13.014  -7.740  1.00  0.00     0.016 C 
HETATM   18  C1  UNL     1      32.330  12.621  -6.872  1.00  0.00     0.006 C 
ENDBRANCH  16  17
ENDBRANCH   1  16
TORSDOF 3
ENDMDL
MODEL 5
REMARK VINA RESULT: -4.916028440      3.546      5.220
REMARK  3 active torsions:
REMARK  status: ('A' for Active; 'I' for Inactive)
REMARK    1  A    between atoms: C2_2  and  C3_3 
REMARK    2  A    between atoms: C3_3  and  N1_4 
REMARK    3  A    between atoms: C4_5  and  O1_6 
ROOT
HETATM    1  N1  UNL     1      29.557  13.853  -9.697  1.00  0.00    -0.304 N 
HETATM    2  C4  UNL     1      28.684  13.673 -10.666  1.00  0.00     0.158 A 
HETATM    3  C5  UNL     1      28.740  12.576 -11.553  1.00  0.00     0.055 A 
HETATM    4  C6  UNL     1      27.643  12.250 -12.438  1.00  0.00    -0.062 C 
HETATM    5  C7  UNL     1      27.748  12.426 -13.915  1.00  0.00     0.035 C 
HETATM    6  C8  UNL     1      26.414  13.194 -13.800  1.00  0.00     0.009 C 
HETATM    7  C9  UNL     1      26.247  12.665 -12.361  1.00  0.00     0.035 C 
HETATM    8  C10 UNL     1      29.780  11.710 -11.325  1.00  0.00     0.117 A 
HETATM    9  S1  UNL     1      30.010  10.365 -12.253  1.00  0.00    -0.059 SA
HETATM   10  N2  UNL     1      30.676  11.886 -10.327  1.00  0.00    -0.323 N 
ATOM     11  H2  UNL     1      31.435  11.220 -10.185  1.00  0.00     0.169 HD
HETATM   12  C11 UNL     1      30.546  12.956  -9.528  1.00  0.00     0.181 A 
HETATM   13  S2  UNL     1      31.640  13.124  -8.317  1.00  0.00    -0.040 SA
ENDROOT
BRANCH   2  14
HETATM   14  O1  UNL     1      27.671  14.579 -10.828  1.00  0.00    -0.345 OA
ATOM     15  H1  UNL     1      27.874  15.507 -10.814  1.00  0.00     0.219 HD
ENDBRANCH   2  14
BRANCH   1  16
HETATM   16  C3  UNL     1      29.590  15.097  -8.918  1.00  0.00     0.133 C 
BRANCH  16  17
HETATM   17  C2  UNL     1      30.239  16.202  -9.650  1.00  0.00     0.016 C 
HETATM   18  C1  UNL     1      31.488  16.776  -9.090  1.00  0.00     0.006 C 
ENDBRANCH  16  17
ENDBRANCH   1  16
TORSDOF 3
ENDMDL
