MODEL 1
REMARK VINA RESULT: -4.286022524      0.000      0.000
REMARK  2 active torsions:
REMARK  status: ('A' for Active; 'I' for Inactive)
REMARK    1  A    between atoms: C1_2  and  C2_3 
REMARK    2  A    between atoms: C2_3  and  N1_4 
ROOT
HETATM    1  N1  UNL     1      50.760  33.575   3.570  1.00  0.00     0.089 N 
HETATM    2  C3  UNL     1      49.785  33.138   4.562  1.00  0.00     0.272 C 
HETATM    3  C4  UNL     1      49.365  31.703   4.394  1.00  0.00     0.030 C 
HETATM    4  C5  UNL     1      48.970  31.510   2.941  1.00  0.00     0.003 C 
HETATM    5  C6  UNL     1      50.230  31.694   2.131  1.00  0.00     0.030 C 
HETATM    6  C7  UNL     1      51.316  32.370   2.901  1.00  0.00     0.272 C 
ENDROOT
BRANCH   1   7
HETATM    7  C2  UNL     1      51.820  34.200   4.332  1.00  0.00     0.283 C 
BRANCH   7   8
HETATM    8  C1  UNL     1      51.366  35.251   5.303  1.00  0.00     0.116 C 
HETATM    9  S1  UNL     1      52.301  34.947   6.861  1.00  0.00    -0.096 SA
ENDBRANCH   7   8
ENDBRANCH   1   7
TORSDOF 2
ENDMDL
MODEL 2
REMARK VINA RESULT: -4.120546926      2.511      3.846
REMARK  2 active torsions:
REMARK  status: ('A' for Active; 'I' for Inactive)
REMARK    1  A    between atoms: C1_2  and  C2_3 
REMARK    2  A    between atoms: C2_3  and  N1_4 
ROOT
HETATM    1  N1  UNL     1      50.465  32.330   3.777  1.00  0.00     0.089 N 
HETATM    2  C3  UNL     1      49.822  33.306   4.648  1.00  0.00     0.272 C 
HETATM    3  C4  UNL     1      50.413  34.685   4.535  1.00  0.00     0.030 C 
HETATM    4  C5  UNL     1      51.918  34.551   4.681  1.00  0.00     0.003 C 
HETATM    5  C6  UNL     1      52.392  33.774   3.478  1.00  0.00     0.030 C 
HETATM    6  C7  UNL     1      51.281  33.064   2.776  1.00  0.00     0.272 C 
ENDROOT
BRANCH   1   7
HETATM    7  C2  UNL     1      49.379  31.672   3.081  1.00  0.00     0.283 C 
BRANCH   7   8
HETATM    8  C1  UNL     1      48.057  31.709   3.791  1.00  0.00     0.116 C 
HETATM    9  S1  UNL     1      47.832  30.042   4.541  1.00  0.00    -0.096 SA
ENDBRANCH   7   8
ENDBRANCH   1   7
TORSDOF 2
ENDMDL
MODEL 3
REMARK VINA RESULT: -4.083622690      1.450      2.420
REMARK  2 active torsions:
REMARK  status: ('A' for Active; 'I' for Inactive)
REMARK    1  A    between atoms: C1_2  and  C2_3 
REMARK    2  A    between atoms: C2_3  and  N1_4 
ROOT
HETATM    1  N1  UNL     1      51.559  34.040   4.993  1.00  0.00     0.089 N 
HETATM    2  C3  UNL     1      52.417  34.135   3.818  1.00  0.00     0.272 C 
HETATM    3  C4  UNL     1      51.757  33.645   2.558  1.00  0.00     0.030 C 
HETATM    4  C5  UNL     1      51.176  32.274   2.849  1.00  0.00     0.003 C 
HETATM    5  C6  UNL     1      50.078  32.486   3.863  1.00  0.00     0.030 C 
HETATM    6  C7  UNL     1      50.164  33.817   4.535  1.00  0.00     0.272 C 
ENDROOT
BRANCH   1   7
HETATM    7  C2  UNL     1      51.628  35.345   5.617  1.00  0.00     0.283 C 
BRANCH   7   8
HETATM    8  C1  UNL     1      50.348  36.129   5.586  1.00  0.00     0.116 C 
HETATM    9  S1  UNL     1      50.147  36.847   7.270  1.00  0.00    -0.096 SA
ENDBRANCH   7   8
ENDBRANCH   1   7
TORSDOF 2
ENDMDL
MODEL 4
REMARK VINA RESULT: -4.065141361      2.598      3.410
REMARK  2 active torsions:
REMARK  status: ('A' for Active; 'I' for Inactive)
REMARK    1  A    between atoms: C1_2  and  C2_3 
REMARK    2  A    between atoms: C2_3  and  N1_4 
ROOT
HETATM    1  N1  UNL     1      48.399  31.940   4.498  1.00  0.00     0.089 N 
HETATM    2  C3  UNL     1      48.482  30.738   5.320  1.00  0.00     0.272 C 
HETATM    3  C4  UNL     1      47.391  29.743   5.032  1.00  0.00     0.030 C 
HETATM    4  C5  UNL     1      46.070  30.489   5.073  1.00  0.00     0.003 C 
HETATM    5  C6  UNL     1      46.094  31.456   3.916  1.00  0.00     0.030 C 
HETATM    6  C7  UNL     1      47.468  31.671   3.372  1.00  0.00     0.272 C 
ENDROOT
BRANCH   1   7
HETATM    7  C2  UNL     1      49.729  32.118   3.954  1.00  0.00     0.283 C 
BRANCH   7   8
HETATM    8  C1  UNL     1      50.416  33.388   4.364  1.00  0.00     0.116 C 
HETATM    9  S1  UNL     1      51.828  33.606   3.201  1.00  0.00    -0.096 SA
ENDBRANCH   7   8
ENDBRANCH   1   7
TORSDOF 2
ENDMDL
MODEL 5
REMARK VINA RESULT: -4.063605191      2.901      4.332
REMARK  2 active torsions:
REMARK  status: ('A' for Active; 'I' for Inactive)
REMARK    1  A    between atoms: C1_2  and  C2_3 
REMARK    2  A    between atoms: C2_3  and  N1_4 
ROOT
HETATM    1  N1  UNL     1      48.952  31.854   3.187  1.00  0.00     0.089 N 
HETATM    2  C3  UNL     1      50.000  31.647   2.195  1.00  0.00     0.272 C 
HETATM    3  C4  UNL     1      51.356  32.106   2.657  1.00  0.00     0.030 C 
HETATM    4  C5  UNL     1      51.206  33.522   3.183  1.00  0.00     0.003 C 
HETATM    5  C6  UNL     1      50.335  33.427   4.411  1.00  0.00     0.030 C 
HETATM    6  C7  UNL     1      49.597  32.132   4.496  1.00  0.00     0.272 C 
ENDROOT
BRANCH   1   7
HETATM    7  C2  UNL     1      48.265  30.583   3.281  1.00  0.00     0.283 C 
BRANCH   7   8
HETATM    8  C1  UNL     1      48.054  30.080   4.679  1.00  0.00     0.116 C 
HETATM    9  S1  UNL     1      46.292  30.426   5.089  1.00  0.00    -0.096 SA
ENDBRANCH   7   8
ENDBRANCH   1   7
TORSDOF 2
ENDMDL
