MODEL 1
REMARK VINA RESULT: -7.684284908      0.000      0.000
REMARK  5 active torsions:
REMARK  status: ('A' for Active; 'I' for Inactive)
REMARK    1  A    between atoms: N3_4  and  N4_6 
REMARK    2  A    between atoms: C2_8  and  C3_9 
REMARK    3  A    between atoms: C6_12  and  O1_13 
REMARK    4  A    between atoms: O1_13  and  C7_14 
REMARK    5  A    between atoms: C7_14  and  C8_15 
ROOT
HETATM    1  C3  UNL     1       8.066 -15.983  24.363  1.00  0.00    -0.019 A 
HETATM    2  C4  UNL     1       8.889 -16.113  25.461  1.00  0.00     0.015 A 
HETATM    3  C5  UNL     1      10.004 -15.310  25.626  1.00  0.00     0.037 A 
HETATM    4  C6  UNL     1      10.360 -14.342  24.717  1.00  0.00     0.069 A 
HETATM    5  C12 UNL     1       9.526 -14.204  23.595  1.00  0.00     0.037 A 
HETATM    6  C13 UNL     1       8.428 -15.008  23.451  1.00  0.00     0.015 A 
ENDROOT
BRANCH   1   7
HETATM    7  C2  UNL     1       6.892 -16.813  24.170  1.00  0.00     0.118 C 
HETATM    8  N4  UNL     1       6.265 -16.786  23.054  1.00  0.00    -0.309 N 
ATOM      9  H4  UNL     1       6.617 -16.169  22.322  1.00  0.00     0.186 HD
BRANCH   8  10
HETATM   10  N3  UNL     1       5.145 -17.536  22.782  1.00  0.00    -0.276 N 
HETATM   11  C1  UNL     1       4.283 -17.148  21.923  1.00  0.00     0.215 C 
HETATM   12  N1  UNL     1       4.470 -15.927  21.233  1.00  0.00    -0.065 NA
HETATM   13  N2  UNL     1       3.151 -17.977  21.694  1.00  0.00    -0.065 NA
ATOM     14  H3  UNL     1       5.000 -18.418  23.275  1.00  0.00     0.189 HD
ENDBRANCH   8  10
ENDBRANCH   1   7
BRANCH   4  15
HETATM   15  O1  UNL     1      11.460 -13.537  24.864  1.00  0.00    -0.345 OA
BRANCH  15  16
HETATM   16  C7  UNL     1      11.708 -12.410  24.105  1.00  0.00     0.232 C 
BRANCH  16  17
HETATM   17  C8  UNL     1      12.709 -12.577  23.023  1.00  0.00     0.033 A 
HETATM   18  C9  UNL     1      12.687 -13.446  21.936  1.00  0.00     0.028 A 
HETATM   19  C10 UNL     1      13.817 -13.249  21.203  1.00  0.00     0.019 A 
HETATM   20  C11 UNL     1      14.538 -12.267  21.827  1.00  0.00     0.088 A 
HETATM   21  N5  UNL     1      13.852 -11.886  22.908  1.00  0.00    -0.367 N 
ATOM     22  H5  UNL     1      14.157 -11.164  23.561  1.00  0.00     0.165 HD
ENDBRANCH  16  17
ENDBRANCH  15  16
ENDBRANCH   4  15
TORSDOF 5
ENDMDL
MODEL 2
REMARK VINA RESULT: -7.567289740      1.006      1.198
REMARK  5 active torsions:
REMARK  status: ('A' for Active; 'I' for Inactive)
REMARK    1  A    between atoms: N3_4  and  N4_6 
REMARK    2  A    between atoms: C2_8  and  C3_9 
REMARK    3  A    between atoms: C6_12  and  O1_13 
REMARK    4  A    between atoms: O1_13  and  C7_14 
REMARK    5  A    between atoms: C7_14  and  C8_15 
ROOT
HETATM    1  C3  UNL     1       8.529 -15.925  24.419  1.00  0.00    -0.019 A 
HETATM    2  C4  UNL     1       9.106 -15.643  25.639  1.00  0.00     0.015 A 
HETATM    3  C5  UNL     1      10.301 -14.952  25.730  1.00  0.00     0.037 A 
HETATM    4  C6  UNL     1      10.984 -14.507  24.623  1.00  0.00     0.069 A 
HETATM    5  C12 UNL     1      10.403 -14.790  23.376  1.00  0.00     0.037 A 
HETATM    6  C13 UNL     1       9.220 -15.475  23.309  1.00  0.00     0.015 A 
ENDROOT
BRANCH   1   7
HETATM    7  C2  UNL     1       7.277 -16.647  24.301  1.00  0.00     0.118 C 
HETATM    8  N4  UNL     1       6.674 -16.703  23.172  1.00  0.00    -0.309 N 
ATOM      9  H4  UNL     1       7.102 -16.229  22.377  1.00  0.00     0.186 HD
BRANCH   8  10
HETATM   10  N3  UNL     1       5.485 -17.363  22.967  1.00  0.00    -0.276 N 
HETATM   11  C1  UNL     1       4.711 -17.043  22.002  1.00  0.00     0.215 C 
HETATM   12  N1  UNL     1       5.070 -15.994  21.123  1.00  0.00    -0.065 NA
HETATM   13  N2  UNL     1       3.499 -17.770  21.852  1.00  0.00    -0.065 NA
ATOM     14  H3  UNL     1       5.216 -18.120  23.595  1.00  0.00     0.189 HD
ENDBRANCH   8  10
ENDBRANCH   1   7
BRANCH   4  15
HETATM   15  O1  UNL     1      12.169 -13.820  24.693  1.00  0.00    -0.345 OA
BRANCH  15  16
HETATM   16  C7  UNL     1      13.066 -13.705  23.650  1.00  0.00     0.232 C 
BRANCH  16  17
HETATM   17  C8  UNL     1      13.134 -12.369  23.010  1.00  0.00     0.033 A 
HETATM   18  C9  UNL     1      12.095 -11.553  22.571  1.00  0.00     0.028 A 
HETATM   19  C10 UNL     1      12.629 -10.416  22.048  1.00  0.00     0.019 A 
HETATM   20  C11 UNL     1      13.991 -10.520  22.159  1.00  0.00     0.088 A 
HETATM   21  N5  UNL     1      14.261 -11.695  22.736  1.00  0.00    -0.367 N 
ATOM     22  H5  UNL     1      15.200 -12.034  22.942  1.00  0.00     0.165 HD
ENDBRANCH  16  17
ENDBRANCH  15  16
ENDBRANCH   4  15
TORSDOF 5
ENDMDL
MODEL 3
REMARK VINA RESULT: -7.545797017      0.047      1.079
REMARK  5 active torsions:
REMARK  status: ('A' for Active; 'I' for Inactive)
REMARK    1  A    between atoms: N3_4  and  N4_6 
REMARK    2  A    between atoms: C2_8  and  C3_9 
REMARK    3  A    between atoms: C6_12  and  O1_13 
REMARK    4  A    between atoms: O1_13  and  C7_14 
REMARK    5  A    between atoms: C7_14  and  C8_15 
ROOT
HETATM    1  C3  UNL     1       8.048 -15.970  24.322  1.00  0.00    -0.019 A 
HETATM    2  C4  UNL     1       8.400 -15.003  23.405  1.00  0.00     0.015 A 
HETATM    3  C5  UNL     1       9.519 -14.210  23.586  1.00  0.00     0.037 A 
HETATM    4  C6  UNL     1      10.343 -14.331  24.679  1.00  0.00     0.069 A 
HETATM    5  C12 UNL     1       9.991 -15.314  25.619  1.00  0.00     0.037 A 
HETATM    6  C13 UNL     1       8.880 -16.088  25.421  1.00  0.00     0.015 A 
ENDROOT
BRANCH   1   7
HETATM    7  C2  UNL     1       6.880 -16.813  24.152  1.00  0.00     0.118 C 
HETATM    8  N4  UNL     1       6.238 -16.801  23.044  1.00  0.00    -0.309 N 
ATOM      9  H4  UNL     1       6.576 -16.188  22.302  1.00  0.00     0.186 HD
BRANCH   8  10
HETATM   10  N3  UNL     1       5.122 -17.565  22.792  1.00  0.00    -0.276 N 
HETATM   11  C1  UNL     1       4.251 -17.197  21.933  1.00  0.00     0.215 C 
HETATM   12  N1  UNL     1       4.423 -15.986  21.223  1.00  0.00    -0.065 NA
HETATM   13  N2  UNL     1       3.124 -18.039  21.726  1.00  0.00    -0.065 NA
ATOM     14  H3  UNL     1       4.988 -18.439  23.300  1.00  0.00     0.189 HD
ENDBRANCH   8  10
ENDBRANCH   1   7
BRANCH   4  15
HETATM   15  O1  UNL     1      11.457 -13.555  24.876  1.00  0.00    -0.345 OA
BRANCH  15  16
HETATM   16  C7  UNL     1      11.753 -12.419  24.151  1.00  0.00     0.232 C 
BRANCH  16  17
HETATM   17  C8  UNL     1      12.734 -12.600  23.053  1.00  0.00     0.033 A 
HETATM   18  C9  UNL     1      12.686 -13.473  21.970  1.00  0.00     0.028 A 
HETATM   19  C10 UNL     1      13.805 -13.291  21.217  1.00  0.00     0.019 A 
HETATM   20  C11 UNL     1      14.546 -12.311  21.824  1.00  0.00     0.088 A 
HETATM   21  N5  UNL     1      13.881 -11.920  22.915  1.00  0.00    -0.367 N 
ATOM     22  H5  UNL     1      14.204 -11.197  23.559  1.00  0.00     0.165 HD
ENDBRANCH  16  17
ENDBRANCH  15  16
ENDBRANCH   4  15
TORSDOF 5
ENDMDL
MODEL 4
REMARK VINA RESULT: -6.987885874      1.544      1.971
REMARK  5 active torsions:
REMARK  status: ('A' for Active; 'I' for Inactive)
REMARK    1  A    between atoms: N3_4  and  N4_6 
REMARK    2  A    between atoms: C2_8  and  C3_9 
REMARK    3  A    between atoms: C6_12  and  O1_13 
REMARK    4  A    between atoms: O1_13  and  C7_14 
REMARK    5  A    between atoms: C7_14  and  C8_15 
ROOT
HETATM    1  C3  UNL     1       8.668 -15.890  24.389  1.00  0.00    -0.019 A 
HETATM    2  C4  UNL     1       9.164 -15.436  25.592  1.00  0.00     0.015 A 
HETATM    3  C5  UNL     1      10.362 -14.748  25.665  1.00  0.00     0.037 A 
HETATM    4  C6  UNL     1      11.127 -14.476  24.556  1.00  0.00     0.069 A 
HETATM    5  C12 UNL     1      10.628 -14.936  23.326  1.00  0.00     0.037 A 
HETATM    6  C13 UNL     1       9.441 -15.614  23.276  1.00  0.00     0.015 A 
ENDROOT
BRANCH   1   7
HETATM    7  C2  UNL     1       7.414 -16.613  24.290  1.00  0.00     0.118 C 
HETATM    8  N4  UNL     1       6.772 -16.633  23.182  1.00  0.00    -0.309 N 
ATOM      9  H4  UNL     1       7.172 -16.131  22.389  1.00  0.00     0.186 HD
BRANCH   8  10
HETATM   10  N3  UNL     1       5.578 -17.290  22.995  1.00  0.00    -0.276 N 
HETATM   11  C1  UNL     1       4.825 -17.019  22.000  1.00  0.00     0.215 C 
HETATM   12  N1  UNL     1       5.211 -16.027  21.068  1.00  0.00    -0.065 NA
HETATM   13  N2  UNL     1       3.606 -17.739  21.872  1.00  0.00    -0.065 NA
ATOM     14  H3  UNL     1       5.290 -18.006  23.662  1.00  0.00     0.189 HD
ENDBRANCH   8  10
ENDBRANCH   1   7
BRANCH   4  15
HETATM   15  O1  UNL     1      12.317 -13.795  24.608  1.00  0.00    -0.345 OA
BRANCH  15  16
HETATM   16  C7  UNL     1      12.633 -12.715  23.807  1.00  0.00     0.232 C 
BRANCH  16  17
HETATM   17  C8  UNL     1      11.486 -12.073  23.120  1.00  0.00     0.033 A 
HETATM   18  C9  UNL     1      11.295 -11.844  21.760  1.00  0.00     0.028 A 
HETATM   19  C10 UNL     1      10.095 -11.225  21.590  1.00  0.00     0.019 A 
HETATM   20  C11 UNL     1       9.540 -11.069  22.833  1.00  0.00     0.088 A 
HETATM   21  N5  UNL     1      10.393 -11.584  23.724  1.00  0.00    -0.367 N 
ATOM     22  H5  UNL     1      10.233 -11.603  24.731  1.00  0.00     0.165 HD
ENDBRANCH  16  17
ENDBRANCH  15  16
ENDBRANCH   4  15
TORSDOF 5
ENDMDL
MODEL 5
REMARK VINA RESULT: -6.608552143      2.114      8.422
REMARK  5 active torsions:
REMARK  status: ('A' for Active; 'I' for Inactive)
REMARK    1  A    between atoms: N3_4  and  N4_6 
REMARK    2  A    between atoms: C2_8  and  C3_9 
REMARK    3  A    between atoms: C6_12  and  O1_13 
REMARK    4  A    between atoms: O1_13  and  C7_14 
REMARK    5  A    between atoms: C7_14  and  C8_15 
ROOT
HETATM    1  C3  UNL     1       9.827 -14.969  24.653  1.00  0.00    -0.019 A 
HETATM    2  C4  UNL     1       9.314 -15.954  25.471  1.00  0.00     0.015 A 
HETATM    3  C5  UNL     1       8.178 -16.661  25.121  1.00  0.00     0.037 A 
HETATM    4  C6  UNL     1       7.494 -16.433  23.951  1.00  0.00     0.069 A 
HETATM    5  C12 UNL     1       8.011 -15.431  23.112  1.00  0.00     0.037 A 
HETATM    6  C13 UNL     1       9.136 -14.743  23.477  1.00  0.00     0.015 A 
ENDROOT
BRANCH   1   7
HETATM    7  C2  UNL     1      11.017 -14.216  25.000  1.00  0.00     0.118 C 
HETATM    8  N4  UNL     1      11.815 -13.820  24.079  1.00  0.00    -0.309 N 
ATOM      9  H4  UNL     1      11.583 -14.051  23.113  1.00  0.00     0.186 HD
BRANCH   8  10
HETATM   10  N3  UNL     1      12.964 -13.101  24.313  1.00  0.00    -0.276 N 
HETATM   11  C1  UNL     1      13.793 -12.858  23.372  1.00  0.00     0.215 C 
HETATM   12  N1  UNL     1      13.538 -13.331  22.063  1.00  0.00    -0.065 NA
HETATM   13  N2  UNL     1      14.959 -12.109  23.689  1.00  0.00    -0.065 NA
ATOM     14  H3  UNL     1      13.158 -12.757  25.253  1.00  0.00     0.189 HD
ENDBRANCH   8  10
ENDBRANCH   1   7
BRANCH   4  15
HETATM   15  O1  UNL     1       6.368 -17.125  23.586  1.00  0.00    -0.345 OA
BRANCH  15  16
HETATM   16  C7  UNL     1       5.587 -16.822  22.489  1.00  0.00     0.232 C 
BRANCH  16  17
HETATM   17  C8  UNL     1       4.180 -17.287  22.559  1.00  0.00     0.033 A 
HETATM   18  C9  UNL     1       3.220 -17.034  23.534  1.00  0.00     0.028 A 
HETATM   19  C10 UNL     1       2.068 -17.666  23.181  1.00  0.00     0.019 A 
HETATM   20  C11 UNL     1       2.305 -18.308  21.995  1.00  0.00     0.088 A 
HETATM   21  N5  UNL     1       3.573 -18.063  21.650  1.00  0.00    -0.367 N 
ATOM     22  H5  UNL     1       4.019 -18.420  20.805  1.00  0.00     0.165 HD
ENDBRANCH  16  17
ENDBRANCH  15  16
ENDBRANCH   4  15
TORSDOF 5
ENDMDL
