MODEL 1
REMARK VINA RESULT: -4.777806275      0.000      0.000
REMARK  8 active torsions:
REMARK  status: ('A' for Active; 'I' for Inactive)
REMARK    1  A    between atoms: C4_5  and  O1_6 
REMARK    2  A    between atoms: C5_8  and  O2_9 
REMARK    3  A    between atoms: C5_8  and  C6_11 
REMARK    4  A    between atoms: C7_12  and  C8_13 
REMARK    5  A    between atoms: C8_13  and  O3_14 
REMARK    6  A    between atoms: O3_14  and  C9_15 
REMARK    7  A    between atoms: C9_15  and  C10_16 
REMARK    8  A    between atoms: C10_16  and  O4_17 
ROOT
HETATM    1  C1  UNL     1      21.438  16.069  59.201  1.00  0.00     0.272 C 
HETATM    2  N1  UNL     1      21.225  15.001  58.269  1.00  0.00    -0.068 N 
HETATM    3  C2  UNL     1      19.875  14.505  58.287  1.00  0.00     0.272 C 
HETATM    4  C3  UNL     1      21.548  15.366  56.903  1.00  0.00     0.272 C 
HETATM    5  C4  UNL     1      21.659  14.005  56.211  1.00  0.00     0.192 C 
HETATM    6  C5  UNL     1      22.366  13.194  57.257  1.00  0.00     0.172 C 
HETATM    7  C11 UNL     1      22.203  13.967  58.547  1.00  0.00     0.290 C 
ENDROOT
BRANCH   6   8
HETATM    8  O2  UNL     1      23.709  13.004  56.996  1.00  0.00    -0.373 OA
ATOM      9  H2  UNL     1      24.202  12.695  57.747  1.00  0.00     0.212 HD
ENDBRANCH   6   8
BRANCH   6  10
HETATM   10  C6  UNL     1      21.642  11.915  57.380  1.00  0.00    -0.061 C 
HETATM   11  C7  UNL     1      21.034  10.877  57.472  1.00  0.00    -0.077 C 
BRANCH  11  12
HETATM   12  C8  UNL     1      20.270   9.613  57.573  1.00  0.00     0.261 C 
BRANCH  12  13
HETATM   13  O3  UNL     1      18.988   9.880  57.159  1.00  0.00    -0.377 OA
BRANCH  13  14
HETATM   14  C9  UNL     1      18.200  10.399  58.178  1.00  0.00     0.194 C 
BRANCH  14  15
HETATM   15  C10 UNL     1      17.430  11.622  57.757  1.00  0.00     0.190 C 
BRANCH  15  16
HETATM   16  O4  UNL     1      17.853  12.129  56.539  1.00  0.00    -0.399 OA
ATOM     17  H4  UNL     1      17.510  12.998  56.363  1.00  0.00     0.209 HD
ENDBRANCH  15  16
ENDBRANCH  14  15
ENDBRANCH  13  14
ENDBRANCH  12  13
ENDBRANCH  11  12
ENDBRANCH   6  10
BRANCH   5  18
HETATM   18  O1  UNL     1      22.536  14.175  55.142  1.00  0.00    -0.390 OA
ATOM     19  H1  UNL     1      22.402  13.435  54.563  1.00  0.00     0.210 HD
ENDBRANCH   5  18
TORSDOF 8
ENDMDL
MODEL 2
REMARK VINA RESULT: -4.743071136      2.166      5.143
REMARK  8 active torsions:
REMARK  status: ('A' for Active; 'I' for Inactive)
REMARK    1  A    between atoms: C4_5  and  O1_6 
REMARK    2  A    between atoms: C5_8  and  O2_9 
REMARK    3  A    between atoms: C5_8  and  C6_11 
REMARK    4  A    between atoms: C7_12  and  C8_13 
REMARK    5  A    between atoms: C8_13  and  O3_14 
REMARK    6  A    between atoms: O3_14  and  C9_15 
REMARK    7  A    between atoms: C9_15  and  C10_16 
REMARK    8  A    between atoms: C10_16  and  O4_17 
ROOT
HETATM    1  C1  UNL     1      16.222  11.815  57.705  1.00  0.00     0.272 C 
HETATM    2  N1  UNL     1      17.603  11.561  57.995  1.00  0.00    -0.068 N 
HETATM    3  C2  UNL     1      18.167  12.519  58.907  1.00  0.00     0.272 C 
HETATM    4  C3  UNL     1      17.835  10.237  58.540  1.00  0.00     0.272 C 
HETATM    5  C4  UNL     1      19.344  10.059  58.356  1.00  0.00     0.192 C 
HETATM    6  C5  UNL     1      19.554  10.669  57.001  1.00  0.00     0.172 C 
HETATM    7  C11 UNL     1      18.319  11.501  56.736  1.00  0.00     0.290 C 
ENDROOT
BRANCH   6   8
HETATM    8  O2  UNL     1      19.711   9.737  55.993  1.00  0.00    -0.373 OA
ATOM      9  H2  UNL     1      19.918  10.121  55.149  1.00  0.00     0.212 HD
ENDBRANCH   6   8
BRANCH   6  10
HETATM   10  C6  UNL     1      20.716  11.570  57.103  1.00  0.00    -0.061 C 
HETATM   11  C7  UNL     1      21.655  12.324  57.185  1.00  0.00    -0.077 C 
BRANCH  11  12
HETATM   12  C8  UNL     1      22.792  13.267  57.284  1.00  0.00     0.261 C 
BRANCH  12  13
HETATM   13  O3  UNL     1      22.489  14.163  58.280  1.00  0.00    -0.377 OA
BRANCH  13  14
HETATM   14  C9  UNL     1      21.523  15.081  57.890  1.00  0.00     0.194 C 
BRANCH  14  15
HETATM   15  C10 UNL     1      21.448  16.276  58.804  1.00  0.00     0.190 C 
BRANCH  15  16
HETATM   16  O4  UNL     1      20.368  16.222  59.669  1.00  0.00    -0.399 OA
ATOM     17  H4  UNL     1      20.249  17.027  60.159  1.00  0.00     0.209 HD
ENDBRANCH  15  16
ENDBRANCH  14  15
ENDBRANCH  13  14
ENDBRANCH  12  13
ENDBRANCH  11  12
ENDBRANCH   6  10
BRANCH   5  18
HETATM   18  O1  UNL     1      19.570   8.689  58.244  1.00  0.00    -0.390 OA
ATOM     19  H1  UNL     1      20.423   8.524  58.629  1.00  0.00     0.210 HD
ENDBRANCH   5  18
TORSDOF 8
ENDMDL
MODEL 3
REMARK VINA RESULT: -4.592731423      1.972      5.272
REMARK  8 active torsions:
REMARK  status: ('A' for Active; 'I' for Inactive)
REMARK    1  A    between atoms: C4_5  and  O1_6 
REMARK    2  A    between atoms: C5_8  and  O2_9 
REMARK    3  A    between atoms: C5_8  and  C6_11 
REMARK    4  A    between atoms: C7_12  and  C8_13 
REMARK    5  A    between atoms: C8_13  and  O3_14 
REMARK    6  A    between atoms: O3_14  and  C9_15 
REMARK    7  A    between atoms: C9_15  and  C10_16 
REMARK    8  A    between atoms: C10_16  and  O4_17 
ROOT
HETATM    1  C1  UNL     1      19.557   8.801  58.021  1.00  0.00     0.272 C 
HETATM    2  N1  UNL     1      19.717  10.146  57.550  1.00  0.00    -0.068 N 
HETATM    3  C2  UNL     1      21.078  10.606  57.626  1.00  0.00     0.272 C 
HETATM    4  C3  UNL     1      19.261  10.329  56.185  1.00  0.00     0.272 C 
HETATM    5  C4  UNL     1      19.129  11.850  56.078  1.00  0.00     0.192 C 
HETATM    6  C5  UNL     1      18.545  12.195  57.416  1.00  0.00     0.172 C 
HETATM    7  C11 UNL     1      18.801  10.990  58.293  1.00  0.00     0.290 C 
ENDROOT
BRANCH   6   8
HETATM    8  O2  UNL     1      17.191  12.462  57.377  1.00  0.00    -0.373 OA
ATOM      9  H2  UNL     1      16.741  12.046  56.651  1.00  0.00     0.212 HD
ENDBRANCH   6   8
BRANCH   6  10
HETATM   10  C6  UNL     1      19.316  13.335  57.947  1.00  0.00    -0.061 C 
HETATM   11  C7  UNL     1      19.948  14.275  58.363  1.00  0.00    -0.077 C 
BRANCH  11  12
HETATM   12  C8  UNL     1      20.723  15.437  58.852  1.00  0.00     0.261 C 
BRANCH  12  13
HETATM   13  O3  UNL     1      21.983  15.339  58.314  1.00  0.00    -0.377 OA
BRANCH  13  14
HETATM   14  C9  UNL     1      21.975  14.770  57.047  1.00  0.00     0.194 C 
BRANCH  14  15
HETATM   15  C10 UNL     1      22.784  13.503  56.969  1.00  0.00     0.190 C 
BRANCH  15  16
HETATM   16  O4  UNL     1      23.361  13.160  58.180  1.00  0.00    -0.399 OA
ATOM     17  H4  UNL     1      24.268  12.891  58.093  1.00  0.00     0.209 HD
ENDBRANCH  15  16
ENDBRANCH  14  15
ENDBRANCH  13  14
ENDBRANCH  12  13
ENDBRANCH  11  12
ENDBRANCH   6  10
BRANCH   5  18
HETATM   18  O1  UNL     1      18.154  12.095  55.114  1.00  0.00    -0.390 OA
ATOM     19  H1  UNL     1      18.507  11.784  54.288  1.00  0.00     0.210 HD
ENDBRANCH   5  18
TORSDOF 8
ENDMDL
MODEL 4
REMARK VINA RESULT: -3.931500852      2.403      5.550
REMARK  8 active torsions:
REMARK  status: ('A' for Active; 'I' for Inactive)
REMARK    1  A    between atoms: C4_5  and  O1_6 
REMARK    2  A    between atoms: C5_8  and  O2_9 
REMARK    3  A    between atoms: C5_8  and  C6_11 
REMARK    4  A    between atoms: C7_12  and  C8_13 
REMARK    5  A    between atoms: C8_13  and  O3_14 
REMARK    6  A    between atoms: O3_14  and  C9_15 
REMARK    7  A    between atoms: C9_15  and  C10_16 
REMARK    8  A    between atoms: C10_16  and  O4_17 
ROOT
HETATM    1  C1  UNL     1      19.320   8.383  57.750  1.00  0.00     0.272 C 
HETATM    2  N1  UNL     1      19.271   9.720  57.233  1.00  0.00    -0.068 N 
HETATM    3  C2  UNL     1      20.204   9.939  56.161  1.00  0.00     0.272 C 
HETATM    4  C3  UNL     1      17.952  10.098  56.761  1.00  0.00     0.272 C 
HETATM    5  C4  UNL     1      18.052  11.624  56.681  1.00  0.00     0.192 C 
HETATM    6  C5  UNL     1      18.833  11.938  57.923  1.00  0.00     0.172 C 
HETATM    7  C11 UNL     1      19.471  10.633  58.342  1.00  0.00     0.290 C 
ENDROOT
BRANCH   6   8
HETATM    8  O2  UNL     1      18.058  12.429  58.955  1.00  0.00    -0.373 OA
ATOM      9  H2  UNL     1      18.562  12.712  59.709  1.00  0.00     0.212 HD
ENDBRANCH   6   8
BRANCH   6  10
HETATM   10  C6  UNL     1      19.900  12.881  57.539  1.00  0.00    -0.061 C 
HETATM   11  C7  UNL     1      20.760  13.668  57.227  1.00  0.00    -0.077 C 
BRANCH  11  12
HETATM   12  C8  UNL     1      21.800  14.651  56.847  1.00  0.00     0.261 C 
BRANCH  12  13
HETATM   13  O3  UNL     1      22.299  15.182  58.011  1.00  0.00    -0.377 OA
BRANCH  13  14
HETATM   14  C9  UNL     1      21.926  16.507  58.191  1.00  0.00     0.194 C 
BRANCH  14  15
HETATM   15  C10 UNL     1      20.806  16.671  59.183  1.00  0.00     0.190 C 
BRANCH  15  16
HETATM   16  O4  UNL     1      20.509  15.496  59.855  1.00  0.00    -0.399 OA
ATOM     17  H4  UNL     1      19.909  14.938  59.374  1.00  0.00     0.209 HD
ENDBRANCH  15  16
ENDBRANCH  14  15
ENDBRANCH  13  14
ENDBRANCH  12  13
ENDBRANCH  11  12
ENDBRANCH   6  10
BRANCH   5  18
HETATM   18  O1  UNL     1      16.760  12.114  56.857  1.00  0.00    -0.390 OA
ATOM     19  H1  UNL     1      16.777  12.643  57.645  1.00  0.00     0.210 HD
ENDBRANCH   5  18
TORSDOF 8
ENDMDL
MODEL 5
REMARK VINA RESULT: -3.548954000      1.574      2.605
REMARK  8 active torsions:
REMARK  status: ('A' for Active; 'I' for Inactive)
REMARK    1  A    between atoms: C4_5  and  O1_6 
REMARK    2  A    between atoms: C5_8  and  O2_9 
REMARK    3  A    between atoms: C5_8  and  C6_11 
REMARK    4  A    between atoms: C7_12  and  C8_13 
REMARK    5  A    between atoms: C8_13  and  O3_14 
REMARK    6  A    between atoms: O3_14  and  C9_15 
REMARK    7  A    between atoms: C9_15  and  C10_16 
REMARK    8  A    between atoms: C10_16  and  O4_17 
ROOT
HETATM    1  C1  UNL     1      21.593  16.301  59.308  1.00  0.00     0.272 C 
HETATM    2  N1  UNL     1      21.295  15.260  58.368  1.00  0.00    -0.068 N 
HETATM    3  C2  UNL     1      19.916  14.853  58.405  1.00  0.00     0.272 C 
HETATM    4  C3  UNL     1      21.617  15.620  57.000  1.00  0.00     0.272 C 
HETATM    5  C4  UNL     1      21.627  14.263  56.292  1.00  0.00     0.192 C 
HETATM    6  C5  UNL     1      22.297  13.395  57.316  1.00  0.00     0.172 C 
HETATM    7  C11 UNL     1      22.207  14.161  58.617  1.00  0.00     0.290 C 
ENDROOT
BRANCH   6   8
HETATM    8  O2  UNL     1      23.620  13.121  57.029  1.00  0.00    -0.373 OA
ATOM      9  H2  UNL     1      23.950  12.342  57.461  1.00  0.00     0.212 HD
ENDBRANCH   6   8
BRANCH   6  10
HETATM   10  C6  UNL     1      21.494  12.165  57.437  1.00  0.00    -0.061 C 
HETATM   11  C7  UNL     1      20.824  11.165  57.522  1.00  0.00    -0.077 C 
BRANCH  11  12
HETATM   12  C8  UNL     1      19.992   9.943  57.607  1.00  0.00     0.261 C 
BRANCH  12  13
HETATM   13  O3  UNL     1      20.812   8.875  57.339  1.00  0.00    -0.377 OA
BRANCH  13  14
HETATM   14  C9  UNL     1      21.452   8.993  56.113  1.00  0.00     0.194 C 
BRANCH  14  15
HETATM   15  C10 UNL     1      22.932   9.235  56.247  1.00  0.00     0.190 C 
BRANCH  15  16
HETATM   16  O4  UNL     1      23.672   8.580  55.276  1.00  0.00    -0.399 OA
ATOM     17  H4  UNL     1      23.239   7.803  54.944  1.00  0.00     0.209 HD
ENDBRANCH  15  16
ENDBRANCH  14  15
ENDBRANCH  13  14
ENDBRANCH  12  13
ENDBRANCH  11  12
ENDBRANCH   6  10
BRANCH   5  18
HETATM   18  O1  UNL     1      22.495  14.389  55.209  1.00  0.00    -0.390 OA
ATOM     19  H1  UNL     1      22.664  15.318  55.106  1.00  0.00     0.210 HD
ENDBRANCH   5  18
TORSDOF 8
ENDMDL
