MODEL 1
REMARK VINA RESULT: -9.428794863      0.000      0.000
REMARK  10 active torsions:
REMARK  status: ('A' for Active; 'I' for Inactive)
REMARK    1  A    between atoms: C1_2  and  C2_3 
REMARK       I    between atoms: C1_2  and  N4_27 
REMARK    2  A    between atoms: C2_3  and  N1_4 
REMARK    3  A    between atoms: C9_11  and  O2_12 
REMARK    4  A    between atoms: N2_14  and  C10_15 
REMARK    5  A    between atoms: C10_15  and  C11_16 
REMARK    6  A    between atoms: C11_16  and  C12_17 
REMARK    7  A    between atoms: C12_17  and  N3_18 
REMARK    8  A    between atoms: C18_24  and  O3_25 
REMARK    9  A    between atoms: N4_27  and  C19_29 
REMARK   10  A    between atoms: C19_29  and  C20_30 
ROOT
HETATM    1  N1  UNL     1      16.681  14.835  34.775  1.00  0.00    -0.368 N 
HETATM    2  C3  UNL     1      18.115  15.084  34.569  1.00  0.00     0.123 C 
HETATM    3  C4  UNL     1      18.755  13.961  33.792  1.00  0.00     0.020 C 
HETATM    4  C5  UNL     1      18.944  12.808  34.762  1.00  0.00     0.006 C 
HETATM    5  C6  UNL     1      17.843  11.797  34.660  1.00  0.00     0.045 C 
HETATM    6  C7  UNL     1      16.605  12.333  35.277  1.00  0.00     0.024 A 
HETATM    7  C8  UNL     1      16.139  13.632  35.309  1.00  0.00     0.093 A 
HETATM    8  C9  UNL     1      14.948  13.639  35.994  1.00  0.00     0.172 A 
HETATM    9  N2  UNL     1      14.696  12.350  36.374  1.00  0.00    -0.306 N 
HETATM   10  C18 UNL     1      15.682  11.549  35.951  1.00  0.00     0.153 A 
ENDROOT
BRANCH   1  11
HETATM   11  C2  UNL     1      15.783  15.893  34.401  1.00  0.00     0.225 C 
BRANCH  11  12
HETATM   12  C1  UNL     1      15.938  16.324  33.000  1.00  0.00     0.235 C 
HETATM   13  O1  UNL     1      15.884  15.446  32.104  1.00  0.00    -0.272 OA
HETATM   14  N4  UNL     1      16.141  17.674  32.660  1.00  0.00    -0.359 N 
ATOM     15  H4  UNL     1      16.182  18.375  33.399  1.00  0.00     0.162 HD
BRANCH  14  16
HETATM   16  C19 UNL     1      16.290  18.084  31.292  1.00  0.00     0.132 C 
BRANCH  16  17
HETATM   17  C20 UNL     1      15.175  18.977  30.831  1.00  0.00    -0.023 C 
HETATM   18  C21 UNL     1      14.930  20.018  31.896  1.00  0.00     0.015 C 
HETATM   19  C22 UNL     1      13.907  21.042  31.450  1.00  0.00    -0.013 C 
HETATM   20  C23 UNL     1      12.600  20.295  31.256  1.00  0.00     0.009 C 
HETATM   21  C27 UNL     1      14.278  21.725  30.167  1.00  0.00     0.009 C 
HETATM   22  C24 UNL     1      12.837  19.259  30.192  1.00  0.00    -0.013 C 
HETATM   23  C25 UNL     1      13.238  19.894  28.866  1.00  0.00     0.009 C 
HETATM   24  C29 UNL     1      13.876  18.232  30.628  1.00  0.00     0.015 C 
HETATM   25  C26 UNL     1      14.518  20.672  29.121  1.00  0.00    -0.013 C 
HETATM   26  C28 UNL     1      15.564  19.680  29.558  1.00  0.00     0.015 C 
ENDBRANCH  16  17
ENDBRANCH  14  16
ENDBRANCH  11  12
ENDBRANCH   1  11
BRANCH   8  27
HETATM   27  O2  UNL     1      14.151  14.749  36.252  1.00  0.00    -0.344 OA
ATOM     28  H2  UNL     1      14.097  15.226  37.072  1.00  0.00     0.219 HD
ENDBRANCH   8  27
BRANCH  10  29
HETATM   29  O3  UNL     1      15.780  10.189  36.141  1.00  0.00    -0.345 OA
ATOM     30  H3  UNL     1      15.526   9.725  36.931  1.00  0.00     0.219 HD
ENDBRANCH  10  29
BRANCH   9  31
HETATM   31  C10 UNL     1      13.528  11.961  37.111  1.00  0.00     0.135 C 
BRANCH  31  32
HETATM   32  C11 UNL     1      13.748  11.822  38.593  1.00  0.00     0.050 C 
BRANCH  32  33
HETATM   33  C12 UNL     1      13.216  12.967  39.389  1.00  0.00     0.274 C 
BRANCH  33  34
HETATM   34  N3  UNL     1      12.421  12.567  40.520  1.00  0.00     0.088 N 
HETATM   35  C13 UNL     1      13.122  11.785  41.503  1.00  0.00     0.272 C 
HETATM   36  C14 UNL     1      14.174  12.607  42.230  1.00  0.00     0.030 C 
HETATM   37  C15 UNL     1      13.417  13.715  42.956  1.00  0.00     0.003 C 
HETATM   38  C16 UNL     1      12.720  14.548  41.931  1.00  0.00     0.030 C 
HETATM   39  C17 UNL     1      11.745  13.709  41.126  1.00  0.00     0.272 C 
ENDBRANCH  33  34
ENDBRANCH  32  33
ENDBRANCH  31  32
ENDBRANCH   9  31
TORSDOF 10
ENDMDL
MODEL 2
REMARK VINA RESULT: -9.417343480      0.074      1.251
REMARK  10 active torsions:
REMARK  status: ('A' for Active; 'I' for Inactive)
REMARK    1  A    between atoms: C1_2  and  C2_3 
REMARK       I    between atoms: C1_2  and  N4_27 
REMARK    2  A    between atoms: C2_3  and  N1_4 
REMARK    3  A    between atoms: C9_11  and  O2_12 
REMARK    4  A    between atoms: N2_14  and  C10_15 
REMARK    5  A    between atoms: C10_15  and  C11_16 
REMARK    6  A    between atoms: C11_16  and  C12_17 
REMARK    7  A    between atoms: C12_17  and  N3_18 
REMARK    8  A    between atoms: C18_24  and  O3_25 
REMARK    9  A    between atoms: N4_27  and  C19_29 
REMARK   10  A    between atoms: C19_29  and  C20_30 
ROOT
HETATM    1  N1  UNL     1      16.668  14.825  34.800  1.00  0.00    -0.368 N 
HETATM    2  C3  UNL     1      18.100  15.083  34.591  1.00  0.00     0.123 C 
HETATM    3  C4  UNL     1      18.742  13.968  33.804  1.00  0.00     0.020 C 
HETATM    4  C5  UNL     1      18.940  12.808  34.763  1.00  0.00     0.006 C 
HETATM    5  C6  UNL     1      17.843  11.794  34.657  1.00  0.00     0.045 C 
HETATM    6  C7  UNL     1      16.604  12.319  35.282  1.00  0.00     0.024 A 
HETATM    7  C8  UNL     1      16.133  13.616  35.326  1.00  0.00     0.093 A 
HETATM    8  C9  UNL     1      14.944  13.613  36.015  1.00  0.00     0.172 A 
HETATM    9  N2  UNL     1      14.699  12.319  36.385  1.00  0.00    -0.306 N 
HETATM   10  C18 UNL     1      15.686  11.526  35.953  1.00  0.00     0.153 A 
ENDROOT
BRANCH   1  11
HETATM   11  C2  UNL     1      15.764  15.882  34.437  1.00  0.00     0.225 C 
BRANCH  11  12
HETATM   12  C1  UNL     1      15.912  16.324  33.039  1.00  0.00     0.235 C 
HETATM   13  O1  UNL     1      15.851  15.454  32.136  1.00  0.00    -0.272 OA
HETATM   14  N4  UNL     1      16.116  17.677  32.708  1.00  0.00    -0.359 N 
ATOM     15  H4  UNL     1      16.163  18.372  33.453  1.00  0.00     0.162 HD
BRANCH  14  16
HETATM   16  C19 UNL     1      16.258  18.098  31.343  1.00  0.00     0.132 C 
BRANCH  16  17
HETATM   17  C20 UNL     1      15.191  19.066  30.922  1.00  0.00    -0.023 C 
HETATM   18  C21 UNL     1      15.592  19.666  29.597  1.00  0.00     0.015 C 
HETATM   19  C22 UNL     1      14.503  20.557  29.036  1.00  0.00    -0.013 C 
HETATM   20  C23 UNL     1      14.340  21.710  30.010  1.00  0.00     0.009 C 
HETATM   21  C27 UNL     1      13.187  19.853  28.882  1.00  0.00     0.009 C 
HETATM   22  C24 UNL     1      13.936  21.118  31.332  1.00  0.00    -0.013 C 
HETATM   23  C25 UNL     1      12.612  20.371  31.234  1.00  0.00     0.009 C 
HETATM   24  C29 UNL     1      15.022  20.209  31.896  1.00  0.00     0.015 C 
HETATM   25  C26 UNL     1      12.807  19.263  30.212  1.00  0.00    -0.013 C 
HETATM   26  C28 UNL     1      13.879  18.348  30.744  1.00  0.00     0.015 C 
ENDBRANCH  16  17
ENDBRANCH  14  16
ENDBRANCH  11  12
ENDBRANCH   1  11
BRANCH   8  27
HETATM   27  O2  UNL     1      14.143  14.717  36.284  1.00  0.00    -0.344 OA
ATOM     28  H2  UNL     1      13.208  14.707  36.457  1.00  0.00     0.219 HD
ENDBRANCH   8  27
BRANCH  10  29
HETATM   29  O3  UNL     1      15.792  10.165  36.132  1.00  0.00    -0.345 OA
ATOM     30  H3  UNL     1      16.430   9.603  35.708  1.00  0.00     0.219 HD
ENDBRANCH  10  29
BRANCH   9  31
HETATM   31  C10 UNL     1      13.535  11.920  37.123  1.00  0.00     0.135 C 
BRANCH  31  32
HETATM   32  C11 UNL     1      13.754  11.793  38.606  1.00  0.00     0.050 C 
BRANCH  32  33
HETATM   33  C12 UNL     1      13.220  12.943  39.393  1.00  0.00     0.274 C 
BRANCH  33  34
HETATM   34  N3  UNL     1      12.424  12.550  40.526  1.00  0.00     0.088 N 
HETATM   35  C13 UNL     1      13.123  11.775  41.514  1.00  0.00     0.272 C 
HETATM   36  C14 UNL     1      14.174  12.602  42.237  1.00  0.00     0.030 C 
HETATM   37  C15 UNL     1      13.417  13.714  42.955  1.00  0.00     0.003 C 
HETATM   38  C16 UNL     1      12.721  14.541  41.923  1.00  0.00     0.030 C 
HETATM   39  C17 UNL     1      11.747  13.696  41.123  1.00  0.00     0.272 C 
ENDBRANCH  33  34
ENDBRANCH  32  33
ENDBRANCH  31  32
ENDBRANCH   9  31
TORSDOF 10
ENDMDL
MODEL 3
REMARK VINA RESULT: -9.383932308      0.100      1.193
REMARK  10 active torsions:
REMARK  status: ('A' for Active; 'I' for Inactive)
REMARK    1  A    between atoms: C1_2  and  C2_3 
REMARK       I    between atoms: C1_2  and  N4_27 
REMARK    2  A    between atoms: C2_3  and  N1_4 
REMARK    3  A    between atoms: C9_11  and  O2_12 
REMARK    4  A    between atoms: N2_14  and  C10_15 
REMARK    5  A    between atoms: C10_15  and  C11_16 
REMARK    6  A    between atoms: C11_16  and  C12_17 
REMARK    7  A    between atoms: C12_17  and  N3_18 
REMARK    8  A    between atoms: C18_24  and  O3_25 
REMARK    9  A    between atoms: N4_27  and  C19_29 
REMARK   10  A    between atoms: C19_29  and  C20_30 
ROOT
HETATM    1  N1  UNL     1      16.671  14.842  34.767  1.00  0.00    -0.368 N 
HETATM    2  C3  UNL     1      18.105  15.095  34.566  1.00  0.00     0.123 C 
HETATM    3  C4  UNL     1      18.752  13.967  33.800  1.00  0.00     0.020 C 
HETATM    4  C5  UNL     1      18.941  12.822  34.780  1.00  0.00     0.006 C 
HETATM    5  C6  UNL     1      17.844  11.808  34.681  1.00  0.00     0.045 C 
HETATM    6  C7  UNL     1      16.601  12.344  35.288  1.00  0.00     0.024 A 
HETATM    7  C8  UNL     1      16.131  13.641  35.309  1.00  0.00     0.093 A 
HETATM    8  C9  UNL     1      14.937  13.650  35.988  1.00  0.00     0.172 A 
HETATM    9  N2  UNL     1      14.688  12.362  36.377  1.00  0.00    -0.306 N 
HETATM   10  C18 UNL     1      15.678  11.562  35.964  1.00  0.00     0.153 A 
ENDROOT
BRANCH   1  11
HETATM   11  C2  UNL     1      15.771  15.894  34.382  1.00  0.00     0.225 C 
BRANCH  11  12
HETATM   12  C1  UNL     1      15.954  16.339  32.988  1.00  0.00     0.235 C 
HETATM   13  O1  UNL     1      15.982  15.463  32.089  1.00  0.00    -0.272 OA
HETATM   14  N4  UNL     1      16.094  17.700  32.659  1.00  0.00    -0.359 N 
ATOM     15  H4  UNL     1      16.069  18.399  33.401  1.00  0.00     0.162 HD
BRANCH  14  16
HETATM   16  C19 UNL     1      16.272  18.123  31.299  1.00  0.00     0.132 C 
BRANCH  16  17
HETATM   17  C20 UNL     1      15.208  19.081  30.848  1.00  0.00    -0.023 C 
HETATM   18  C21 UNL     1      13.903  18.330  30.755  1.00  0.00     0.015 C 
HETATM   19  C22 UNL     1      12.748  19.256  30.434  1.00  0.00    -0.013 C 
HETATM   20  C23 UNL     1      13.024  19.833  29.056  1.00  0.00     0.009 C 
HETATM   21  C27 UNL     1      12.603  20.380  31.417  1.00  0.00     0.009 C 
HETATM   22  C24 UNL     1      14.322  20.586  29.144  1.00  0.00    -0.013 C 
HETATM   23  C25 UNL     1      14.241  21.732  30.146  1.00  0.00     0.009 C 
HETATM   24  C29 UNL     1      15.487  19.663  29.482  1.00  0.00     0.015 C 
HETATM   25  C26 UNL     1      13.912  21.114  31.494  1.00  0.00    -0.013 C 
HETATM   26  C28 UNL     1      15.048  20.192  31.853  1.00  0.00     0.015 C 
ENDBRANCH  16  17
ENDBRANCH  14  16
ENDBRANCH  11  12
ENDBRANCH   1  11
BRANCH   8  27
HETATM   27  O2  UNL     1      14.135  14.758  36.234  1.00  0.00    -0.344 OA
ATOM     28  H2  UNL     1      14.286  15.430  36.889  1.00  0.00     0.219 HD
ENDBRANCH   8  27
BRANCH  10  29
HETATM   29  O3  UNL     1      15.780  10.203  36.165  1.00  0.00    -0.345 OA
ATOM     30  H3  UNL     1      15.239   9.544  35.747  1.00  0.00     0.219 HD
ENDBRANCH  10  29
BRANCH   9  31
HETATM   31  C10 UNL     1      13.518  11.975  37.112  1.00  0.00     0.135 C 
BRANCH  31  32
HETATM   32  C11 UNL     1      13.736  11.829  38.594  1.00  0.00     0.050 C 
BRANCH  32  33
HETATM   33  C12 UNL     1      13.207  12.971  39.394  1.00  0.00     0.274 C 
BRANCH  33  34
HETATM   34  N3  UNL     1      12.410  12.568  40.523  1.00  0.00     0.088 N 
HETATM   35  C13 UNL     1      13.107  11.780  41.503  1.00  0.00     0.272 C 
HETATM   36  C14 UNL     1      14.160  12.597  42.235  1.00  0.00     0.030 C 
HETATM   37  C15 UNL     1      13.405  13.703  42.964  1.00  0.00     0.003 C 
HETATM   38  C16 UNL     1      12.711  14.543  41.942  1.00  0.00     0.030 C 
HETATM   39  C17 UNL     1      11.735  13.709  41.133  1.00  0.00     0.272 C 
ENDBRANCH  33  34
ENDBRANCH  32  33
ENDBRANCH  31  32
ENDBRANCH   9  31
TORSDOF 10
ENDMDL
MODEL 4
REMARK VINA RESULT: -9.329227763      1.520      2.209
REMARK  10 active torsions:
REMARK  status: ('A' for Active; 'I' for Inactive)
REMARK    1  A    between atoms: C1_2  and  C2_3 
REMARK       I    between atoms: C1_2  and  N4_27 
REMARK    2  A    between atoms: C2_3  and  N1_4 
REMARK    3  A    between atoms: C9_11  and  O2_12 
REMARK    4  A    between atoms: N2_14  and  C10_15 
REMARK    5  A    between atoms: C10_15  and  C11_16 
REMARK    6  A    between atoms: C11_16  and  C12_17 
REMARK    7  A    between atoms: C12_17  and  N3_18 
REMARK    8  A    between atoms: C18_24  and  O3_25 
REMARK    9  A    between atoms: N4_27  and  C19_29 
REMARK   10  A    between atoms: C19_29  and  C20_30 
ROOT
HETATM    1  N1  UNL     1      17.992  13.088  34.799  1.00  0.00    -0.368 N 
HETATM    2  C3  UNL     1      19.094  12.116  34.796  1.00  0.00     0.123 C 
HETATM    3  C4  UNL     1      18.611  10.750  34.376  1.00  0.00     0.020 C 
HETATM    4  C5  UNL     1      17.891  10.151  35.571  1.00  0.00     0.006 C 
HETATM    5  C6  UNL     1      16.407  10.330  35.483  1.00  0.00     0.045 C 
HETATM    6  C7  UNL     1      16.049  11.743  35.762  1.00  0.00     0.024 A 
HETATM    7  C8  UNL     1      16.746  12.894  35.459  1.00  0.00     0.093 A 
HETATM    8  C9  UNL     1      16.016  13.966  35.915  1.00  0.00     0.172 A 
HETATM    9  N2  UNL     1      14.883  13.462  36.493  1.00  0.00    -0.306 N 
HETATM   10  C18 UNL     1      14.885  12.126  36.409  1.00  0.00     0.153 A 
ENDROOT
BRANCH   1  11
HETATM   11  C2  UNL     1      18.210  14.312  34.077  1.00  0.00     0.225 C 
BRANCH  11  12
HETATM   12  C1  UNL     1      17.500  14.364  32.787  1.00  0.00     0.235 C 
HETATM   13  O1  UNL     1      17.739  13.464  31.945  1.00  0.00    -0.272 OA
HETATM   14  N4  UNL     1      16.576  15.384  32.492  1.00  0.00    -0.359 N 
ATOM     15  H4  UNL     1      16.392  16.108  33.187  1.00  0.00     0.162 HD
BRANCH  14  16
HETATM   16  C19 UNL     1      15.887  15.426  31.233  1.00  0.00     0.132 C 
BRANCH  16  17
HETATM   17  C20 UNL     1      15.243  16.756  30.971  1.00  0.00    -0.023 C 
HETATM   18  C21 UNL     1      14.191  16.989  32.027  1.00  0.00     0.015 C 
HETATM   19  C22 UNL     1      13.582  18.372  31.913  1.00  0.00    -0.013 C 
HETATM   20  C23 UNL     1      12.877  18.426  30.569  1.00  0.00     0.009 C 
HETATM   21  C27 UNL     1      14.601  19.471  31.978  1.00  0.00     0.009 C 
HETATM   22  C24 UNL     1      13.922  18.199  29.512  1.00  0.00    -0.013 C 
HETATM   23  C25 UNL     1      14.998  19.277  29.543  1.00  0.00     0.009 C 
HETATM   24  C29 UNL     1      14.549  16.814  29.630  1.00  0.00     0.015 C 
HETATM   25  C26 UNL     1      15.638  19.220  30.920  1.00  0.00    -0.013 C 
HETATM   26  C28 UNL     1      16.265  17.857  31.065  1.00  0.00     0.015 C 
ENDBRANCH  16  17
ENDBRANCH  14  16
ENDBRANCH  11  12
ENDBRANCH   1  11
BRANCH   8  27
HETATM   27  O2  UNL     1      16.366  15.307  35.810  1.00  0.00    -0.344 OA
ATOM     28  H2  UNL     1      16.287  15.966  36.491  1.00  0.00     0.219 HD
ENDBRANCH   8  27
BRANCH  10  29
HETATM   29  O3  UNL     1      13.914  11.268  36.877  1.00  0.00    -0.345 OA
ATOM     30  H3  UNL     1      13.170  11.520  37.412  1.00  0.00     0.219 HD
ENDBRANCH  10  29
BRANCH   9  31
HETATM   31  C10 UNL     1      13.868  14.287  37.081  1.00  0.00     0.135 C 
BRANCH  31  32
HETATM   32  C11 UNL     1      13.108  13.631  38.202  1.00  0.00     0.050 C 
BRANCH  32  33
HETATM   33  C12 UNL     1      13.604  13.999  39.561  1.00  0.00     0.274 C 
BRANCH  33  34
HETATM   34  N3  UNL     1      12.718  13.611  40.626  1.00  0.00     0.088 N 
HETATM   35  C13 UNL     1      12.403  12.209  40.667  1.00  0.00     0.272 C 
HETATM   36  C14 UNL     1      13.614  11.371  41.047  1.00  0.00     0.030 C 
HETATM   37  C15 UNL     1      14.008  11.811  42.453  1.00  0.00     0.003 C 
HETATM   38  C16 UNL     1      14.371  13.259  42.401  1.00  0.00     0.030 C 
HETATM   39  C17 UNL     1      13.198  14.091  41.918  1.00  0.00     0.272 C 
ENDBRANCH  33  34
ENDBRANCH  32  33
ENDBRANCH  31  32
ENDBRANCH   9  31
TORSDOF 10
ENDMDL
MODEL 5
REMARK VINA RESULT: -9.198470921      1.576      2.332
REMARK  10 active torsions:
REMARK  status: ('A' for Active; 'I' for Inactive)
REMARK    1  A    between atoms: C1_2  and  C2_3 
REMARK       I    between atoms: C1_2  and  N4_27 
REMARK    2  A    between atoms: C2_3  and  N1_4 
REMARK    3  A    between atoms: C9_11  and  O2_12 
REMARK    4  A    between atoms: N2_14  and  C10_15 
REMARK    5  A    between atoms: C10_15  and  C11_16 
REMARK    6  A    between atoms: C11_16  and  C12_17 
REMARK    7  A    between atoms: C12_17  and  N3_18 
REMARK    8  A    between atoms: C18_24  and  O3_25 
REMARK    9  A    between atoms: N4_27  and  C19_29 
REMARK   10  A    between atoms: C19_29  and  C20_30 
ROOT
HETATM    1  N1  UNL     1      16.887  15.219  34.342  1.00  0.00    -0.368 N 
HETATM    2  C3  UNL     1      18.252  15.544  33.905  1.00  0.00     0.123 C 
HETATM    3  C4  UNL     1      18.857  14.404  33.125  1.00  0.00     0.020 C 
HETATM    4  C5  UNL     1      19.275  13.352  34.136  1.00  0.00     0.006 C 
HETATM    5  C6  UNL     1      18.252  12.266  34.276  1.00  0.00     0.045 C 
HETATM    6  C7  UNL     1      17.079  12.769  35.032  1.00  0.00     0.024 A 
HETATM    7  C8  UNL     1      16.524  14.032  35.039  1.00  0.00     0.093 A 
HETATM    8  C9  UNL     1      15.447  14.019  35.894  1.00  0.00     0.172 A 
HETATM    9  N2  UNL     1      15.355  12.752  36.401  1.00  0.00    -0.306 N 
HETATM   10  C18 UNL     1      16.327  11.985  35.894  1.00  0.00     0.153 A 
ENDROOT
BRANCH   1  11
HETATM   11  C2  UNL     1      15.865  16.181  34.032  1.00  0.00     0.225 C 
BRANCH  11  12
HETATM   12  C1  UNL     1      15.841  16.571  32.611  1.00  0.00     0.235 C 
HETATM   13  O1  UNL     1      15.538  15.694  31.764  1.00  0.00    -0.272 OA
HETATM   14  N4  UNL     1      16.145  17.881  32.198  1.00  0.00    -0.359 N 
ATOM     15  H4  UNL     1      16.389  18.582  32.898  1.00  0.00     0.162 HD
BRANCH  14  16
HETATM   16  C19 UNL     1      16.119  18.252  30.812  1.00  0.00     0.132 C 
BRANCH  16  17
HETATM   17  C20 UNL     1      15.102  19.316  30.517  1.00  0.00    -0.023 C 
HETATM   18  C21 UNL     1      13.752  18.656  30.378  1.00  0.00     0.015 C 
HETATM   19  C22 UNL     1      12.646  19.677  30.210  1.00  0.00    -0.013 C 
HETATM   20  C23 UNL     1      12.919  20.403  28.905  1.00  0.00     0.009 C 
HETATM   21  C27 UNL     1      12.594  20.678  31.327  1.00  0.00     0.009 C 
HETATM   22  C24 UNL     1      14.261  21.067  29.040  1.00  0.00    -0.013 C 
HETATM   23  C25 UNL     1      14.276  22.083  30.175  1.00  0.00     0.009 C 
HETATM   24  C29 UNL     1      15.378  20.045  29.223  1.00  0.00     0.015 C 
HETATM   25  C26 UNL     1      13.947  21.322  31.449  1.00  0.00    -0.013 C 
HETATM   26  C28 UNL     1      15.035  20.301  31.654  1.00  0.00     0.015 C 
ENDBRANCH  16  17
ENDBRANCH  14  16
ENDBRANCH  11  12
ENDBRANCH   1  11
BRANCH   8  27
HETATM   27  O2  UNL     1      14.613  15.091  36.187  1.00  0.00    -0.344 OA
ATOM     28  H2  UNL     1      14.100  15.594  35.564  1.00  0.00     0.219 HD
ENDBRANCH   8  27
BRANCH  10  29
HETATM   29  O3  UNL     1      16.558  10.655  36.166  1.00  0.00    -0.345 OA
ATOM     30  H3  UNL     1      16.558   9.955  35.523  1.00  0.00     0.219 HD
ENDBRANCH  10  29
BRANCH   9  31
HETATM   31  C10 UNL     1      14.340  12.351  37.332  1.00  0.00     0.135 C 
BRANCH  31  32
HETATM   32  C11 UNL     1      13.202  11.583  36.716  1.00  0.00     0.050 C 
BRANCH  32  33
HETATM   33  C12 UNL     1      11.951  12.382  36.561  1.00  0.00     0.274 C 
BRANCH  33  34
HETATM   34  N3  UNL     1      10.829  11.850  37.288  1.00  0.00     0.088 N 
HETATM   35  C13 UNL     1      11.054  11.669  38.696  1.00  0.00     0.272 C 
HETATM   36  C14 UNL     1      11.197  12.999  39.419  1.00  0.00     0.030 C 
HETATM   37  C15 UNL     1       9.866  13.722  39.239  1.00  0.00     0.003 C 
HETATM   38  C16 UNL     1       9.651  13.942  37.777  1.00  0.00     0.030 C 
HETATM   39  C17 UNL     1       9.617  12.620  37.033  1.00  0.00     0.272 C 
ENDBRANCH  33  34
ENDBRANCH  32  33
ENDBRANCH  31  32
ENDBRANCH   9  31
TORSDOF 10
ENDMDL
