MODEL 1
REMARK VINA RESULT: -9.015790379      0.000      0.000
REMARK  17 active torsions:
REMARK  status: ('A' for Active; 'I' for Inactive)
REMARK    1  A    between atoms: C2_3  and  N2_4 
REMARK    2  A    between atoms: C4_6  and  N3_7 
REMARK    3  A    between atoms: C6_12  and  N4_13 
REMARK    4  A    between atoms: C9_21  and  N6_22 
REMARK    5  A    between atoms: N8_29  and  O1_30 
REMARK    6  A    between atoms: C12_33  and  N9_34 
REMARK    7  A    between atoms: N9_34  and  N10_36 
REMARK    8  A    between atoms: N10_36  and  C13_38 
REMARK    9  A    between atoms: C13_38  and  C14_39 
REMARK   10  A    between atoms: C14_39  and  O2_40 
REMARK   11  A    between atoms: C14_39  and  C15_42 
REMARK   12  A    between atoms: C15_42  and  O3_43 
REMARK   13  A    between atoms: C15_42  and  C16_45 
REMARK   14  A    between atoms: C16_45  and  O4_46 
REMARK   15  A    between atoms: C16_45  and  C17_48 
REMARK   16  A    between atoms: C17_48  and  O5_49 
REMARK   17  A    between atoms: O5_49  and  S2_50 
ROOT
HETATM    1  C1  UNL     1      -7.274  37.852 -44.569  1.00  0.00     0.177 C 
HETATM    2  N1  UNL     1      -6.432  38.547 -45.538  1.00  0.00    -0.169 N 
HETATM    3  C2  UNL     1      -6.717  39.857 -45.750  1.00  0.00     0.684 A 
HETATM    4  N5  UNL     1      -5.954  40.529 -46.645  1.00  0.00    -0.185 N 
ATOM      5  H5  UNL     1      -6.138  41.515 -46.832  1.00  0.00     0.184 HD
HETATM    6  C8  UNL     1      -4.960  39.903 -47.284  1.00  0.00     0.126 A 
HETATM    7  C9  UNL     1      -4.175  40.603 -48.208  1.00  0.00     0.131 A 
HETATM    8  N7  UNL     1      -3.190  39.949 -48.829  1.00  0.00    -0.319 N 
ATOM      9  H7  UNL     1      -2.627  40.475 -49.498  1.00  0.00     0.169 HD
HETATM   10  C10 UNL     1      -2.882  38.657 -48.643  1.00  0.00     0.184 A 
HETATM   11  S1  UNL     1      -1.544  37.850 -49.514  1.00  0.00    -0.011 SA
HETATM   12  N8  UNL     1      -3.643  37.973 -47.745  1.00  0.00    -0.195 N 
HETATM   13  C11 UNL     1      -4.649  38.580 -47.091  1.00  0.00     0.142 A 
HETATM   14  C12 UNL     1      -5.443  37.879 -46.157  1.00  0.00     0.169 A 
ENDROOT
BRANCH  14  15
HETATM   15  N9  UNL     1      -5.110  36.670 -45.995  1.00  0.00    -0.287 N 
ATOM     16  H9  UNL     1      -4.262  36.588 -45.434  1.00  0.00     0.188 HD
BRANCH  15  17
HETATM   17  N10 UNL     1      -5.574  35.467 -46.364  1.00  0.00    -0.332 N 
ATOM     18  H10 UNL     1      -5.308  35.054 -47.258  1.00  0.00     0.180 HD
BRANCH  17  19
HETATM   19  C13 UNL     1      -6.479  34.758 -45.444  1.00  0.00     0.173 C 
BRANCH  19  20
HETATM   20  C14 UNL     1      -6.006  33.332 -45.290  1.00  0.00     0.168 C 
BRANCH  20  21
HETATM   21  O2  UNL     1      -6.608  32.478 -46.180  1.00  0.00    -0.391 OA
ATOM     22  H2  UNL     1      -6.829  31.640 -45.790  1.00  0.00     0.210 HD
ENDBRANCH  20  21
BRANCH  20  23
HETATM   23  C15 UNL     1      -6.295  32.887 -43.868  1.00  0.00     0.179 C 
BRANCH  23  24
HETATM   24  O3  UNL     1      -5.181  32.314 -43.288  1.00  0.00    -0.390 OA
ATOM     25  H3  UNL     1      -5.154  31.378 -43.449  1.00  0.00     0.210 HD
ENDBRANCH  23  24
BRANCH  23  26
HETATM   26  C16 UNL     1      -6.931  33.985 -43.083  1.00  0.00     0.174 C 
BRANCH  26  27
HETATM   27  O4  UNL     1      -6.136  34.566 -42.130  1.00  0.00    -0.391 OA
ATOM     28  H4  UNL     1      -6.462  35.382 -41.768  1.00  0.00     0.210 HD
ENDBRANCH  26  27
BRANCH  26  29
HETATM   29  C17 UNL     1      -8.214  33.429 -42.495  1.00  0.00     0.227 C 
BRANCH  29  30
HETATM   30  O5  UNL     1      -8.444  32.195 -43.064  1.00  0.00    -0.254 OA
BRANCH  30  31
HETATM   31  S2  UNL     1      -9.778  32.134 -44.048  1.00  0.00     0.251 S 
HETATM   32  O6  UNL     1     -10.451  33.470 -44.116  1.00  0.00    -0.572 OA
HETATM   33  O7  UNL     1      -9.311  31.683 -45.426  1.00  0.00    -0.572 OA
HETATM   34  O8  UNL     1     -10.845  30.955 -43.509  1.00  0.00    -0.572 OA
ENDBRANCH  30  31
ENDBRANCH  29  30
ENDBRANCH  26  29
ENDBRANCH  23  26
ENDBRANCH  20  23
ENDBRANCH  19  20
ENDBRANCH  17  19
ENDBRANCH  15  17
ENDBRANCH  14  15
BRANCH   3  35
HETATM   35  N2  UNL     1      -7.779  40.504 -45.062  1.00  0.00    -0.213 N 
HETATM   36  C3  UNL     1      -7.839  40.570 -43.639  1.00  0.00     0.174 C 
HETATM   37  C4  UNL     1      -9.221  41.007 -43.194  1.00  0.00     0.204 C 
HETATM   38  C5  UNL     1     -10.309  40.399 -44.012  1.00  0.00     0.069 C 
HETATM   39  C6  UNL     1     -10.130  40.437 -45.487  1.00  0.00     0.204 C 
HETATM   40  C7  UNL     1      -8.838  41.112 -45.847  1.00  0.00     0.174 C 
BRANCH  37  41
HETATM   41  N3  UNL     1      -9.345  42.436 -43.114  1.00  0.00    -0.073 N 
ATOM     42  H33 UNL     1      -9.235  42.760 -42.154  1.00  0.00     0.274 HD
ATOM     43  H32 UNL     1      -8.540  42.899 -43.536  1.00  0.00     0.274 HD
ATOM     44  H31 UNL     1     -10.218  42.774 -43.519  1.00  0.00     0.274 HD
ENDBRANCH  37  41
BRANCH  39  45
HETATM   45  N4  UNL     1     -10.196  39.087 -46.032  1.00  0.00    -0.073 N 
ATOM     46  H43 UNL     1     -10.156  38.377 -45.301  1.00  0.00     0.274 HD
ATOM     47  H42 UNL     1     -11.121  38.869 -46.402  1.00  0.00     0.274 HD
ATOM     48  H41 UNL     1      -9.464  38.957 -46.731  1.00  0.00     0.274 HD
ENDBRANCH  39  45
ENDBRANCH   3  35
BRANCH  12  49
HETATM   49  O1  UNL     1      -3.338  36.652 -47.544  1.00  0.00    -0.280 OA
ATOM     50  H1  UNL     1      -3.463  36.306 -46.668  1.00  0.00     0.245 HD
ENDBRANCH  12  49
BRANCH   7  51
HETATM   51  N6  UNL     1      -4.466  41.838 -48.389  1.00  0.00    -0.383 N 
ATOM     52  H62 UNL     1      -5.388  42.249 -48.241  1.00  0.00     0.157 HD
ATOM     53  H61 UNL     1      -3.710  42.443 -48.707  1.00  0.00     0.157 HD
ENDBRANCH   7  51
TORSDOF 17
ENDMDL
MODEL 2
REMARK VINA RESULT: -8.954242519      0.752      1.260
REMARK  17 active torsions:
REMARK  status: ('A' for Active; 'I' for Inactive)
REMARK    1  A    between atoms: C2_3  and  N2_4 
REMARK    2  A    between atoms: C4_6  and  N3_7 
REMARK    3  A    between atoms: C6_12  and  N4_13 
REMARK    4  A    between atoms: C9_21  and  N6_22 
REMARK    5  A    between atoms: N8_29  and  O1_30 
REMARK    6  A    between atoms: C12_33  and  N9_34 
REMARK    7  A    between atoms: N9_34  and  N10_36 
REMARK    8  A    between atoms: N10_36  and  C13_38 
REMARK    9  A    between atoms: C13_38  and  C14_39 
REMARK   10  A    between atoms: C14_39  and  O2_40 
REMARK   11  A    between atoms: C14_39  and  C15_42 
REMARK   12  A    between atoms: C15_42  and  O3_43 
REMARK   13  A    between atoms: C15_42  and  C16_45 
REMARK   14  A    between atoms: C16_45  and  O4_46 
REMARK   15  A    between atoms: C16_45  and  C17_48 
REMARK   16  A    between atoms: C17_48  and  O5_49 
REMARK   17  A    between atoms: O5_49  and  S2_50 
ROOT
HETATM    1  C1  UNL     1      -7.410  37.972 -45.186  1.00  0.00     0.177 C 
HETATM    2  N1  UNL     1      -6.477  38.682 -46.057  1.00  0.00    -0.169 N 
HETATM    3  C2  UNL     1      -6.689  40.015 -46.205  1.00  0.00     0.684 A 
HETATM    4  N5  UNL     1      -5.842  40.700 -47.008  1.00  0.00    -0.185 N 
ATOM      5  H5  UNL     1      -5.969  41.703 -47.145  1.00  0.00     0.184 HD
HETATM    6  C8  UNL     1      -4.837  40.065 -47.622  1.00  0.00     0.126 A 
HETATM    7  C9  UNL     1      -3.964  40.780 -48.451  1.00  0.00     0.131 A 
HETATM    8  N7  UNL     1      -2.971  40.117 -49.049  1.00  0.00    -0.319 N 
ATOM      9  H7  UNL     1      -2.343  40.653 -49.648  1.00  0.00     0.169 HD
HETATM   10  C10 UNL     1      -2.733  38.803 -48.925  1.00  0.00     0.184 A 
HETATM   11  S1  UNL     1      -1.379  37.985 -49.760  1.00  0.00    -0.011 SA
HETATM   12  N8  UNL     1      -3.580  38.104 -48.119  1.00  0.00    -0.195 N 
HETATM   13  C11 UNL     1      -4.598  38.720 -47.492  1.00  0.00     0.142 A 
HETATM   14  C12 UNL     1      -5.481  38.005 -46.654  1.00  0.00     0.169 A 
ENDROOT
BRANCH  14  15
HETATM   15  N9  UNL     1      -5.213  36.773 -46.546  1.00  0.00    -0.287 N 
ATOM     16  H9  UNL     1      -4.529  36.477 -47.243  1.00  0.00     0.188 HD
BRANCH  15  17
HETATM   17  N10 UNL     1      -5.589  35.753 -45.761  1.00  0.00    -0.332 N 
ATOM     18  H10 UNL     1      -5.523  35.823 -44.745  1.00  0.00     0.180 HD
BRANCH  17  19
HETATM   19  C13 UNL     1      -6.098  34.531 -46.403  1.00  0.00     0.173 C 
BRANCH  19  20
HETATM   20  C14 UNL     1      -6.559  33.568 -45.334  1.00  0.00     0.168 C 
BRANCH  20  21
HETATM   21  O2  UNL     1      -7.534  32.712 -45.781  1.00  0.00    -0.391 OA
ATOM     22  H2  UNL     1      -7.700  32.000 -45.174  1.00  0.00     0.210 HD
ENDBRANCH  20  21
BRANCH  20  23
HETATM   23  C15 UNL     1      -7.077  34.376 -44.159  1.00  0.00     0.179 C 
BRANCH  23  24
HETATM   24  O3  UNL     1      -8.395  34.742 -44.347  1.00  0.00    -0.390 OA
ATOM     25  H3  UNL     1      -8.472  35.676 -44.506  1.00  0.00     0.210 HD
ENDBRANCH  23  24
BRANCH  23  26
HETATM   26  C16 UNL     1      -6.782  33.691 -42.867  1.00  0.00     0.174 C 
BRANCH  26  27
HETATM   27  O4  UNL     1      -5.927  32.622 -42.948  1.00  0.00    -0.391 OA
ATOM     28  H4  UNL     1      -5.014  32.815 -42.771  1.00  0.00     0.210 HD
ENDBRANCH  26  27
BRANCH  26  29
HETATM   29  C17 UNL     1      -8.114  33.312 -42.247  1.00  0.00     0.227 C 
BRANCH  29  30
HETATM   30  O5  UNL     1      -8.545  32.147 -42.844  1.00  0.00    -0.254 OA
BRANCH  30  31
HETATM   31  S2  UNL     1     -10.135  32.168 -43.314  1.00  0.00     0.251 S 
HETATM   32  O6  UNL     1     -10.848  30.942 -42.833  1.00  0.00    -0.572 OA
HETATM   33  O7  UNL     1     -10.766  33.431 -42.742  1.00  0.00    -0.572 OA
HETATM   34  O8  UNL     1     -10.247  32.308 -44.984  1.00  0.00    -0.572 OA
ENDBRANCH  30  31
ENDBRANCH  29  30
ENDBRANCH  26  29
ENDBRANCH  23  26
ENDBRANCH  20  23
ENDBRANCH  19  20
ENDBRANCH  17  19
ENDBRANCH  15  17
ENDBRANCH  14  15
BRANCH   3  35
HETATM   35  N2  UNL     1      -7.764  40.670 -45.545  1.00  0.00    -0.213 N 
HETATM   36  C3  UNL     1      -7.791  40.860 -44.132  1.00  0.00     0.174 C 
HETATM   37  C4  UNL     1      -9.180  41.271 -43.687  1.00  0.00     0.204 C 
HETATM   38  C5  UNL     1     -10.258  40.542 -44.415  1.00  0.00     0.069 C 
HETATM   39  C6  UNL     1     -10.119  40.456 -45.891  1.00  0.00     0.204 C 
HETATM   40  C7  UNL     1      -8.872  41.155 -46.349  1.00  0.00     0.174 C 
BRANCH  37  41
HETATM   41  N3  UNL     1      -9.372  42.694 -43.730  1.00  0.00    -0.073 N 
ATOM     42  H33 UNL     1      -8.718  43.133 -44.376  1.00  0.00     0.274 HD
ATOM     43  H32 UNL     1     -10.248  42.932 -44.196  1.00  0.00     0.274 HD
ATOM     44  H31 UNL     1      -9.319  43.122 -42.805  1.00  0.00     0.274 HD
ENDBRANCH  37  41
BRANCH  39  45
HETATM   45  N4  UNL     1     -10.132  39.060 -46.313  1.00  0.00    -0.073 N 
ATOM     46  H43 UNL     1      -9.223  38.757 -46.659  1.00  0.00     0.274 HD
ATOM     47  H42 UNL     1     -10.210  38.423 -45.520  1.00  0.00     0.274 HD
ATOM     48  H41 UNL     1     -10.872  38.910 -46.999  1.00  0.00     0.274 HD
ENDBRANCH  39  45
ENDBRANCH   3  35
BRANCH  12  49
HETATM   49  O1  UNL     1      -3.348  36.761 -47.982  1.00  0.00    -0.280 OA
ATOM     50  H1  UNL     1      -3.880  36.291 -47.351  1.00  0.00     0.245 HD
ENDBRANCH  12  49
BRANCH   7  51
HETATM   51  N6  UNL     1      -4.188  42.036 -48.573  1.00  0.00    -0.383 N 
ATOM     52  H62 UNL     1      -4.925  42.548 -48.090  1.00  0.00     0.157 HD
ATOM     53  H61 UNL     1      -3.575  42.549 -49.206  1.00  0.00     0.157 HD
ENDBRANCH   7  51
TORSDOF 17
ENDMDL
MODEL 3
REMARK VINA RESULT: -8.887353446      1.325      1.994
REMARK  17 active torsions:
REMARK  status: ('A' for Active; 'I' for Inactive)
REMARK    1  A    between atoms: C2_3  and  N2_4 
REMARK    2  A    between atoms: C4_6  and  N3_7 
REMARK    3  A    between atoms: C6_12  and  N4_13 
REMARK    4  A    between atoms: C9_21  and  N6_22 
REMARK    5  A    between atoms: N8_29  and  O1_30 
REMARK    6  A    between atoms: C12_33  and  N9_34 
REMARK    7  A    between atoms: N9_34  and  N10_36 
REMARK    8  A    between atoms: N10_36  and  C13_38 
REMARK    9  A    between atoms: C13_38  and  C14_39 
REMARK   10  A    between atoms: C14_39  and  O2_40 
REMARK   11  A    between atoms: C14_39  and  C15_42 
REMARK   12  A    between atoms: C15_42  and  O3_43 
REMARK   13  A    between atoms: C15_42  and  C16_45 
REMARK   14  A    between atoms: C16_45  and  O4_46 
REMARK   15  A    between atoms: C16_45  and  C17_48 
REMARK   16  A    between atoms: C17_48  and  O5_49 
REMARK   17  A    between atoms: O5_49  and  S2_50 
ROOT
HETATM    1  C1  UNL     1      -8.419  37.301 -46.498  1.00  0.00     0.177 C 
HETATM    2  N1  UNL     1      -7.312  38.120 -46.983  1.00  0.00    -0.169 N 
HETATM    3  C2  UNL     1      -7.513  39.463 -46.981  1.00  0.00     0.684 A 
HETATM    4  N5  UNL     1      -6.505  40.249 -47.428  1.00  0.00    -0.185 N 
ATOM      5  H5  UNL     1      -6.618  41.263 -47.442  1.00  0.00     0.184 HD
HETATM    6  C8  UNL     1      -5.361  39.699 -47.850  1.00  0.00     0.126 A 
HETATM    7  C9  UNL     1      -4.323  40.518 -48.310  1.00  0.00     0.131 A 
HETATM    8  N7  UNL     1      -3.192  39.938 -48.724  1.00  0.00    -0.319 N 
ATOM      9  H7  UNL     1      -2.446  40.549 -49.055  1.00  0.00     0.169 HD
HETATM   10  C10 UNL     1      -2.962  38.617 -48.739  1.00  0.00     0.184 A 
HETATM   11  S1  UNL     1      -1.419  37.914 -49.309  1.00  0.00    -0.011 SA
HETATM   12  N8  UNL     1      -3.970  37.818 -48.292  1.00  0.00    -0.195 N 
HETATM   13  C11 UNL     1      -5.129  38.347 -47.864  1.00  0.00     0.142 A 
HETATM   14  C12 UNL     1      -6.180  37.526 -47.398  1.00  0.00     0.169 A 
ENDROOT
BRANCH  14  15
HETATM   15  N9  UNL     1      -5.917  36.289 -47.409  1.00  0.00    -0.287 N 
ATOM     16  H9  UNL     1      -5.697  35.961 -48.349  1.00  0.00     0.188 HD
BRANCH  15  17
HETATM   17  N10 UNL     1      -5.852  35.292 -46.513  1.00  0.00    -0.332 N 
ATOM     18  H10 UNL     1      -5.366  35.417 -45.625  1.00  0.00     0.180 HD
BRANCH  17  19
HETATM   19  C13 UNL     1      -6.501  34.014 -46.846  1.00  0.00     0.173 C 
BRANCH  19  20
HETATM   20  C14 UNL     1      -6.770  33.251 -45.569  1.00  0.00     0.168 C 
BRANCH  20  21
HETATM   21  O2  UNL     1      -7.884  32.454 -45.657  1.00  0.00    -0.391 OA
ATOM     22  H2  UNL     1      -7.827  31.685 -45.103  1.00  0.00     0.210 HD
ENDBRANCH  20  21
BRANCH  20  23
HETATM   23  C15 UNL     1      -6.937  34.255 -44.443  1.00  0.00     0.179 C 
BRANCH  23  24
HETATM   24  O3  UNL     1      -8.198  34.815 -44.457  1.00  0.00    -0.390 OA
ATOM     25  H3  UNL     1      -8.172  35.712 -44.770  1.00  0.00     0.210 HD
ENDBRANCH  23  24
BRANCH  23  26
HETATM   26  C16 UNL     1      -6.511  33.670 -43.139  1.00  0.00     0.174 C 
BRANCH  26  27
HETATM   27  O4  UNL     1      -5.789  32.507 -43.221  1.00  0.00    -0.391 OA
ATOM     28  H4  UNL     1      -4.918  32.592 -43.592  1.00  0.00     0.210 HD
ENDBRANCH  26  27
BRANCH  26  29
HETATM   29  C17 UNL     1      -7.759  33.508 -42.292  1.00  0.00     0.227 C 
BRANCH  29  30
HETATM   30  O5  UNL     1      -8.380  32.337 -42.669  1.00  0.00    -0.254 OA
BRANCH  30  31
HETATM   31  S2  UNL     1     -10.035  32.433 -42.738  1.00  0.00     0.251 S 
HETATM   32  O6  UNL     1     -10.482  32.952 -44.069  1.00  0.00    -0.572 OA
HETATM   33  O7  UNL     1     -10.585  31.036 -42.479  1.00  0.00    -0.572 OA
HETATM   34  O8  UNL     1     -10.614  33.399 -41.494  1.00  0.00    -0.572 OA
ENDBRANCH  30  31
ENDBRANCH  29  30
ENDBRANCH  26  29
ENDBRANCH  23  26
ENDBRANCH  20  23
ENDBRANCH  19  20
ENDBRANCH  17  19
ENDBRANCH  15  17
ENDBRANCH  14  15
BRANCH   3  35
HETATM   35  N2  UNL     1      -8.737  40.027 -46.530  1.00  0.00    -0.213 N 
HETATM   36  C3  UNL     1      -9.477  40.967 -47.306  1.00  0.00     0.174 C 
HETATM   37  C4  UNL     1     -10.533  41.636 -46.449  1.00  0.00     0.204 C 
HETATM   38  C5  UNL     1     -10.049  41.942 -45.073  1.00  0.00     0.069 C 
HETATM   39  C6  UNL     1      -9.326  40.852 -44.367  1.00  0.00     0.204 C 
HETATM   40  C7  UNL     1      -9.241  39.626 -45.229  1.00  0.00     0.174 C 
BRANCH  37  41
HETATM   41  N3  UNL     1     -11.769  40.906 -46.432  1.00  0.00    -0.073 N 
ATOM     42  H33 UNL     1     -12.561  41.520 -46.624  1.00  0.00     0.274 HD
ATOM     43  H32 UNL     1     -11.842  40.288 -47.241  1.00  0.00     0.274 HD
ATOM     44  H31 UNL     1     -11.906  40.391 -45.563  1.00  0.00     0.274 HD
ENDBRANCH  37  41
BRANCH  39  45
HETATM   45  N4  UNL     1      -8.004  41.312 -43.962  1.00  0.00    -0.073 N 
ATOM     46  H43 UNL     1      -7.281  41.029 -44.624  1.00  0.00     0.274 HD
ATOM     47  H42 UNL     1      -7.905  42.322 -44.056  1.00  0.00     0.274 HD
ATOM     48  H41 UNL     1      -7.799  40.994 -43.014  1.00  0.00     0.274 HD
ENDBRANCH  39  45
ENDBRANCH   3  35
BRANCH  12  49
HETATM   49  O1  UNL     1      -3.746  36.466 -48.301  1.00  0.00    -0.280 OA
ATOM     50  H1  UNL     1      -4.323  35.934 -48.837  1.00  0.00     0.245 HD
ENDBRANCH  12  49
BRANCH   7  51
HETATM   51  N6  UNL     1      -4.539  41.781 -48.298  1.00  0.00    -0.383 N 
ATOM     52  H62 UNL     1      -5.437  42.222 -48.494  1.00  0.00     0.157 HD
ATOM     53  H61 UNL     1      -3.743  42.378 -48.075  1.00  0.00     0.157 HD
ENDBRANCH   7  51
TORSDOF 17
ENDMDL
MODEL 4
REMARK VINA RESULT: -8.749375598      8.592     11.831
REMARK  17 active torsions:
REMARK  status: ('A' for Active; 'I' for Inactive)
REMARK    1  A    between atoms: C2_3  and  N2_4 
REMARK    2  A    between atoms: C4_6  and  N3_7 
REMARK    3  A    between atoms: C6_12  and  N4_13 
REMARK    4  A    between atoms: C9_21  and  N6_22 
REMARK    5  A    between atoms: N8_29  and  O1_30 
REMARK    6  A    between atoms: C12_33  and  N9_34 
REMARK    7  A    between atoms: N9_34  and  N10_36 
REMARK    8  A    between atoms: N10_36  and  C13_38 
REMARK    9  A    between atoms: C13_38  and  C14_39 
REMARK   10  A    between atoms: C14_39  and  O2_40 
REMARK   11  A    between atoms: C14_39  and  C15_42 
REMARK   12  A    between atoms: C15_42  and  O3_43 
REMARK   13  A    between atoms: C15_42  and  C16_45 
REMARK   14  A    between atoms: C16_45  and  O4_46 
REMARK   15  A    between atoms: C16_45  and  C17_48 
REMARK   16  A    between atoms: C17_48  and  O5_49 
REMARK   17  A    between atoms: O5_49  and  S2_50 
ROOT
HETATM    1  C1  UNL     1     -14.537  31.552 -41.218  1.00  0.00     0.177 C 
HETATM    2  N1  UNL     1     -14.545  32.011 -39.832  1.00  0.00    -0.169 N 
HETATM    3  C2  UNL     1     -15.623  32.742 -39.448  1.00  0.00     0.684 A 
HETATM    4  N5  UNL     1     -15.659  33.183 -38.168  1.00  0.00    -0.185 N 
ATOM      5  H5  UNL     1     -16.452  33.736 -37.842  1.00  0.00     0.184 HD
HETATM    6  C8  UNL     1     -14.656  32.895 -37.330  1.00  0.00     0.126 A 
HETATM    7  C9  UNL     1     -14.700  33.354 -36.009  1.00  0.00     0.131 A 
HETATM    8  N7  UNL     1     -13.683  33.050 -35.197  1.00  0.00    -0.319 N 
ATOM      9  H7  UNL     1     -13.731  33.391 -34.237  1.00  0.00     0.169 HD
HETATM   10  C10 UNL     1     -12.605  32.331 -35.544  1.00  0.00     0.184 A 
HETATM   11  S1  UNL     1     -11.282  31.963 -34.398  1.00  0.00    -0.011 SA
HETATM   12  N8  UNL     1     -12.560  31.883 -36.829  1.00  0.00    -0.195 N 
HETATM   13  C11 UNL     1     -13.555  32.160 -37.690  1.00  0.00     0.142 A 
HETATM   14  C12 UNL     1     -13.517  31.699 -39.024  1.00  0.00     0.169 A 
ENDROOT
BRANCH  14  15
HETATM   15  N9  UNL     1     -12.496  31.008 -39.307  1.00  0.00    -0.287 N 
ATOM     16  H9  UNL     1     -11.669  31.594 -39.425  1.00  0.00     0.188 HD
BRANCH  15  17
HETATM   17  N10 UNL     1     -12.210  29.711 -39.494  1.00  0.00    -0.332 N 
ATOM     18  H10 UNL     1     -12.427  29.018 -38.778  1.00  0.00     0.180 HD
BRANCH  17  19
HETATM   19  C13 UNL     1     -11.575  29.314 -40.761  1.00  0.00     0.173 C 
BRANCH  19  20
HETATM   20  C14 UNL     1     -10.183  29.899 -40.819  1.00  0.00     0.168 C 
BRANCH  20  21
HETATM   21  O2  UNL     1      -9.755  30.362 -39.600  1.00  0.00    -0.391 OA
ATOM     22  H2  UNL     1      -8.945  29.953 -39.319  1.00  0.00     0.210 HD
ENDBRANCH  20  21
BRANCH  20  23
HETATM   23  C15 UNL     1     -10.185  31.028 -41.832  1.00  0.00     0.179 C 
BRANCH  23  24
HETATM   24  O3  UNL     1     -11.429  31.177 -42.412  1.00  0.00    -0.390 OA
ATOM     25  H3  UNL     1     -11.962  31.794 -41.926  1.00  0.00     0.210 HD
ENDBRANCH  23  24
BRANCH  23  26
HETATM   26  C16 UNL     1      -9.599  32.270 -41.250  1.00  0.00     0.174 C 
BRANCH  26  27
HETATM   27  O4  UNL     1     -10.448  33.015 -40.473  1.00  0.00    -0.391 OA
ATOM     28  H4  UNL     1     -10.030  33.654 -39.907  1.00  0.00     0.210 HD
ENDBRANCH  26  27
BRANCH  26  29
HETATM   29  C17 UNL     1      -9.022  33.074 -42.398  1.00  0.00     0.227 C 
BRANCH  29  30
HETATM   30  O5  UNL     1      -7.988  32.349 -42.949  1.00  0.00    -0.254 OA
BRANCH  30  31
HETATM   31  S2  UNL     1      -6.612  33.229 -43.236  1.00  0.00     0.251 S 
HETATM   32  O6  UNL     1      -6.718  33.978 -44.528  1.00  0.00    -0.572 OA
HETATM   33  O7  UNL     1      -6.425  34.182 -42.062  1.00  0.00    -0.572 OA
HETATM   34  O8  UNL     1      -5.267  32.224 -43.237  1.00  0.00    -0.572 OA
ENDBRANCH  30  31
ENDBRANCH  29  30
ENDBRANCH  26  29
ENDBRANCH  23  26
ENDBRANCH  20  23
ENDBRANCH  19  20
ENDBRANCH  17  19
ENDBRANCH  15  17
ENDBRANCH  14  15
BRANCH   3  35
HETATM   35  N2  UNL     1     -16.676  33.038 -40.354  1.00  0.00    -0.213 N 
HETATM   36  C3  UNL     1     -16.602  34.114 -41.287  1.00  0.00     0.174 C 
HETATM   37  C4  UNL     1     -17.972  34.395 -41.871  1.00  0.00     0.204 C 
HETATM   38  C5  UNL     1     -19.062  34.289 -40.860  1.00  0.00     0.069 C 
HETATM   39  C6  UNL     1     -19.036  33.092 -39.980  1.00  0.00     0.204 C 
HETATM   40  C7  UNL     1     -17.868  32.210 -40.318  1.00  0.00     0.174 C 
BRANCH  37  41
HETATM   41  N3  UNL     1     -18.244  33.604 -43.038  1.00  0.00    -0.073 N 
ATOM     42  H33 UNL     1     -18.807  34.123 -43.711  1.00  0.00     0.274 HD
ATOM     43  H32 UNL     1     -17.401  33.471 -43.597  1.00  0.00     0.274 HD
ATOM     44  H31 UNL     1     -18.678  32.709 -42.810  1.00  0.00     0.274 HD
ENDBRANCH  37  41
BRANCH  39  45
HETATM   45  N4  UNL     1     -19.006  33.502 -38.582  1.00  0.00    -0.073 N 
ATOM     46  H43 UNL     1     -18.176  33.157 -38.099  1.00  0.00     0.274 HD
ATOM     47  H42 UNL     1     -18.833  34.502 -38.480  1.00  0.00     0.274 HD
ATOM     48  H41 UNL     1     -19.867  33.213 -38.115  1.00  0.00     0.274 HD
ENDBRANCH  39  45
ENDBRANCH   3  35
BRANCH  12  49
HETATM   49  O1  UNL     1     -11.465  31.145 -37.196  1.00  0.00    -0.280 OA
ATOM     50  H1  UNL     1     -11.609  30.231 -37.410  1.00  0.00     0.245 HD
ENDBRANCH  12  49
BRANCH   7  51
HETATM   51  N6  UNL     1     -15.727  34.042 -35.673  1.00  0.00    -0.383 N 
ATOM     52  H62 UNL     1     -16.691  33.709 -35.708  1.00  0.00     0.157 HD
ATOM     53  H61 UNL     1     -15.554  34.994 -35.350  1.00  0.00     0.157 HD
ENDBRANCH   7  51
TORSDOF 17
ENDMDL
MODEL 5
REMARK VINA RESULT: -8.588834518      1.440      1.927
REMARK  17 active torsions:
REMARK  status: ('A' for Active; 'I' for Inactive)
REMARK    1  A    between atoms: C2_3  and  N2_4 
REMARK    2  A    between atoms: C4_6  and  N3_7 
REMARK    3  A    between atoms: C6_12  and  N4_13 
REMARK    4  A    between atoms: C9_21  and  N6_22 
REMARK    5  A    between atoms: N8_29  and  O1_30 
REMARK    6  A    between atoms: C12_33  and  N9_34 
REMARK    7  A    between atoms: N9_34  and  N10_36 
REMARK    8  A    between atoms: N10_36  and  C13_38 
REMARK    9  A    between atoms: C13_38  and  C14_39 
REMARK   10  A    between atoms: C14_39  and  O2_40 
REMARK   11  A    between atoms: C14_39  and  C15_42 
REMARK   12  A    between atoms: C15_42  and  O3_43 
REMARK   13  A    between atoms: C15_42  and  C16_45 
REMARK   14  A    between atoms: C16_45  and  O4_46 
REMARK   15  A    between atoms: C16_45  and  C17_48 
REMARK   16  A    between atoms: C17_48  and  O5_49 
REMARK   17  A    between atoms: O5_49  and  S2_50 
ROOT
HETATM    1  C1  UNL     1      -7.986  38.217 -45.213  1.00  0.00     0.177 C 
HETATM    2  N1  UNL     1      -6.955  38.831 -46.046  1.00  0.00    -0.169 N 
HETATM    3  C2  UNL     1      -7.087  40.162 -46.280  1.00  0.00     0.684 A 
HETATM    4  N5  UNL     1      -6.147  40.760 -47.050  1.00  0.00    -0.185 N 
ATOM      5  H5  UNL     1      -6.212  41.758 -47.249  1.00  0.00     0.184 HD
HETATM    6  C8  UNL     1      -5.135  40.044 -47.551  1.00  0.00     0.126 A 
HETATM    7  C9  UNL     1      -4.167  40.668 -48.347  1.00  0.00     0.131 A 
HETATM    8  N7  UNL     1      -3.168  39.925 -48.832  1.00  0.00    -0.319 N 
ATOM      9  H7  UNL     1      -2.470  40.396 -49.409  1.00  0.00     0.169 HD
HETATM   10  C10 UNL     1      -3.009  38.610 -48.621  1.00  0.00     0.184 A 
HETATM   11  S1  UNL     1      -1.642  37.682 -49.306  1.00  0.00    -0.011 SA
HETATM   12  N8  UNL     1      -3.949  38.000 -47.847  1.00  0.00    -0.195 N 
HETATM   13  C11 UNL     1      -4.976  38.698 -47.333  1.00  0.00     0.142 A 
HETATM   14  C12 UNL     1      -5.955  38.074 -46.529  1.00  0.00     0.169 A 
ENDROOT
BRANCH  14  15
HETATM   15  N9  UNL     1      -5.760  36.839 -46.336  1.00  0.00    -0.287 N 
ATOM     16  H9  UNL     1      -5.668  36.333 -47.217  1.00  0.00     0.188 HD
BRANCH  15  17
HETATM   17  N10 UNL     1      -5.643  36.018 -45.283  1.00  0.00    -0.332 N 
ATOM     18  H10 UNL     1      -4.954  36.198 -44.552  1.00  0.00     0.180 HD
BRANCH  17  19
HETATM   19  C13 UNL     1      -6.534  34.849 -45.208  1.00  0.00     0.173 C 
BRANCH  19  20
HETATM   20  C14 UNL     1      -7.287  34.886 -43.899  1.00  0.00     0.168 C 
BRANCH  20  21
HETATM   21  O2  UNL     1      -6.516  35.349 -42.861  1.00  0.00    -0.391 OA
ATOM     22  H2  UNL     1      -6.888  35.144 -42.012  1.00  0.00     0.210 HD
ENDBRANCH  20  21
BRANCH  20  23
HETATM   23  C15 UNL     1      -7.778  33.483 -43.594  1.00  0.00     0.179 C 
BRANCH  23  24
HETATM   24  O3  UNL     1      -6.738  32.664 -43.203  1.00  0.00    -0.390 OA
ATOM     25  H3  UNL     1      -5.997  33.173 -42.896  1.00  0.00     0.210 HD
ENDBRANCH  23  24
BRANCH  23  26
HETATM   26  C16 UNL     1      -8.949  33.515 -42.671  1.00  0.00     0.174 C 
BRANCH  26  27
HETATM   27  O4  UNL     1      -8.649  33.694 -41.345  1.00  0.00    -0.391 OA
ATOM     28  H4  UNL     1      -8.565  32.897 -40.834  1.00  0.00     0.210 HD
ENDBRANCH  26  27
BRANCH  26  29
HETATM   29  C17 UNL     1      -9.743  32.246 -42.911  1.00  0.00     0.227 C 
BRANCH  29  30
HETATM   30  O5  UNL     1      -9.221  31.258 -42.105  1.00  0.00    -0.254 OA
BRANCH  30  31
HETATM   31  S2  UNL     1     -10.297  30.629 -41.010  1.00  0.00     0.251 S 
HETATM   32  O6  UNL     1     -11.585  30.263 -41.680  1.00  0.00    -0.572 OA
HETATM   33  O7  UNL     1      -9.642  29.410 -40.373  1.00  0.00    -0.572 OA
HETATM   34  O8  UNL     1     -10.561  31.720 -39.762  1.00  0.00    -0.572 OA
ENDBRANCH  30  31
ENDBRANCH  29  30
ENDBRANCH  26  29
ENDBRANCH  23  26
ENDBRANCH  20  23
ENDBRANCH  19  20
ENDBRANCH  17  19
ENDBRANCH  15  17
ENDBRANCH  14  15
BRANCH   3  35
HETATM   35  N2  UNL     1      -8.171  40.904 -45.739  1.00  0.00    -0.213 N 
HETATM   36  C3  UNL     1      -8.230  41.281 -44.365  1.00  0.00     0.174 C 
HETATM   37  C4  UNL     1      -9.626  41.754 -44.013  1.00  0.00     0.204 C 
HETATM   38  C5  UNL     1     -10.692  40.940 -44.664  1.00  0.00     0.069 C 
HETATM   39  C6  UNL     1     -10.519  40.657 -46.112  1.00  0.00     0.204 C 
HETATM   40  C7  UNL     1      -9.255  41.284 -46.627  1.00  0.00     0.174 C 
BRANCH  37  41
HETATM   41  N3  UNL     1      -9.806  43.159 -44.248  1.00  0.00    -0.073 N 
ATOM     42  H33 UNL     1     -10.786  43.425 -44.153  1.00  0.00     0.274 HD
ATOM     43  H32 UNL     1      -9.411  43.712 -43.487  1.00  0.00     0.274 HD
ATOM     44  H31 UNL     1      -9.431  43.454 -45.150  1.00  0.00     0.274 HD
ENDBRANCH  37  41
BRANCH  39  45
HETATM   45  N4  UNL     1     -10.534  39.219 -46.345  1.00  0.00    -0.073 N 
ATOM     46  H43 UNL     1     -11.480  38.838 -46.328  1.00  0.00     0.274 HD
ATOM     47  H42 UNL     1     -10.296  38.985 -47.309  1.00  0.00     0.274 HD
ATOM     48  H41 UNL     1      -9.922  38.751 -45.676  1.00  0.00     0.274 HD
ENDBRANCH  39  45
ENDBRANCH   3  35
BRANCH  12  49
HETATM   49  O1  UNL     1      -3.797  36.656 -47.622  1.00  0.00    -0.280 OA
ATOM     50  H1  UNL     1      -3.300  36.162 -48.263  1.00  0.00     0.245 HD
ENDBRANCH  12  49
BRANCH   7  51
HETATM   51  N6  UNL     1      -4.315  41.924 -48.552  1.00  0.00    -0.383 N 
ATOM     52  H62 UNL     1      -4.043  42.413 -49.405  1.00  0.00     0.157 HD
ATOM     53  H61 UNL     1      -4.737  42.463 -47.796  1.00  0.00     0.157 HD
ENDBRANCH   7  51
TORSDOF 17
ENDMDL
