MODEL 1
REMARK VINA RESULT: -6.986347560      0.000      0.000
REMARK  14 active torsions:
REMARK  status: ('A' for Active; 'I' for Inactive)
REMARK    1  A    between atoms: C2_2  and  N1_3 
REMARK    2  A    between atoms: N1_3  and  C3_4 
REMARK    3  A    between atoms: N1_3  and  C5_6 
REMARK    4  A    between atoms: C5_6  and  O1_7 
REMARK    5  A    between atoms: C5_6  and  C6_9 
REMARK    6  A    between atoms: C6_9  and  N2_10 
REMARK    7  A    between atoms: C6_9  and  C16_26 
REMARK       I    between atoms: N2_10  and  C7_12 
REMARK       I    between atoms: C7_12  and  N3_14 
REMARK    8  A    between atoms: N3_14  and  C8_16 
REMARK    9  A    between atoms: C8_16  and  C9_17 
REMARK   10  A    between atoms: C8_16  and  C10_19 
REMARK   11  A    between atoms: C10_19  and  C11_20 
REMARK   12  A    between atoms: C11_20  and  C12_21 
REMARK   13  A    between atoms: C13_22  and  C14_23 
REMARK   14  A    between atoms: C14_23  and  C15_24 
REMARK       I    between atoms: C16_26  and  N4_28 
ROOT
HETATM    1  N2  UNL     1      15.708 -13.651  21.699  1.00  0.00    -0.323 N 
ATOM      2  H2  UNL     1      14.892 -14.263  21.706  1.00  0.00     0.165 HD
HETATM    3  C7  UNL     1      16.899 -14.107  22.274  1.00  0.00     0.317 C 
HETATM    4  O2  UNL     1      17.884 -13.330  22.260  1.00  0.00    -0.247 OA
HETATM    5  N3  UNL     1      17.046 -15.383  22.866  1.00  0.00    -0.332 N 
ATOM      6  H3  UNL     1      16.234 -16.000  22.858  1.00  0.00     0.165 HD
ENDROOT
BRANCH   1   7
HETATM    7  C6  UNL     1      15.590 -12.295  21.071  1.00  0.00     0.253 C 
BRANCH   7   8
HETATM    8  C5  UNL     1      14.343 -11.687  21.526  1.00  0.00     0.146 C 
BRANCH   8   9
HETATM    9  N1  UNL     1      13.194 -12.260  22.089  1.00  0.00    -0.364 N 
BRANCH   9  10
HETATM   10  C2  UNL     1      12.841 -13.623  22.276  1.00  0.00     0.120 C 
HETATM   11  C1  UNL     1      12.319 -14.161  20.944  1.00  0.00     0.026 C 
ENDBRANCH   9  10
BRANCH   9  12
HETATM   12  C3  UNL     1      12.163 -11.291  22.565  1.00  0.00     0.120 C 
HETATM   13  C4  UNL     1      11.389 -11.868  23.701  1.00  0.00     0.026 C 
ENDBRANCH   9  12
ENDBRANCH   8   9
BRANCH   8  14
HETATM   14  O1  UNL     1      14.317 -10.389  21.366  1.00  0.00    -0.347 OA
ATOM     15  H1  UNL     1      15.043  -9.907  21.744  1.00  0.00     0.219 HD
ENDBRANCH   8  14
ENDBRANCH   7   8
BRANCH   7  16
HETATM   16  C16 UNL     1      15.731 -12.487  19.611  1.00  0.00     0.248 C 
HETATM   17  O4  UNL     1      16.876 -12.793  19.198  1.00  0.00    -0.271 OA
HETATM   18  N4  UNL     1      14.702 -12.349  18.678  1.00  0.00    -0.363 N 
HETATM   19  C17 UNL     1      14.965 -12.554  17.273  1.00  0.00     0.149 C 
ATOM     20  H4  UNL     1      13.762 -12.102  18.989  1.00  0.00     0.162 HD
ENDBRANCH   7  16
ENDBRANCH   1   7
BRANCH   5  21
HETATM   21  C8  UNL     1      18.247 -15.879  23.474  1.00  0.00     0.148 C 
BRANCH  21  22
HETATM   22  C9  UNL     1      19.012 -16.614  22.385  1.00  0.00     0.256 C 
HETATM   23  O3  UNL     1      19.893 -16.071  21.785  1.00  0.00    -0.305 OA
ENDBRANCH  21  22
BRANCH  21  24
HETATM   24  C10 UNL     1      17.994 -16.900  24.533  1.00  0.00     0.044 C 
BRANCH  24  25
HETATM   25  C11 UNL     1      18.018 -16.415  25.931  1.00  0.00     0.096 C 
BRANCH  25  26
HETATM   26  C12 UNL     1      19.087 -15.443  26.133  1.00  0.00    -0.106 C 
HETATM   27  C13 UNL     1      19.994 -14.652  26.334  1.00  0.00    -0.105 C 
BRANCH  27  28
HETATM   28  C14 UNL     1      21.093 -13.732  26.612  1.00  0.00     0.109 C 
BRANCH  28  29
HETATM   29  C15 UNL     1      22.244 -14.063  25.733  1.00  0.00     0.126 C 
HETATM   30 CL1  UNL     1      21.756 -14.420  24.079  1.00  0.00    -0.130 Cl
ENDBRANCH  28  29
ENDBRANCH  27  28
ENDBRANCH  25  26
ENDBRANCH  24  25
ENDBRANCH  21  24
ENDBRANCH   5  21
TORSDOF 14
ENDMDL
MODEL 2
REMARK VINA RESULT: -6.932121218      1.740      2.456
REMARK  14 active torsions:
REMARK  status: ('A' for Active; 'I' for Inactive)
REMARK    1  A    between atoms: C2_2  and  N1_3 
REMARK    2  A    between atoms: N1_3  and  C3_4 
REMARK    3  A    between atoms: N1_3  and  C5_6 
REMARK    4  A    between atoms: C5_6  and  O1_7 
REMARK    5  A    between atoms: C5_6  and  C6_9 
REMARK    6  A    between atoms: C6_9  and  N2_10 
REMARK    7  A    between atoms: C6_9  and  C16_26 
REMARK       I    between atoms: N2_10  and  C7_12 
REMARK       I    between atoms: C7_12  and  N3_14 
REMARK    8  A    between atoms: N3_14  and  C8_16 
REMARK    9  A    between atoms: C8_16  and  C9_17 
REMARK   10  A    between atoms: C8_16  and  C10_19 
REMARK   11  A    between atoms: C10_19  and  C11_20 
REMARK   12  A    between atoms: C11_20  and  C12_21 
REMARK   13  A    between atoms: C13_22  and  C14_23 
REMARK   14  A    between atoms: C14_23  and  C15_24 
REMARK       I    between atoms: C16_26  and  N4_28 
ROOT
HETATM    1  N2  UNL     1      16.581 -14.412  21.972  1.00  0.00    -0.323 N 
ATOM      2  H2  UNL     1      15.825 -14.939  21.536  1.00  0.00     0.165 HD
HETATM    3  C7  UNL     1      17.387 -15.049  22.923  1.00  0.00     0.317 C 
HETATM    4  O2  UNL     1      18.305 -14.375  23.450  1.00  0.00    -0.247 OA
HETATM    5  N3  UNL     1      17.222 -16.397  23.314  1.00  0.00    -0.332 N 
ATOM      6  H3  UNL     1      16.475 -16.928  22.866  1.00  0.00     0.165 HD
ENDROOT
BRANCH   1   7
HETATM    7  C6  UNL     1      16.792 -12.983  21.574  1.00  0.00     0.253 C 
BRANCH   7   8
HETATM    8  C5  UNL     1      15.504 -12.425  21.171  1.00  0.00     0.146 C 
BRANCH   8   9
HETATM    9  N1  UNL     1      14.230 -13.006  21.114  1.00  0.00    -0.364 N 
BRANCH   9  10
HETATM   10  C2  UNL     1      13.260 -13.201  22.133  1.00  0.00     0.120 C 
HETATM   11  C1  UNL     1      12.436 -11.919  22.249  1.00  0.00     0.026 C 
ENDBRANCH   9  10
BRANCH   9  12
HETATM   12  C3  UNL     1      13.817 -13.513  19.773  1.00  0.00     0.120 C 
HETATM   13  C4  UNL     1      13.078 -14.801  19.905  1.00  0.00     0.026 C 
ENDBRANCH   9  12
ENDBRANCH   8   9
BRANCH   8  14
HETATM   14  O1  UNL     1      15.581 -11.173  20.800  1.00  0.00    -0.347 OA
ATOM     15  H1  UNL     1      14.924 -10.881  20.180  1.00  0.00     0.219 HD
ENDBRANCH   8  14
ENDBRANCH   7   8
BRANCH   7  16
HETATM   16  C16 UNL     1      17.857 -12.979  20.546  1.00  0.00     0.248 C 
HETATM   17  O4  UNL     1      17.477 -12.924  19.351  1.00  0.00    -0.271 OA
HETATM   18  N4  UNL     1      19.227 -13.039  20.807  1.00  0.00    -0.363 N 
HETATM   19  C17 UNL     1      20.173 -13.038  19.715  1.00  0.00     0.149 C 
ATOM     20  H4  UNL     1      19.561 -13.083  21.770  1.00  0.00     0.162 HD
ENDBRANCH   7  16
ENDBRANCH   1   7
BRANCH   5  21
HETATM   21  C8  UNL     1      18.020 -17.079  24.292  1.00  0.00     0.148 C 
BRANCH  21  22
HETATM   22  C9  UNL     1      17.998 -18.552  23.917  1.00  0.00     0.256 C 
HETATM   23  O3  UNL     1      17.561 -18.908  22.862  1.00  0.00    -0.305 OA
ENDBRANCH  21  22
BRANCH  21  24
HETATM   24  C10 UNL     1      17.450 -17.016  25.669  1.00  0.00     0.044 C 
BRANCH  24  25
HETATM   25  C11 UNL     1      18.424 -16.915  26.779  1.00  0.00     0.096 C 
BRANCH  25  26
HETATM   26  C12 UNL     1      19.277 -15.741  26.626  1.00  0.00    -0.106 C 
HETATM   27  C13 UNL     1      20.002 -14.763  26.537  1.00  0.00    -0.105 C 
BRANCH  27  28
HETATM   28  C14 UNL     1      20.883 -13.601  26.476  1.00  0.00     0.109 C 
BRANCH  28  29
HETATM   29  C15 UNL     1      22.065 -13.924  25.636  1.00  0.00     0.126 C 
HETATM   30 CL1  UNL     1      21.620 -14.560  24.055  1.00  0.00    -0.130 Cl
ENDBRANCH  28  29
ENDBRANCH  27  28
ENDBRANCH  25  26
ENDBRANCH  24  25
ENDBRANCH  21  24
ENDBRANCH   5  21
TORSDOF 14
ENDMDL
MODEL 3
REMARK VINA RESULT: -6.912035910      1.369      1.700
REMARK  14 active torsions:
REMARK  status: ('A' for Active; 'I' for Inactive)
REMARK    1  A    between atoms: C2_2  and  N1_3 
REMARK    2  A    between atoms: N1_3  and  C3_4 
REMARK    3  A    between atoms: N1_3  and  C5_6 
REMARK    4  A    between atoms: C5_6  and  O1_7 
REMARK    5  A    between atoms: C5_6  and  C6_9 
REMARK    6  A    between atoms: C6_9  and  N2_10 
REMARK    7  A    between atoms: C6_9  and  C16_26 
REMARK       I    between atoms: N2_10  and  C7_12 
REMARK       I    between atoms: C7_12  and  N3_14 
REMARK    8  A    between atoms: N3_14  and  C8_16 
REMARK    9  A    between atoms: C8_16  and  C9_17 
REMARK   10  A    between atoms: C8_16  and  C10_19 
REMARK   11  A    between atoms: C10_19  and  C11_20 
REMARK   12  A    between atoms: C11_20  and  C12_21 
REMARK   13  A    between atoms: C13_22  and  C14_23 
REMARK   14  A    between atoms: C14_23  and  C15_24 
REMARK       I    between atoms: C16_26  and  N4_28 
ROOT
HETATM    1  N2  UNL     1      14.949 -14.577  22.029  1.00  0.00    -0.323 N 
ATOM      2  H2  UNL     1      14.336 -15.393  22.052  1.00  0.00     0.165 HD
HETATM    3  C7  UNL     1      16.269 -14.711  22.474  1.00  0.00     0.317 C 
HETATM    4  O2  UNL     1      16.997 -13.690  22.444  1.00  0.00    -0.247 OA
HETATM    5  N3  UNL     1      16.817 -15.925  22.950  1.00  0.00    -0.332 N 
ATOM      6  H3  UNL     1      16.208 -16.743  22.957  1.00  0.00     0.165 HD
ENDROOT
BRANCH   1   7
HETATM    7  C6  UNL     1      14.404 -13.276  21.521  1.00  0.00     0.253 C 
BRANCH   7   8
HETATM    8  C5  UNL     1      13.116 -13.037  22.166  1.00  0.00     0.146 C 
BRANCH   8   9
HETATM    9  N1  UNL     1      12.549 -11.860  22.677  1.00  0.00    -0.364 N 
BRANCH   9  10
HETATM   10  C2  UNL     1      12.937 -10.504  22.512  1.00  0.00     0.120 C 
HETATM   11  C1  UNL     1      12.766 -10.142  21.037  1.00  0.00     0.026 C 
ENDBRANCH   9  10
BRANCH   9  12
HETATM   12  C3  UNL     1      11.348 -12.052  23.541  1.00  0.00     0.120 C 
HETATM   13  C4  UNL     1      11.277 -10.987  24.582  1.00  0.00     0.026 C 
ENDBRANCH   9  12
ENDBRANCH   8   9
BRANCH   8  14
HETATM   14  O1  UNL     1      12.390 -14.119  22.279  1.00  0.00    -0.347 OA
ATOM     15  H1  UNL     1      12.509 -14.773  21.601  1.00  0.00     0.219 HD
ENDBRANCH   8  14
ENDBRANCH   7   8
BRANCH   7  16
HETATM   16  C16 UNL     1      14.390 -13.368  20.044  1.00  0.00     0.248 C 
HETATM   17  O4  UNL     1      13.764 -14.339  19.553  1.00  0.00    -0.271 OA
HETATM   18  N4  UNL     1      15.016 -12.471  19.177  1.00  0.00    -0.363 N 
HETATM   19  C17 UNL     1      14.938 -12.672  17.748  1.00  0.00     0.149 C 
ATOM     20  H4  UNL     1      15.528 -11.673  19.551  1.00  0.00     0.162 HD
ENDBRANCH   7  16
ENDBRANCH   1   7
BRANCH   5  21
HETATM   21  C8  UNL     1      18.160 -16.097  23.423  1.00  0.00     0.148 C 
BRANCH  21  22
HETATM   22  C9  UNL     1      18.959 -16.664  22.260  1.00  0.00     0.256 C 
HETATM   23  O3  UNL     1      19.798 -16.006  21.717  1.00  0.00    -0.305 OA
ENDBRANCH  21  22
BRANCH  21  24
HETATM   24  C10 UNL     1      18.278 -17.112  24.511  1.00  0.00     0.044 C 
BRANCH  24  25
HETATM   25  C11 UNL     1      18.135 -16.609  25.896  1.00  0.00     0.096 C 
BRANCH  25  26
HETATM   26  C12 UNL     1      19.112 -15.563  26.179  1.00  0.00    -0.106 C 
HETATM   27  C13 UNL     1      19.959 -14.712  26.399  1.00  0.00    -0.105 C 
BRANCH  27  28
HETATM   28  C14 UNL     1      21.004 -13.722  26.639  1.00  0.00     0.109 C 
BRANCH  28  29
HETATM   29  C15 UNL     1      22.187 -14.043  25.801  1.00  0.00     0.126 C 
HETATM   30 CL1  UNL     1      21.754 -14.464  24.147  1.00  0.00    -0.130 Cl
ENDBRANCH  28  29
ENDBRANCH  27  28
ENDBRANCH  25  26
ENDBRANCH  24  25
ENDBRANCH  21  24
ENDBRANCH   5  21
TORSDOF 14
ENDMDL
MODEL 4
REMARK VINA RESULT: -6.884710357      1.992      3.814
REMARK  14 active torsions:
REMARK  status: ('A' for Active; 'I' for Inactive)
REMARK    1  A    between atoms: C2_2  and  N1_3 
REMARK    2  A    between atoms: N1_3  and  C3_4 
REMARK    3  A    between atoms: N1_3  and  C5_6 
REMARK    4  A    between atoms: C5_6  and  O1_7 
REMARK    5  A    between atoms: C5_6  and  C6_9 
REMARK    6  A    between atoms: C6_9  and  N2_10 
REMARK    7  A    between atoms: C6_9  and  C16_26 
REMARK       I    between atoms: N2_10  and  C7_12 
REMARK       I    between atoms: C7_12  and  N3_14 
REMARK    8  A    between atoms: N3_14  and  C8_16 
REMARK    9  A    between atoms: C8_16  and  C9_17 
REMARK   10  A    between atoms: C8_16  and  C10_19 
REMARK   11  A    between atoms: C10_19  and  C11_20 
REMARK   12  A    between atoms: C11_20  and  C12_21 
REMARK   13  A    between atoms: C13_22  and  C14_23 
REMARK   14  A    between atoms: C14_23  and  C15_24 
REMARK       I    between atoms: C16_26  and  N4_28 
ROOT
HETATM    1  N2  UNL     1      15.766 -11.726  21.124  1.00  0.00    -0.323 N 
ATOM      2  H2  UNL     1      16.035 -10.742  21.092  1.00  0.00     0.165 HD
HETATM    3  C7  UNL     1      16.766 -12.695  21.257  1.00  0.00     0.317 C 
HETATM    4  O2  UNL     1      16.408 -13.897  21.284  1.00  0.00    -0.247 OA
HETATM    5  N3  UNL     1      18.143 -12.393  21.360  1.00  0.00    -0.332 N 
ATOM      6  H3  UNL     1      18.409 -11.409  21.344  1.00  0.00     0.165 HD
ENDROOT
BRANCH   1   7
HETATM    7  C6  UNL     1      14.313 -12.083  21.026  1.00  0.00     0.253 C 
BRANCH   7   8
HETATM    8  C5  UNL     1      13.975 -12.243  19.615  1.00  0.00     0.146 C 
BRANCH   8   9
HETATM    9  N1  UNL     1      14.258 -13.280  18.715  1.00  0.00    -0.364 N 
BRANCH   9  10
HETATM   10  C2  UNL     1      14.899 -13.251  17.448  1.00  0.00     0.120 C 
HETATM   11  C1  UNL     1      16.237 -12.531  17.615  1.00  0.00     0.026 C 
ENDBRANCH   9  10
BRANCH   9  12
HETATM   12  C3  UNL     1      13.810 -14.638  19.142  1.00  0.00     0.120 C 
HETATM   13  C4  UNL     1      14.559 -15.693  18.401  1.00  0.00     0.026 C 
ENDBRANCH   9  12
ENDBRANCH   8   9
BRANCH   8  14
HETATM   14  O1  UNL     1      13.299 -11.233  19.132  1.00  0.00    -0.347 OA
ATOM     15  H1  UNL     1      12.648 -10.852  19.711  1.00  0.00     0.219 HD
ENDBRANCH   8  14
ENDBRANCH   7   8
BRANCH   7  16
HETATM   16  C16 UNL     1      13.567 -11.039  21.764  1.00  0.00     0.248 C 
HETATM   17  O4  UNL     1      13.821  -9.849  21.453  1.00  0.00    -0.271 OA
HETATM   18  N4  UNL     1      12.625 -11.279  22.765  1.00  0.00    -0.363 N 
HETATM   19  C17 UNL     1      11.967 -10.173  23.421  1.00  0.00     0.149 C 
ATOM     20  H4  UNL     1      12.401 -12.237  23.035  1.00  0.00     0.162 HD
ENDBRANCH   7  16
ENDBRANCH   1   7
BRANCH   5  21
HETATM   21  C8  UNL     1      19.195 -13.359  21.487  1.00  0.00     0.148 C 
BRANCH  21  22
HETATM   22  C9  UNL     1      19.969 -13.330  20.178  1.00  0.00     0.256 C 
HETATM   23  O3  UNL     1      20.861 -12.550  20.013  1.00  0.00    -0.305 OA
ENDBRANCH  21  22
BRANCH  21  24
HETATM   24  C10 UNL     1      18.698 -14.761  21.616  1.00  0.00     0.044 C 
BRANCH  24  25
HETATM   25  C11 UNL     1      19.462 -15.646  22.525  1.00  0.00     0.096 C 
BRANCH  25  26
HETATM   26  C12 UNL     1      19.783 -14.966  23.775  1.00  0.00    -0.106 C 
HETATM   27  C13 UNL     1      20.091 -14.407  24.815  1.00  0.00    -0.105 C 
BRANCH  27  28
HETATM   28  C14 UNL     1      20.506 -13.749  26.051  1.00  0.00     0.109 C 
BRANCH  28  29
HETATM   29  C15 UNL     1      21.853 -14.241  26.440  1.00  0.00     0.126 C 
HETATM   30 CL1  UNL     1      23.031 -14.101  25.139  1.00  0.00    -0.130 Cl
ENDBRANCH  28  29
ENDBRANCH  27  28
ENDBRANCH  25  26
ENDBRANCH  24  25
ENDBRANCH  21  24
ENDBRANCH   5  21
TORSDOF 14
ENDMDL
MODEL 5
REMARK VINA RESULT: -6.863742099      1.132      1.594
REMARK  14 active torsions:
REMARK  status: ('A' for Active; 'I' for Inactive)
REMARK    1  A    between atoms: C2_2  and  N1_3 
REMARK    2  A    between atoms: N1_3  and  C3_4 
REMARK    3  A    between atoms: N1_3  and  C5_6 
REMARK    4  A    between atoms: C5_6  and  O1_7 
REMARK    5  A    between atoms: C5_6  and  C6_9 
REMARK    6  A    between atoms: C6_9  and  N2_10 
REMARK    7  A    between atoms: C6_9  and  C16_26 
REMARK       I    between atoms: N2_10  and  C7_12 
REMARK       I    between atoms: C7_12  and  N3_14 
REMARK    8  A    between atoms: N3_14  and  C8_16 
REMARK    9  A    between atoms: C8_16  and  C9_17 
REMARK   10  A    between atoms: C8_16  and  C10_19 
REMARK   11  A    between atoms: C10_19  and  C11_20 
REMARK   12  A    between atoms: C11_20  and  C12_21 
REMARK   13  A    between atoms: C13_22  and  C14_23 
REMARK   14  A    between atoms: C14_23  and  C15_24 
REMARK       I    between atoms: C16_26  and  N4_28 
ROOT
HETATM    1  N2  UNL     1      15.093 -14.295  21.929  1.00  0.00    -0.323 N 
ATOM      2  H2  UNL     1      14.395 -15.033  22.021  1.00  0.00     0.165 HD
HETATM    3  C7  UNL     1      16.390 -14.529  22.400  1.00  0.00     0.317 C 
HETATM    4  O2  UNL     1      17.225 -13.600  22.282  1.00  0.00    -0.247 OA
HETATM    5  N3  UNL     1      16.802 -15.744  22.994  1.00  0.00    -0.332 N 
ATOM      6  H3  UNL     1      16.107 -16.487  23.071  1.00  0.00     0.165 HD
ENDROOT
BRANCH   1   7
HETATM    7  C6  UNL     1      14.694 -12.997  21.295  1.00  0.00     0.253 C 
BRANCH   7   8
HETATM    8  C5  UNL     1      13.254 -12.829  21.462  1.00  0.00     0.146 C 
BRANCH   8   9
HETATM    9  N1  UNL     1      12.518 -12.044  22.361  1.00  0.00    -0.364 N 
BRANCH   9  10
HETATM   10  C2  UNL     1      11.437 -12.389  23.215  1.00  0.00     0.120 C 
HETATM   11  C1  UNL     1      11.250 -11.251  24.218  1.00  0.00     0.026 C 
ENDBRANCH   9  10
BRANCH   9  12
HETATM   12  C3  UNL     1      12.923 -10.610  22.436  1.00  0.00     0.120 C 
HETATM   13  C4  UNL     1      12.855  -9.976  21.088  1.00  0.00     0.026 C 
ENDBRANCH   9  12
ENDBRANCH   8   9
BRANCH   8  14
HETATM   14  O1  UNL     1      12.553 -13.548  20.622  1.00  0.00    -0.347 OA
ATOM     15  H1  UNL     1      12.180 -13.081  19.884  1.00  0.00     0.219 HD
ENDBRANCH   8  14
ENDBRANCH   7   8
BRANCH   7  16
HETATM   16  C16 UNL     1      15.192 -13.033  19.902  1.00  0.00     0.248 C 
HETATM   17  O4  UNL     1      15.925 -12.076  19.548  1.00  0.00    -0.271 OA
HETATM   18  N4  UNL     1      14.906 -14.032  18.970  1.00  0.00    -0.363 N 
HETATM   19  C17 UNL     1      15.446 -13.951  17.633  1.00  0.00     0.149 C 
ATOM     20  H4  UNL     1      14.315 -14.820  19.234  1.00  0.00     0.162 HD
ENDBRANCH   7  16
ENDBRANCH   1   7
BRANCH   5  21
HETATM   21  C8  UNL     1      18.117 -16.015  23.497  1.00  0.00     0.148 C 
BRANCH  21  22
HETATM   22  C9  UNL     1      18.881 -16.689  22.368  1.00  0.00     0.256 C 
HETATM   23  O3  UNL     1      19.727 -16.096  21.764  1.00  0.00    -0.305 OA
ENDBRANCH  21  22
BRANCH  21  24
HETATM   24  C10 UNL     1      18.130 -16.998  24.620  1.00  0.00     0.044 C 
BRANCH  24  25
HETATM   25  C11 UNL     1      18.016 -16.436  25.985  1.00  0.00     0.096 C 
BRANCH  25  26
HETATM   26  C12 UNL     1      19.086 -15.481  26.251  1.00  0.00    -0.106 C 
HETATM   27  C13 UNL     1      19.990 -14.681  26.434  1.00  0.00    -0.105 C 
BRANCH  27  28
HETATM   28  C14 UNL     1      21.080 -13.725  26.605  1.00  0.00     0.109 C 
BRANCH  28  29
HETATM   29  C15 UNL     1      22.204 -14.096  25.708  1.00  0.00     0.126 C 
HETATM   30 CL1  UNL     1      21.670 -14.491  24.077  1.00  0.00    -0.130 Cl
ENDBRANCH  28  29
ENDBRANCH  27  28
ENDBRANCH  25  26
ENDBRANCH  24  25
ENDBRANCH  21  24
ENDBRANCH   5  21
TORSDOF 14
ENDMDL
