MODEL 1
REMARK VINA RESULT: -5.648521906      0.000      0.000
REMARK  5 active torsions:
REMARK  status: ('A' for Active; 'I' for Inactive)
REMARK    1  A    between atoms: N1_2  and  C2_4 
REMARK    2  A    between atoms: C2_4  and  C3_5 
REMARK    3  A    between atoms: C3_5  and  N2_6 
REMARK    4  A    between atoms: N2_6  and  C4_8 
REMARK    5  A    between atoms: C4_8  and  N3_9 
ROOT
HETATM    1  N3  UNL     1      84.140  44.759  -8.483  1.00  0.00    -0.239 N 
HETATM    2  N4  UNL     1      83.005  44.546  -7.790  1.00  0.00    -0.287 N 
ATOM      3  H4  UNL     1      82.952  44.058  -6.896  1.00  0.00     0.188 HD
HETATM    4  C5  UNL     1      81.962  45.064  -8.438  1.00  0.00     0.199 A 
HETATM    5  N5  UNL     1      82.433  45.609  -9.549  1.00  0.00    -0.340 N 
ATOM      6  H5  UNL     1      81.883  46.088 -10.261  1.00  0.00     0.168 HD
HETATM    7  C6  UNL     1      83.778  45.420  -9.575  1.00  0.00     0.101 A 
HETATM    8  C7  UNL     1      84.659  45.906 -10.685  1.00  0.00     0.091 C 
ENDROOT
BRANCH   1   9
HETATM    9  C4  UNL     1      85.402  44.277  -8.009  1.00  0.00     0.208 C 
BRANCH   9  10
HETATM   10  N2  UNL     1      85.798  44.753  -6.726  1.00  0.00    -0.359 N 
ATOM     11  H2  UNL     1      85.123  44.829  -5.966  1.00  0.00     0.166 HD
BRANCH  10  12
HETATM   12  C3  UNL     1      87.140  45.115  -6.533  1.00  0.00     0.105 C 
BRANCH  12  13
HETATM   13  C2  UNL     1      88.245  44.200  -6.870  1.00  0.00     0.099 C 
BRANCH  13  14
HETATM   14  N1  UNL     1      88.497  43.074  -6.060  1.00  0.00    -0.402 N 
HETATM   15  C1  UNL     1      88.505  41.793  -6.681  1.00  0.00     0.145 C 
ATOM     16  H1  UNL     1      88.668  43.174  -5.060  1.00  0.00     0.158 HD
ENDBRANCH  13  14
ENDBRANCH  12  13
ENDBRANCH  10  12
ENDBRANCH   9  10
ENDBRANCH   1   9
TORSDOF 5
ENDMDL
MODEL 2
REMARK VINA RESULT: -5.544705154      1.879      2.954
REMARK  5 active torsions:
REMARK  status: ('A' for Active; 'I' for Inactive)
REMARK    1  A    between atoms: N1_2  and  C2_4 
REMARK    2  A    between atoms: C2_4  and  C3_5 
REMARK    3  A    between atoms: C3_5  and  N2_6 
REMARK    4  A    between atoms: N2_6  and  C4_8 
REMARK    5  A    between atoms: C4_8  and  N3_9 
ROOT
HETATM    1  N3  UNL     1      82.013  44.501  -9.927  1.00  0.00    -0.239 N 
HETATM    2  N4  UNL     1      81.049  43.589  -9.693  1.00  0.00    -0.287 N 
ATOM      3  H4  UNL     1      80.667  43.369  -8.773  1.00  0.00     0.188 HD
HETATM    4  C5  UNL     1      80.666  43.016 -10.833  1.00  0.00     0.199 A 
HETATM    5  N5  UNL     1      81.389  43.563 -11.798  1.00  0.00    -0.340 N 
ATOM      6  H5  UNL     1      81.332  43.336 -12.791  1.00  0.00     0.168 HD
HETATM    7  C6  UNL     1      82.219  44.479 -11.237  1.00  0.00     0.101 A 
HETATM    8  C7  UNL     1      83.190  45.307 -12.023  1.00  0.00     0.091 C 
ENDROOT
BRANCH   1   9
HETATM    9  C4  UNL     1      82.610  45.241  -8.857  1.00  0.00     0.208 C 
BRANCH   9  10
HETATM   10  N2  UNL     1      83.461  44.493  -7.993  1.00  0.00    -0.359 N 
ATOM     11  H2  UNL     1      83.233  44.380  -7.006  1.00  0.00     0.166 HD
BRANCH  10  12
HETATM   12  C3  UNL     1      84.620  43.915  -8.533  1.00  0.00     0.105 C 
BRANCH  12  13
HETATM   13  C2  UNL     1      85.922  44.005  -7.847  1.00  0.00     0.099 C 
BRANCH  13  14
HETATM   14  N1  UNL     1      86.048  44.783  -6.678  1.00  0.00    -0.402 N 
HETATM   15  C1  UNL     1      87.349  45.224  -6.307  1.00  0.00     0.145 C 
ATOM     16  H1  UNL     1      85.231  45.022  -6.116  1.00  0.00     0.158 HD
ENDBRANCH  13  14
ENDBRANCH  12  13
ENDBRANCH  10  12
ENDBRANCH   9  10
ENDBRANCH   1   9
TORSDOF 5
ENDMDL
MODEL 3
REMARK VINA RESULT: -5.505517772      1.769      5.213
REMARK  5 active torsions:
REMARK  status: ('A' for Active; 'I' for Inactive)
REMARK    1  A    between atoms: N1_2  and  C2_4 
REMARK    2  A    between atoms: C2_4  and  C3_5 
REMARK    3  A    between atoms: C3_5  and  N2_6 
REMARK    4  A    between atoms: N2_6  and  C4_8 
REMARK    5  A    between atoms: C4_8  and  N3_9 
ROOT
HETATM    1  N3  UNL     1      85.798  44.664  -7.842  1.00  0.00    -0.239 N 
HETATM    2  N4  UNL     1      86.063  44.828  -6.532  1.00  0.00    -0.287 N 
ATOM      3  H4  UNL     1      85.380  44.723  -5.782  1.00  0.00     0.188 HD
HETATM    4  C5  UNL     1      87.345  45.146  -6.355  1.00  0.00     0.199 A 
HETATM    5  N5  UNL     1      87.899  45.187  -7.556  1.00  0.00    -0.340 N 
ATOM      6  H5  UNL     1      88.875  45.404  -7.758  1.00  0.00     0.168 HD
HETATM    7  C6  UNL     1      86.943  44.889  -8.474  1.00  0.00     0.101 A 
HETATM    8  C7  UNL     1      87.201  44.835  -9.948  1.00  0.00     0.091 C 
ENDROOT
BRANCH   1   9
HETATM    9  C4  UNL     1      84.480  44.341  -8.299  1.00  0.00     0.208 C 
BRANCH   9  10
HETATM   10  N2  UNL     1      83.534  45.404  -8.246  1.00  0.00    -0.359 N 
ATOM     11  H2  UNL     1      83.788  46.310  -7.853  1.00  0.00     0.166 HD
BRANCH  10  12
HETATM   12  C3  UNL     1      82.243  45.175  -8.746  1.00  0.00     0.105 C 
BRANCH  12  13
HETATM   13  C2  UNL     1      81.907  43.950  -9.493  1.00  0.00     0.099 C 
BRANCH  13  14
HETATM   14  N1  UNL     1      81.733  44.004 -10.890  1.00  0.00    -0.402 N 
HETATM   15  C1  UNL     1      82.518  44.937 -11.625  1.00  0.00     0.145 C 
ATOM     16  H1  UNL     1      81.065  43.394 -11.361  1.00  0.00     0.158 HD
ENDBRANCH  13  14
ENDBRANCH  12  13
ENDBRANCH  10  12
ENDBRANCH   9  10
ENDBRANCH   1   9
TORSDOF 5
ENDMDL
MODEL 4
REMARK VINA RESULT: -5.473015764      0.919      1.339
REMARK  5 active torsions:
REMARK  status: ('A' for Active; 'I' for Inactive)
REMARK    1  A    between atoms: N1_2  and  C2_4 
REMARK    2  A    between atoms: C2_4  and  C3_5 
REMARK    3  A    between atoms: C3_5  and  N2_6 
REMARK    4  A    between atoms: N2_6  and  C4_8 
REMARK    5  A    between atoms: C4_8  and  N3_9 
ROOT
HETATM    1  N3  UNL     1      84.128  44.800  -8.460  1.00  0.00    -0.239 N 
HETATM    2  N4  UNL     1      82.979  44.617  -7.781  1.00  0.00    -0.287 N 
ATOM      3  H4  UNL     1      82.901  44.126  -6.890  1.00  0.00     0.188 HD
HETATM    4  C5  UNL     1      81.959  45.167  -8.439  1.00  0.00     0.199 A 
HETATM    5  N5  UNL     1      82.459  45.703  -9.541  1.00  0.00    -0.340 N 
ATOM      6  H5  UNL     1      81.930  46.200 -10.258  1.00  0.00     0.168 HD
HETATM    7  C6  UNL     1      83.798  45.476  -9.553  1.00  0.00     0.101 A 
HETATM    8  C7  UNL     1      84.706  45.941 -10.650  1.00  0.00     0.091 C 
ENDROOT
BRANCH   1   9
HETATM    9  C4  UNL     1      85.369  44.280  -7.973  1.00  0.00     0.208 C 
BRANCH   9  10
HETATM   10  N2  UNL     1      85.807  44.805  -6.723  1.00  0.00    -0.359 N 
ATOM     11  H2  UNL     1      85.134  45.072  -6.005  1.00  0.00     0.166 HD
BRANCH  10  12
HETATM   12  C3  UNL     1      87.186  44.945  -6.503  1.00  0.00     0.105 C 
BRANCH  12  13
HETATM   13  C2  UNL     1      88.144  43.898  -6.898  1.00  0.00     0.099 C 
BRANCH  13  14
HETATM   14  N1  UNL     1      89.144  44.183  -7.850  1.00  0.00    -0.402 N 
HETATM   15  C1  UNL     1      88.924  45.266  -8.746  1.00  0.00     0.145 C 
ATOM     16  H1  UNL     1      89.999  43.629  -7.896  1.00  0.00     0.158 HD
ENDBRANCH  13  14
ENDBRANCH  12  13
ENDBRANCH  10  12
ENDBRANCH   9  10
ENDBRANCH   1   9
TORSDOF 5
ENDMDL
MODEL 5
REMARK VINA RESULT: -5.428660173      3.319      6.087
REMARK  5 active torsions:
REMARK  status: ('A' for Active; 'I' for Inactive)
REMARK    1  A    between atoms: N1_2  and  C2_4 
REMARK    2  A    between atoms: C2_4  and  C3_5 
REMARK    3  A    between atoms: C3_5  and  N2_6 
REMARK    4  A    between atoms: N2_6  and  C4_8 
REMARK    5  A    between atoms: C4_8  and  N3_9 
ROOT
HETATM    1  N3  UNL     1      82.830  45.219 -10.449  1.00  0.00    -0.239 N 
HETATM    2  N4  UNL     1      81.810  45.030  -9.590  1.00  0.00    -0.287 N 
ATOM      3  H4  UNL     1      80.853  44.806  -9.862  1.00  0.00     0.188 HD
HETATM    4  C5  UNL     1      82.228  45.178  -8.333  1.00  0.00     0.199 A 
HETATM    5  N5  UNL     1      83.520  45.463  -8.391  1.00  0.00    -0.340 N 
ATOM      6  H5  UNL     1      84.131  45.634  -7.592  1.00  0.00     0.168 HD
HETATM    7  C6  UNL     1      83.890  45.488  -9.697  1.00  0.00     0.101 A 
HETATM    8  C7  UNL     1      85.287  45.774 -10.155  1.00  0.00     0.091 C 
ENDROOT
BRANCH   1   9
HETATM    9  C4  UNL     1      82.633  45.138 -11.864  1.00  0.00     0.208 C 
BRANCH   9  10
HETATM   10  N2  UNL     1      81.572  44.288 -12.289  1.00  0.00    -0.359 N 
ATOM     11  H2  UNL     1      80.937  43.868 -11.612  1.00  0.00     0.166 HD
BRANCH  10  12
HETATM   12  C3  UNL     1      81.421  44.043 -13.663  1.00  0.00     0.105 C 
BRANCH  12  13
HETATM   13  C2  UNL     1      82.582  43.960 -14.567  1.00  0.00     0.099 C 
BRANCH  13  14
HETATM   14  N1  UNL     1      83.477  42.875 -14.464  1.00  0.00    -0.402 N 
HETATM   15  C1  UNL     1      84.748  42.996 -15.091  1.00  0.00     0.145 C 
ATOM     16  H1  UNL     1      83.220  42.030 -13.955  1.00  0.00     0.158 HD
ENDBRANCH  13  14
ENDBRANCH  12  13
ENDBRANCH  10  12
ENDBRANCH   9  10
ENDBRANCH   1   9
TORSDOF 5
ENDMDL
