MODEL 1
REMARK VINA RESULT: -5.277515523      0.000      0.000
REMARK  7 active torsions:
REMARK  status: ('A' for Active; 'I' for Inactive)
REMARK    1  A    between atoms: N1_2  and  C2_5 
REMARK    2  A    between atoms: C2_5  and  C3_6 
REMARK    3  A    between atoms: C3_6  and  N2_7 
REMARK    4  A    between atoms: N2_7  and  C4_10 
REMARK    5  A    between atoms: C6_12  and  N3_13 
REMARK    6  A    between atoms: C7_17  and  N4_18 
REMARK    7  A    between atoms: N4_18  and  C8_20 
ROOT
HETATM    1  C4  UNL     1      82.778  44.772 -10.462  1.00  0.00     0.212 C 
HETATM    2  C5  UNL     1      82.475  45.704  -9.280  1.00  0.00     0.070 C 
HETATM    3  C6  UNL     1      82.574  44.485  -8.405  1.00  0.00     0.210 C 
HETATM    4  C7  UNL     1      82.193  43.668  -9.633  1.00  0.00     0.145 C 
ENDROOT
BRANCH   1   5
HETATM    5  N2  UNL     1      82.060  45.126 -11.665  1.00  0.00    -0.067 N 
ATOM      6  H22 UNL     1      81.788  46.109 -11.678  1.00  0.00     0.277 HD
ATOM      7  H21 UNL     1      81.126  44.718 -11.694  1.00  0.00     0.277 HD
BRANCH   5   8
HETATM    8  C3  UNL     1      82.855  44.761 -12.821  1.00  0.00     0.260 C 
BRANCH   8   9
HETATM    9  C2  UNL     1      82.058  44.104 -13.895  1.00  0.00     0.259 C 
BRANCH   9  10
HETATM   10  N1  UNL     1      80.645  44.336 -13.825  1.00  0.00    -0.077 N 
HETATM   11  C1  UNL     1      80.040  44.330 -15.157  1.00  0.00     0.267 C 
ATOM     12  H12 UNL     1      80.430  45.196 -13.319  1.00  0.00     0.276 HD
ATOM     13  H11 UNL     1      80.187  43.670 -13.202  1.00  0.00     0.276 HD
ENDBRANCH   9  10
ENDBRANCH   8   9
ENDBRANCH   5   8
ENDBRANCH   1   5
BRANCH   4  14
HETATM   14  N4  UNL     1      80.752  43.530  -9.732  1.00  0.00    -0.360 N 
ATOM     15  H4  UNL     1      80.138  44.193  -9.259  1.00  0.00     0.162 HD
BRANCH  14  16
HETATM   16  C8  UNL     1      80.206  42.465 -10.491  1.00  0.00     0.348 C 
HETATM   17  O1  UNL     1      80.004  42.571 -11.727  1.00  0.00    -0.284 OA
ENDBRANCH  14  16
ENDBRANCH   4  14
BRANCH   3  18
HETATM   18  N3  UNL     1      83.931  44.298  -7.963  1.00  0.00    -0.073 N 
ATOM     19  H33 UNL     1      84.599  44.769  -8.575  1.00  0.00     0.274 HD
ATOM     20  H32 UNL     1      84.126  44.812  -7.104  1.00  0.00     0.274 HD
ATOM     21  H31 UNL     1      84.137  43.304  -7.868  1.00  0.00     0.274 HD
ENDBRANCH   3  18
TORSDOF 7
ENDMDL
MODEL 2
REMARK VINA RESULT: -5.257312322      2.890      4.345
REMARK  7 active torsions:
REMARK  status: ('A' for Active; 'I' for Inactive)
REMARK    1  A    between atoms: N1_2  and  C2_5 
REMARK    2  A    between atoms: C2_5  and  C3_6 
REMARK    3  A    between atoms: C3_6  and  N2_7 
REMARK    4  A    between atoms: N2_7  and  C4_10 
REMARK    5  A    between atoms: C6_12  and  N3_13 
REMARK    6  A    between atoms: C7_17  and  N4_18 
REMARK    7  A    between atoms: N4_18  and  C8_20 
ROOT
HETATM    1  C4  UNL     1      83.851  44.007  -9.531  1.00  0.00     0.212 C 
HETATM    2  C5  UNL     1      83.877  45.399  -8.883  1.00  0.00     0.070 C 
HETATM    3  C6  UNL     1      82.377  45.305  -8.827  1.00  0.00     0.210 C 
HETATM    4  C7  UNL     1      82.469  44.346 -10.006  1.00  0.00     0.145 C 
ENDROOT
BRANCH   1   5
HETATM    5  N2  UNL     1      84.860  43.835 -10.551  1.00  0.00    -0.067 N 
ATOM      6  H22 UNL     1      84.504  44.032 -11.486  1.00  0.00     0.277 HD
ATOM      7  H21 UNL     1      85.104  42.855 -10.694  1.00  0.00     0.277 HD
BRANCH   5   8
HETATM    8  C3  UNL     1      86.015  44.647 -10.222  1.00  0.00     0.260 C 
BRANCH   8   9
HETATM    9  C2  UNL     1      86.676  45.236 -11.420  1.00  0.00     0.259 C 
BRANCH   9  10
HETATM   10  N1  UNL     1      87.975  45.793 -11.180  1.00  0.00    -0.077 N 
HETATM   11  C1  UNL     1      87.994  46.582  -9.949  1.00  0.00     0.267 C 
ATOM     12  H12 UNL     1      88.304  46.337 -11.979  1.00  0.00     0.276 HD
ATOM     13  H11 UNL     1      88.697  45.072 -11.175  1.00  0.00     0.276 HD
ENDBRANCH   9  10
ENDBRANCH   8   9
ENDBRANCH   5   8
ENDBRANCH   1   5
BRANCH   4  14
HETATM   14  N4  UNL     1      82.417  45.068 -11.262  1.00  0.00    -0.360 N 
ATOM     15  H4  UNL     1      82.823  46.000 -11.337  1.00  0.00     0.162 HD
BRANCH  14  16
HETATM   16  C8  UNL     1      81.796  44.467 -12.385  1.00  0.00     0.348 C 
HETATM   17  O1  UNL     1      81.338  43.297 -12.339  1.00  0.00    -0.284 OA
ENDBRANCH  14  16
ENDBRANCH   4  14
BRANCH   3  18
HETATM   18  N3  UNL     1      81.964  44.693  -7.591  1.00  0.00    -0.073 N 
ATOM     19  H33 UNL     1      80.949  44.607  -7.530  1.00  0.00     0.274 HD
ATOM     20  H32 UNL     1      82.201  43.702  -7.559  1.00  0.00     0.274 HD
ATOM     21  H31 UNL     1      82.352  45.203  -6.798  1.00  0.00     0.274 HD
ENDBRANCH   3  18
TORSDOF 7
ENDMDL
MODEL 3
REMARK VINA RESULT: -5.247085967      2.609      5.097
REMARK  7 active torsions:
REMARK  status: ('A' for Active; 'I' for Inactive)
REMARK    1  A    between atoms: N1_2  and  C2_5 
REMARK    2  A    between atoms: C2_5  and  C3_6 
REMARK    3  A    between atoms: C3_6  and  N2_7 
REMARK    4  A    between atoms: N2_7  and  C4_10 
REMARK    5  A    between atoms: C6_12  and  N3_13 
REMARK    6  A    between atoms: C7_17  and  N4_18 
REMARK    7  A    between atoms: N4_18  and  C8_20 
ROOT
HETATM    1  C4  UNL     1      83.851  43.843  -9.130  1.00  0.00     0.212 C 
HETATM    2  C5  UNL     1      83.845  45.331  -8.750  1.00  0.00     0.070 C 
HETATM    3  C6  UNL     1      82.353  45.281  -8.931  1.00  0.00     0.210 C 
HETATM    4  C7  UNL     1      82.584  44.116  -9.884  1.00  0.00     0.145 C 
ENDROOT
BRANCH   1   5
HETATM    5  N2  UNL     1      85.002  43.462  -9.918  1.00  0.00    -0.067 N 
ATOM      6  H22 UNL     1      85.426  44.257 -10.395  1.00  0.00     0.277 HD
ATOM      7  H21 UNL     1      84.745  42.919 -10.742  1.00  0.00     0.277 HD
BRANCH   5   8
HETATM    8  C3  UNL     1      85.948  42.761  -9.072  1.00  0.00     0.260 C 
BRANCH   8   9
HETATM    9  C2  UNL     1      86.924  43.672  -8.408  1.00  0.00     0.259 C 
BRANCH   9  10
HETATM   10  N1  UNL     1      86.937  43.601  -6.976  1.00  0.00    -0.077 N 
HETATM   11  C1  UNL     1      86.839  44.933  -6.379  1.00  0.00     0.267 C 
ATOM     12  H12 UNL     1      87.754  43.096  -6.633  1.00  0.00     0.276 HD
ATOM     13  H11 UNL     1      86.210  42.978  -6.625  1.00  0.00     0.276 HD
ENDBRANCH   9  10
ENDBRANCH   8   9
ENDBRANCH   5   8
ENDBRANCH   1   5
BRANCH   4  14
HETATM   14  N4  UNL     1      82.773  44.592 -11.241  1.00  0.00    -0.360 N 
ATOM     15  H4  UNL     1      83.579  45.170 -11.476  1.00  0.00     0.162 HD
BRANCH  14  16
HETATM   16  C8  UNL     1      81.827  44.245 -12.238  1.00  0.00     0.348 C 
HETATM   17  O1  UNL     1      81.118  43.211 -12.144  1.00  0.00    -0.284 OA
ENDBRANCH  14  16
ENDBRANCH   4  14
BRANCH   3  18
HETATM   18  N3  UNL     1      81.714  44.920  -7.693  1.00  0.00    -0.073 N 
ATOM     19  H33 UNL     1      81.484  45.739  -7.130  1.00  0.00     0.274 HD
ATOM     20  H32 UNL     1      80.768  44.569  -7.841  1.00  0.00     0.274 HD
ATOM     21  H31 UNL     1      82.291  44.254  -7.180  1.00  0.00     0.274 HD
ENDBRANCH   3  18
TORSDOF 7
ENDMDL
MODEL 4
REMARK VINA RESULT: -5.229781155      2.813      3.683
REMARK  7 active torsions:
REMARK  status: ('A' for Active; 'I' for Inactive)
REMARK    1  A    between atoms: N1_2  and  C2_5 
REMARK    2  A    between atoms: C2_5  and  C3_6 
REMARK    3  A    between atoms: C3_6  and  N2_7 
REMARK    4  A    between atoms: N2_7  and  C4_10 
REMARK    5  A    between atoms: C6_12  and  N3_13 
REMARK    6  A    between atoms: C7_17  and  N4_18 
REMARK    7  A    between atoms: N4_18  and  C8_20 
ROOT
HETATM    1  C4  UNL     1      83.410  44.723  -9.884  1.00  0.00     0.212 C 
HETATM    2  C5  UNL     1      82.325  43.809  -9.298  1.00  0.00     0.070 C 
HETATM    3  C6  UNL     1      82.303  44.737  -8.116  1.00  0.00     0.210 C 
HETATM    4  C7  UNL     1      83.740  45.098  -8.470  1.00  0.00     0.145 C 
ENDROOT
BRANCH   1   5
HETATM    5  N2  UNL     1      84.428  44.002 -10.615  1.00  0.00    -0.067 N 
ATOM      6  H22 UNL     1      84.153  43.041 -10.816  1.00  0.00     0.277 HD
ATOM      7  H21 UNL     1      85.248  43.801 -10.042  1.00  0.00     0.277 HD
BRANCH   5   8
HETATM    8  C3  UNL     1      84.765  44.739 -11.816  1.00  0.00     0.260 C 
BRANCH   8   9
HETATM    9  C2  UNL     1      83.568  45.158 -12.599  1.00  0.00     0.259 C 
BRANCH   9  10
HETATM   10  N1  UNL     1      82.940  44.110 -13.348  1.00  0.00    -0.077 N 
HETATM   11  C1  UNL     1      81.492  44.106 -13.143  1.00  0.00     0.267 C 
ATOM     12  H12 UNL     1      83.351  43.200 -13.137  1.00  0.00     0.276 HD
ATOM     13  H11 UNL     1      83.178  44.162 -14.339  1.00  0.00     0.276 HD
ENDBRANCH   9  10
ENDBRANCH   8   9
ENDBRANCH   5   8
ENDBRANCH   1   5
BRANCH   4  14
HETATM   14  N4  UNL     1      84.672  44.209  -7.805  1.00  0.00    -0.360 N 
ATOM     15  H4  UNL     1      84.368  43.289  -7.486  1.00  0.00     0.162 HD
BRANCH  14  16
HETATM   16  C8  UNL     1      86.010  44.629  -7.603  1.00  0.00     0.348 C 
HETATM   17  O1  UNL     1      86.749  44.968  -8.562  1.00  0.00    -0.284 OA
ENDBRANCH  14  16
ENDBRANCH   4  14
BRANCH   3  18
HETATM   18  N3  UNL     1      81.352  45.796  -8.332  1.00  0.00    -0.073 N 
ATOM     19  H33 UNL     1      81.492  46.255  -9.232  1.00  0.00     0.274 HD
ATOM     20  H32 UNL     1      80.411  45.436  -8.491  1.00  0.00     0.274 HD
ATOM     21  H31 UNL     1      81.380  46.459  -7.557  1.00  0.00     0.274 HD
ENDBRANCH   3  18
TORSDOF 7
ENDMDL
MODEL 5
REMARK VINA RESULT: -5.190854240      4.003      5.609
REMARK  7 active torsions:
REMARK  status: ('A' for Active; 'I' for Inactive)
REMARK    1  A    between atoms: N1_2  and  C2_5 
REMARK    2  A    between atoms: C2_5  and  C3_6 
REMARK    3  A    between atoms: C3_6  and  N2_7 
REMARK    4  A    between atoms: N2_7  and  C4_10 
REMARK    5  A    between atoms: C6_12  and  N3_13 
REMARK    6  A    between atoms: C7_17  and  N4_18 
REMARK    7  A    between atoms: N4_18  and  C8_20 
ROOT
HETATM    1  C4  UNL     1      83.860  45.582  -9.976  1.00  0.00     0.212 C 
HETATM    2  C5  UNL     1      82.657  44.631 -10.042  1.00  0.00     0.070 C 
HETATM    3  C6  UNL     1      82.572  44.774  -8.548  1.00  0.00     0.210 C 
HETATM    4  C7  UNL     1      84.060  45.098  -8.571  1.00  0.00     0.145 C 
ENDROOT
BRANCH   1   5
HETATM    5  N2  UNL     1      84.898  45.253 -10.927  1.00  0.00    -0.067 N 
ATOM      6  H22 UNL     1      84.521  44.979 -11.834  1.00  0.00     0.277 HD
ATOM      7  H21 UNL     1      85.371  44.379 -10.698  1.00  0.00     0.277 HD
BRANCH   5   8
HETATM    8  C3  UNL     1      85.821  46.367 -11.030  1.00  0.00     0.260 C 
BRANCH   8   9
HETATM    9  C2  UNL     1      87.208  46.017 -10.616  1.00  0.00     0.259 C 
BRANCH   9  10
HETATM   10  N1  UNL     1      88.019  47.131 -10.221  1.00  0.00    -0.077 N 
HETATM   11  C1  UNL     1      88.815  46.814  -9.035  1.00  0.00     0.267 C 
ATOM     12  H12 UNL     1      87.459  47.972 -10.082  1.00  0.00     0.276 HD
ATOM     13  H11 UNL     1      88.606  47.458 -10.989  1.00  0.00     0.276 HD
ENDBRANCH   9  10
ENDBRANCH   8   9
ENDBRANCH   5   8
ENDBRANCH   1   5
BRANCH   4  14
HETATM   14  N4  UNL     1      84.851  43.888  -8.451  1.00  0.00    -0.360 N 
ATOM     15  H4  UNL     1      84.524  43.016  -8.864  1.00  0.00     0.162 HD
BRANCH  14  16
HETATM   16  C8  UNL     1      86.085  43.931  -7.754  1.00  0.00     0.348 C 
HETATM   17  O1  UNL     1      86.265  44.700  -6.776  1.00  0.00    -0.284 OA
ENDBRANCH  14  16
ENDBRANCH   4  14
BRANCH   3  18
HETATM   18  N3  UNL     1      81.726  45.886  -8.202  1.00  0.00    -0.073 N 
ATOM     19  H33 UNL     1      81.167  46.200  -8.995  1.00  0.00     0.274 HD
ATOM     20  H32 UNL     1      80.966  45.607  -7.582  1.00  0.00     0.274 HD
ATOM     21  H31 UNL     1      82.283  46.642  -7.805  1.00  0.00     0.274 HD
ENDBRANCH   3  18
TORSDOF 7
ENDMDL
