MODEL 1
REMARK VINA RESULT: -4.237232609      0.000      0.000
REMARK  8 active torsions:
REMARK  status: ('A' for Active; 'I' for Inactive)
REMARK    1  A    between atoms: C2_2  and  C3_3 
REMARK    2  A    between atoms: C3_3  and  C4_4 
REMARK    3  A    between atoms: C4_4  and  N1_5 
REMARK    4  A    between atoms: C4_4  and  C5_9 
REMARK    5  A    between atoms: C5_9  and  C6_10 
REMARK    6  A    between atoms: C6_10  and  N2_11 
REMARK    7  A    between atoms: C10_18  and  N5_19 
REMARK    8  A    between atoms: N5_19  and  C11_21 
ROOT
HETATM    1  N2  UNL     1      50.068  26.998  15.161  1.00  0.00    -0.126 N 
HETATM    2  N3  UNL     1      50.609  25.865  15.783  1.00  0.00    -0.092 NA
HETATM    3  C7  UNL     1      50.359  24.789  14.834  1.00  0.00     0.131 C 
HETATM    4  C8  UNL     1      49.885  23.533  15.534  1.00  0.00     0.060 C 
HETATM    5  C9  UNL     1      51.628  24.552  14.045  1.00  0.00     0.060 C 
HETATM    6  N4  UNL     1      49.279  25.269  14.016  1.00  0.00    -0.201 N 
ATOM      7  H4  UNL     1      48.723  24.699  13.379  1.00  0.00     0.180 HD
HETATM    8  C10 UNL     1      49.127  26.523  14.213  1.00  0.00     0.691 C 
ENDROOT
BRANCH   1   9
HETATM    9  C6  UNL     1      50.379  28.397  15.402  1.00  0.00     0.166 C 
BRANCH   9  10
HETATM   10  C5  UNL     1      51.805  28.724  15.054  1.00  0.00     0.055 C 
BRANCH  10  11
HETATM   11  C4  UNL     1      52.632  28.431  16.313  1.00  0.00     0.185 C 
BRANCH  11  12
HETATM   12  C3  UNL     1      53.647  29.521  16.564  1.00  0.00     0.032 C 
BRANCH  12  13
HETATM   13  C2  UNL     1      54.663  29.112  17.600  1.00  0.00    -0.002 C 
HETATM   14  C1  UNL     1      54.742  30.271  18.603  1.00  0.00     0.005 C 
ENDBRANCH  12  13
ENDBRANCH  11  12
BRANCH  11  15
HETATM   15  N1  UNL     1      53.311  27.170  16.151  1.00  0.00    -0.075 N 
ATOM     16  H13 UNL     1      54.282  27.290  15.866  1.00  0.00     0.274 HD
ATOM     17  H12 UNL     1      53.477  26.705  17.044  1.00  0.00     0.274 HD
ATOM     18  H11 UNL     1      52.787  26.583  15.502  1.00  0.00     0.274 HD
ENDBRANCH  11  15
ENDBRANCH  10  11
ENDBRANCH   9  10
ENDBRANCH   1   9
BRANCH   8  19
HETATM   19  N5  UNL     1      48.139  27.383  13.576  1.00  0.00    -0.204 N 
ATOM     20  H5  UNL     1      47.347  27.722  14.123  1.00  0.00     0.179 HD
BRANCH  19  21
HETATM   21  C11 UNL     1      48.253  27.764  12.202  1.00  0.00     0.227 C 
HETATM   22  C12 UNL     1      48.754  29.181  12.029  1.00  0.00     0.176 C 
HETATM   23  N6  UNL     1      47.943  29.624  10.891  1.00  0.00    -0.127 NA
HETATM   24  N7  UNL     1      46.690  29.129  11.249  1.00  0.00    -0.038 NA
HETATM   25  N8  UNL     1      46.954  27.806  11.607  1.00  0.00    -0.103 NA
ENDBRANCH  19  21
ENDBRANCH   8  19
TORSDOF 8
ENDMDL
MODEL 2
REMARK VINA RESULT: -3.601875244      1.343      4.388
REMARK  8 active torsions:
REMARK  status: ('A' for Active; 'I' for Inactive)
REMARK    1  A    between atoms: C2_2  and  C3_3 
REMARK    2  A    between atoms: C3_3  and  C4_4 
REMARK    3  A    between atoms: C4_4  and  N1_5 
REMARK    4  A    between atoms: C4_4  and  C5_9 
REMARK    5  A    between atoms: C5_9  and  C6_10 
REMARK    6  A    between atoms: C6_10  and  N2_11 
REMARK    7  A    between atoms: C10_18  and  N5_19 
REMARK    8  A    between atoms: N5_19  and  C11_21 
ROOT
HETATM    1  N2  UNL     1      49.655  28.027  14.492  1.00  0.00    -0.126 N 
HETATM    2  N3  UNL     1      49.346  28.863  13.411  1.00  0.00    -0.092 NA
HETATM    3  C7  UNL     1      48.111  28.304  12.876  1.00  0.00     0.131 C 
HETATM    4  C8  UNL     1      48.130  28.270  11.363  1.00  0.00     0.060 C 
HETATM    5  C9  UNL     1      46.954  29.120  13.410  1.00  0.00     0.060 C 
HETATM    6  N4  UNL     1      48.094  26.946  13.345  1.00  0.00    -0.201 N 
ATOM      7  H4  UNL     1      47.477  26.210  13.001  1.00  0.00     0.180 HD
HETATM    8  C10 UNL     1      48.975  26.805  14.261  1.00  0.00     0.691 C 
ENDROOT
BRANCH   1   9
HETATM    9  C6  UNL     1      50.496  28.311  15.643  1.00  0.00     0.166 C 
BRANCH   9  10
HETATM   10  C5  UNL     1      51.889  28.707  15.237  1.00  0.00     0.055 C 
BRANCH  10  11
HETATM   11  C4  UNL     1      52.788  28.409  16.444  1.00  0.00     0.185 C 
BRANCH  11  12
HETATM   12  C3  UNL     1      53.799  29.511  16.655  1.00  0.00     0.032 C 
BRANCH  12  13
HETATM   13  C2  UNL     1      54.809  29.151  17.715  1.00  0.00    -0.002 C 
HETATM   14  C1  UNL     1      54.779  30.293  18.740  1.00  0.00     0.005 C 
ENDBRANCH  12  13
ENDBRANCH  11  12
BRANCH  11  15
HETATM   15  N1  UNL     1      53.476  27.162  16.227  1.00  0.00    -0.075 N 
ATOM     16  H13 UNL     1      54.483  27.248  16.366  1.00  0.00     0.274 HD
ATOM     17  H12 UNL     1      53.285  26.482  16.964  1.00  0.00     0.274 HD
ATOM     18  H11 UNL     1      53.244  26.802  15.301  1.00  0.00     0.274 HD
ENDBRANCH  11  15
ENDBRANCH  10  11
ENDBRANCH   9  10
ENDBRANCH   1   9
BRANCH   8  19
HETATM   19  N5  UNL     1      49.273  25.580  14.990  1.00  0.00    -0.204 N 
ATOM     20  H5  UNL     1      48.817  25.410  15.886  1.00  0.00     0.179 HD
BRANCH  19  21
HETATM   21  C11 UNL     1      50.191  24.609  14.478  1.00  0.00     0.227 C 
HETATM   22  C12 UNL     1      50.328  23.403  15.382  1.00  0.00     0.176 C 
HETATM   23  N6  UNL     1      51.764  23.132  15.266  1.00  0.00    -0.127 NA
HETATM   24  N7  UNL     1      52.286  24.420  15.367  1.00  0.00    -0.038 NA
HETATM   25  N8  UNL     1      51.512  25.156  14.469  1.00  0.00    -0.103 NA
ENDBRANCH  19  21
ENDBRANCH   8  19
TORSDOF 8
ENDMDL
MODEL 3
REMARK VINA RESULT: -3.511007815      0.914      1.033
REMARK  8 active torsions:
REMARK  status: ('A' for Active; 'I' for Inactive)
REMARK    1  A    between atoms: C2_2  and  C3_3 
REMARK    2  A    between atoms: C3_3  and  C4_4 
REMARK    3  A    between atoms: C4_4  and  N1_5 
REMARK    4  A    between atoms: C4_4  and  C5_9 
REMARK    5  A    between atoms: C5_9  and  C6_10 
REMARK    6  A    between atoms: C6_10  and  N2_11 
REMARK    7  A    between atoms: C10_18  and  N5_19 
REMARK    8  A    between atoms: N5_19  and  C11_21 
ROOT
HETATM    1  N2  UNL     1      50.525  26.766  15.440  1.00  0.00    -0.126 N 
HETATM    2  N3  UNL     1      51.319  25.665  15.789  1.00  0.00    -0.092 NA
HETATM    3  C7  UNL     1      50.870  24.609  14.891  1.00  0.00     0.131 C 
HETATM    4  C8  UNL     1      50.736  23.287  15.616  1.00  0.00     0.060 C 
HETATM    5  C9  UNL     1      51.844  24.526  13.737  1.00  0.00     0.060 C 
HETATM    6  N4  UNL     1      49.555  25.018  14.479  1.00  0.00    -0.201 N 
ATOM      7  H4  UNL     1      48.874  24.424  14.006  1.00  0.00     0.180 HD
HETATM    8  C10 UNL     1      49.375  26.243  14.797  1.00  0.00     0.691 C 
ENDROOT
BRANCH   1   9
HETATM    9  C6  UNL     1      50.786  28.177  15.669  1.00  0.00     0.166 C 
BRANCH   9  10
HETATM   10  C5  UNL     1      52.198  28.553  15.311  1.00  0.00     0.055 C 
BRANCH  10  11
HETATM   11  C4  UNL     1      53.025  28.382  16.592  1.00  0.00     0.185 C 
BRANCH  11  12
HETATM   12  C3  UNL     1      53.868  29.607  16.863  1.00  0.00     0.032 C 
BRANCH  12  13
HETATM   13  C2  UNL     1      55.093  29.275  17.676  1.00  0.00    -0.002 C 
HETATM   14  C1  UNL     1      54.927  30.001  19.017  1.00  0.00     0.005 C 
ENDBRANCH  12  13
ENDBRANCH  11  12
BRANCH  11  15
HETATM   15  N1  UNL     1      53.880  27.231  16.455  1.00  0.00    -0.075 N 
ATOM     16  H13 UNL     1      53.504  26.548  15.798  1.00  0.00     0.274 HD
ATOM     17  H12 UNL     1      54.745  27.450  15.959  1.00  0.00     0.274 HD
ATOM     18  H11 UNL     1      54.055  26.827  17.375  1.00  0.00     0.274 HD
ENDBRANCH  11  15
ENDBRANCH  10  11
ENDBRANCH   9  10
ENDBRANCH   1   9
BRANCH   8  19
HETATM   19  N5  UNL     1      48.175  27.030  14.553  1.00  0.00    -0.204 N 
ATOM     20  H5  UNL     1      47.351  26.876  15.136  1.00  0.00     0.179 HD
BRANCH  19  21
HETATM   21  C11 UNL     1      48.123  28.015  13.517  1.00  0.00     0.227 C 
HETATM   22  C12 UNL     1      46.918  28.923  13.635  1.00  0.00     0.176 C 
HETATM   23  N6  UNL     1      46.555  29.086  12.224  1.00  0.00    -0.127 NA
HETATM   24  N7  UNL     1      46.676  27.774  11.767  1.00  0.00    -0.038 NA
HETATM   25  N8  UNL     1      47.921  27.374  12.256  1.00  0.00    -0.103 NA
ENDBRANCH  19  21
ENDBRANCH   8  19
TORSDOF 8
ENDMDL
MODEL 4
REMARK VINA RESULT: -3.275472582      2.349      4.330
REMARK  8 active torsions:
REMARK  status: ('A' for Active; 'I' for Inactive)
REMARK    1  A    between atoms: C2_2  and  C3_3 
REMARK    2  A    between atoms: C3_3  and  C4_4 
REMARK    3  A    between atoms: C4_4  and  N1_5 
REMARK    4  A    between atoms: C4_4  and  C5_9 
REMARK    5  A    between atoms: C5_9  and  C6_10 
REMARK    6  A    between atoms: C6_10  and  N2_11 
REMARK    7  A    between atoms: C10_18  and  N5_19 
REMARK    8  A    between atoms: N5_19  and  C11_21 
ROOT
HETATM    1  N2  UNL     1      49.264  28.956  13.677  1.00  0.00    -0.126 N 
HETATM    2  N3  UNL     1      48.360  29.061  14.742  1.00  0.00    -0.092 NA
HETATM    3  C7  UNL     1      47.071  28.747  14.141  1.00  0.00     0.131 C 
HETATM    4  C8  UNL     1      45.988  29.684  14.634  1.00  0.00     0.060 C 
HETATM    5  C9  UNL     1      46.749  27.300  14.445  1.00  0.00     0.060 C 
HETATM    6  N4  UNL     1      47.255  28.991  12.737  1.00  0.00    -0.201 N 
ATOM      7  H4  UNL     1      46.508  29.060  12.047  1.00  0.00     0.180 HD
HETATM    8  C10 UNL     1      48.505  29.107  12.490  1.00  0.00     0.691 C 
ENDROOT
BRANCH   1   9
HETATM    9  C6  UNL     1      50.700  28.735  13.729  1.00  0.00     0.166 C 
BRANCH   9  10
HETATM   10  C5  UNL     1      51.127  28.115  15.031  1.00  0.00     0.055 C 
BRANCH  10  11
HETATM   11  C4  UNL     1      51.463  26.651  14.720  1.00  0.00     0.185 C 
BRANCH  11  12
HETATM   12  C3  UNL     1      50.323  25.737  15.107  1.00  0.00     0.032 C 
BRANCH  12  13
HETATM   13  C2  UNL     1      50.713  24.284  15.012  1.00  0.00    -0.002 C 
HETATM   14  C1  UNL     1      49.409  23.483  15.121  1.00  0.00     0.005 C 
ENDBRANCH  12  13
ENDBRANCH  11  12
BRANCH  11  15
HETATM   15  N1  UNL     1      52.649  26.272  15.443  1.00  0.00    -0.075 N 
ATOM     16  H13 UNL     1      53.020  27.039  16.004  1.00  0.00     0.274 HD
ATOM     17  H12 UNL     1      52.447  25.620  16.202  1.00  0.00     0.274 HD
ATOM     18  H11 UNL     1      53.341  25.901  14.792  1.00  0.00     0.274 HD
ENDBRANCH  11  15
ENDBRANCH  10  11
ENDBRANCH   9  10
ENDBRANCH   1   9
BRANCH   8  19
HETATM   19  N5  UNL     1      49.107  29.359  11.189  1.00  0.00    -0.204 N 
ATOM     20  H5  UNL     1      50.055  29.735  11.143  1.00  0.00     0.179 HD
BRANCH  19  21
HETATM   21  C11 UNL     1      48.401  29.093   9.973  1.00  0.00     0.227 C 
HETATM   22  C12 UNL     1      47.966  30.357   9.263  1.00  0.00     0.176 C 
HETATM   23  N6  UNL     1      46.645  29.954   8.768  1.00  0.00    -0.127 NA
HETATM   24  N7  UNL     1      46.130  29.304   9.887  1.00  0.00    -0.038 NA
HETATM   25  N8  UNL     1      47.162  28.446  10.270  1.00  0.00    -0.103 NA
ENDBRANCH  19  21
ENDBRANCH   8  19
TORSDOF 8
ENDMDL
MODEL 5
REMARK VINA RESULT: -3.199418114      1.685      2.380
REMARK  8 active torsions:
REMARK  status: ('A' for Active; 'I' for Inactive)
REMARK    1  A    between atoms: C2_2  and  C3_3 
REMARK    2  A    between atoms: C3_3  and  C4_4 
REMARK    3  A    between atoms: C4_4  and  N1_5 
REMARK    4  A    between atoms: C4_4  and  C5_9 
REMARK    5  A    between atoms: C5_9  and  C6_10 
REMARK    6  A    between atoms: C6_10  and  N2_11 
REMARK    7  A    between atoms: C10_18  and  N5_19 
REMARK    8  A    between atoms: N5_19  and  C11_21 
ROOT
HETATM    1  N2  UNL     1      52.013  27.416  15.599  1.00  0.00    -0.126 N 
HETATM    2  N3  UNL     1      52.563  26.130  15.695  1.00  0.00    -0.092 NA
HETATM    3  C7  UNL     1      51.652  25.300  14.919  1.00  0.00     0.131 C 
HETATM    4  C8  UNL     1      51.372  23.985  15.617  1.00  0.00     0.060 C 
HETATM    5  C9  UNL     1      52.254  25.095  13.547  1.00  0.00     0.060 C 
HETATM    6  N4  UNL     1      50.424  26.045  14.881  1.00  0.00    -0.201 N 
ATOM      7  H4  UNL     1      49.519  25.677  14.589  1.00  0.00     0.180 HD
HETATM    8  C10 UNL     1      50.646  27.243  15.269  1.00  0.00     0.691 C 
ENDROOT
BRANCH   1   9
HETATM    9  C6  UNL     1      52.672  28.697  15.790  1.00  0.00     0.166 C 
BRANCH   9  10
HETATM   10  C5  UNL     1      53.189  28.861  17.193  1.00  0.00     0.055 C 
BRANCH  10  11
HETATM   11  C4  UNL     1      54.524  29.607  17.074  1.00  0.00     0.185 C 
BRANCH  11  12
HETATM   12  C3  UNL     1      55.595  28.941  17.906  1.00  0.00     0.032 C 
BRANCH  12  13
HETATM   13  C2  UNL     1      55.618  29.469  19.317  1.00  0.00    -0.002 C 
HETATM   14  C1  UNL     1      55.655  28.240  20.234  1.00  0.00     0.005 C 
ENDBRANCH  12  13
ENDBRANCH  11  12
BRANCH  11  15
HETATM   15  N1  UNL     1      54.349  30.967  17.516  1.00  0.00    -0.075 N 
ATOM     16  H13 UNL     1      54.242  31.032  18.528  1.00  0.00     0.274 HD
ATOM     17  H12 UNL     1      55.205  31.515  17.423  1.00  0.00     0.274 HD
ATOM     18  H11 UNL     1      53.565  31.388  17.017  1.00  0.00     0.274 HD
ENDBRANCH  11  15
ENDBRANCH  10  11
ENDBRANCH   9  10
ENDBRANCH   1   9
BRANCH   8  19
HETATM   19  N5  UNL     1      49.663  28.312  15.374  1.00  0.00    -0.204 N 
ATOM     20  H5  UNL     1      49.459  28.714  16.289  1.00  0.00     0.179 HD
BRANCH  19  21
HETATM   21  C11 UNL     1      48.976  28.812  14.223  1.00  0.00     0.227 C 
HETATM   22  C12 UNL     1      47.478  28.613  14.306  1.00  0.00     0.176 C 
HETATM   23  N6  UNL     1      47.168  28.268  12.914  1.00  0.00    -0.127 NA
HETATM   24  N7  UNL     1      48.199  27.376  12.627  1.00  0.00    -0.038 NA
HETATM   25  N8  UNL     1      49.340  28.043  13.075  1.00  0.00    -0.103 NA
ENDBRANCH  19  21
ENDBRANCH   8  19
TORSDOF 8
ENDMDL
