MODEL 1
REMARK VINA RESULT: -5.636191559      0.000      0.000
REMARK  10 active torsions:
REMARK  status: ('A' for Active; 'I' for Inactive)
REMARK    1  A    between atoms: N1_1  and  C1_4 
REMARK    2  A    between atoms: C2_7  and  S1_8 
REMARK    3  A    between atoms: S1_8  and  C3_9 
REMARK    4  A    between atoms: C3_9  and  C4_10 
REMARK    5  A    between atoms: C4_10  and  C5_11 
REMARK    6  A    between atoms: C5_11  and  C6_12 
REMARK    7  A    between atoms: C6_12  and  N3_13 
REMARK    8  A    between atoms: C6_12  and  N4_17 
REMARK    9  A    between atoms: C7_21  and  N5_22 
REMARK   10  A    between atoms: C8_25  and  N6_26 
ROOT
HETATM    1  C1  UNL     1      49.811  24.516  14.909  1.00  0.00     0.678 A 
HETATM    2  N2  UNL     1      49.013  25.575  14.736  1.00  0.00    -0.183 N 
ATOM      3  H2  UNL     1      48.017  25.430  14.570  1.00  0.00     0.185 HD
HETATM    4  C2  UNL     1      49.508  26.851  14.778  1.00  0.00     0.123 A 
HETATM    5  C7  UNL     1      50.843  26.985  15.002  1.00  0.00     0.180 A 
HETATM    6  C8  UNL     1      51.663  25.862  15.182  1.00  0.00     0.150 A 
HETATM    7  N7  UNL     1      51.134  24.639  15.132  1.00  0.00    -0.175 N 
ATOM      8  H7  UNL     1      51.718  23.813  15.261  1.00  0.00     0.186 HD
ENDROOT
BRANCH   4   9
HETATM    9  S1  UNL     1      48.324  28.128  14.572  1.00  0.00    -0.109 SA
BRANCH   9  10
HETATM   10  C3  UNL     1      48.208  28.924  13.006  1.00  0.00     0.081 C 
BRANCH  10  11
HETATM   11  C4  UNL     1      47.875  27.837  11.942  1.00  0.00     0.014 C 
BRANCH  11  12
HETATM   12  C5  UNL     1      48.230  28.440  10.620  1.00  0.00     0.063 C 
BRANCH  12  13
HETATM   13  C6  UNL     1      47.340  29.583  10.226  1.00  0.00     0.378 C 
BRANCH  13  14
HETATM   14  N3  UNL     1      45.950  29.215  10.076  1.00  0.00    -0.051 N 
ATOM     15  H33 UNL     1      45.623  29.427   9.133  1.00  0.00     0.276 HD
ATOM     16  H32 UNL     1      45.846  28.200  10.068  1.00  0.00     0.276 HD
ATOM     17  H31 UNL     1      45.336  29.635  10.773  1.00  0.00     0.276 HD
ENDBRANCH  13  14
BRANCH  13  18
HETATM   18  N4  UNL     1      47.822  30.045   8.916  1.00  0.00    -0.051 N 
ATOM     19  H43 UNL     1      48.055  29.284   8.278  1.00  0.00     0.276 HD
ATOM     20  H42 UNL     1      47.094  30.471   8.342  1.00  0.00     0.276 HD
ATOM     21  H41 UNL     1      48.606  30.670   9.105  1.00  0.00     0.276 HD
ENDBRANCH  13  18
ENDBRANCH  12  13
ENDBRANCH  11  12
ENDBRANCH  10  11
ENDBRANCH   9  10
ENDBRANCH   4   9
BRANCH   5  22
HETATM   22  N5  UNL     1      51.498  28.245  15.089  1.00  0.00    -0.109 N 
HETATM   23  O1  UNL     1      51.285  29.094  14.219  1.00  0.00    -0.532 OA
HETATM   24  O2  UNL     1      52.377  28.472  16.111  1.00  0.00    -0.532 OA
ENDBRANCH   5  22
BRANCH   1  25
HETATM   25  N1  UNL     1      49.292  23.312  14.861  1.00  0.00    -0.234 N 
ATOM     26  H12 UNL     1      48.573  23.118  14.163  1.00  0.00     0.174 HD
ATOM     27  H11 UNL     1      49.618  22.605  15.521  1.00  0.00     0.174 HD
ENDBRANCH   1  25
BRANCH   6  28
HETATM   28  N6  UNL     1      52.918  25.997  15.392  1.00  0.00    -0.383 N 
ATOM     29  H62 UNL     1      53.387  25.376  16.052  1.00  0.00     0.157 HD
ATOM     30  H61 UNL     1      53.452  26.719  14.907  1.00  0.00     0.157 HD
ENDBRANCH   6  28
TORSDOF 10
ENDMDL
MODEL 2
REMARK VINA RESULT: -5.629872581      3.566      6.271
REMARK  10 active torsions:
REMARK  status: ('A' for Active; 'I' for Inactive)
REMARK    1  A    between atoms: N1_1  and  C1_4 
REMARK    2  A    between atoms: C2_7  and  S1_8 
REMARK    3  A    between atoms: S1_8  and  C3_9 
REMARK    4  A    between atoms: C3_9  and  C4_10 
REMARK    5  A    between atoms: C4_10  and  C5_11 
REMARK    6  A    between atoms: C5_11  and  C6_12 
REMARK    7  A    between atoms: C6_12  and  N3_13 
REMARK    8  A    between atoms: C6_12  and  N4_17 
REMARK    9  A    between atoms: C7_21  and  N5_22 
REMARK   10  A    between atoms: C8_25  and  N6_26 
ROOT
HETATM    1  C1  UNL     1      48.997  26.744  14.979  1.00  0.00     0.678 A 
HETATM    2  N2  UNL     1      49.235  25.433  14.872  1.00  0.00    -0.183 N 
ATOM      3  H2  UNL     1      48.455  24.793  14.720  1.00  0.00     0.185 HD
HETATM    4  C2  UNL     1      50.507  24.933  14.961  1.00  0.00     0.123 A 
HETATM    5  C7  UNL     1      51.507  25.832  15.165  1.00  0.00     0.180 A 
HETATM    6  C8  UNL     1      51.236  27.204  15.275  1.00  0.00     0.150 A 
HETATM    7  N7  UNL     1      49.980  27.642  15.180  1.00  0.00    -0.175 N 
ATOM      8  H7  UNL     1      49.769  28.636  15.257  1.00  0.00     0.186 HD
ENDROOT
BRANCH   4   9
HETATM    9  S1  UNL     1      50.652  23.198  14.760  1.00  0.00    -0.109 SA
BRANCH   9  10
HETATM   10  C3  UNL     1      51.979  22.571  13.786  1.00  0.00     0.081 C 
BRANCH  10  11
HETATM   11  C4  UNL     1      51.969  21.019  13.910  1.00  0.00     0.014 C 
BRANCH  11  12
HETATM   12  C5  UNL     1      52.432  20.503  12.584  1.00  0.00     0.063 C 
BRANCH  12  13
HETATM   13  C6  UNL     1      51.360  19.791  11.812  1.00  0.00     0.378 C 
BRANCH  13  14
HETATM   14  N3  UNL     1      51.277  18.376  12.098  1.00  0.00    -0.051 N 
ATOM     15  H33 UNL     1      51.801  18.150  12.943  1.00  0.00     0.276 HD
ATOM     16  H32 UNL     1      50.337  18.127  12.407  1.00  0.00     0.276 HD
ATOM     17  H31 UNL     1      51.570  17.782  11.322  1.00  0.00     0.276 HD
ENDBRANCH  13  14
BRANCH  13  18
HETATM   18  N4  UNL     1      51.712  19.938  10.391  1.00  0.00    -0.051 N 
ATOM     19  H43 UNL     1      50.989  19.599   9.757  1.00  0.00     0.276 HD
ATOM     20  H42 UNL     1      51.715  20.906  10.071  1.00  0.00     0.276 HD
ATOM     21  H41 UNL     1      52.610  19.468  10.270  1.00  0.00     0.276 HD
ENDBRANCH  13  18
ENDBRANCH  12  13
ENDBRANCH  11  12
ENDBRANCH  10  11
ENDBRANCH   9  10
ENDBRANCH   4   9
BRANCH   5  22
HETATM   22  N5  UNL     1      52.878  25.466  15.262  1.00  0.00    -0.109 N 
HETATM   23  O1  UNL     1      53.555  25.390  14.233  1.00  0.00    -0.532 OA
HETATM   24  O2  UNL     1      53.404  25.166  16.488  1.00  0.00    -0.532 OA
ENDBRANCH   5  22
BRANCH   1  25
HETATM   25  N1  UNL     1      47.761  27.177  14.885  1.00  0.00    -0.234 N 
ATOM     26  H12 UNL     1      47.307  27.542  15.724  1.00  0.00     0.174 HD
ATOM     27  H11 UNL     1      47.289  27.137  13.982  1.00  0.00     0.174 HD
ENDBRANCH   1  25
BRANCH   6  28
HETATM   28  N6  UNL     1      52.184  28.043  15.466  1.00  0.00    -0.383 N 
ATOM     29  H62 UNL     1      53.138  27.789  15.213  1.00  0.00     0.157 HD
ATOM     30  H61 UNL     1      51.991  28.961  15.867  1.00  0.00     0.157 HD
ENDBRANCH   6  28
TORSDOF 10
ENDMDL
MODEL 3
REMARK VINA RESULT: -5.176758466      2.145      3.250
REMARK  10 active torsions:
REMARK  status: ('A' for Active; 'I' for Inactive)
REMARK    1  A    between atoms: N1_1  and  C1_4 
REMARK    2  A    between atoms: C2_7  and  S1_8 
REMARK    3  A    between atoms: S1_8  and  C3_9 
REMARK    4  A    between atoms: C3_9  and  C4_10 
REMARK    5  A    between atoms: C4_10  and  C5_11 
REMARK    6  A    between atoms: C5_11  and  C6_12 
REMARK    7  A    between atoms: C6_12  and  N3_13 
REMARK    8  A    between atoms: C6_12  and  N4_17 
REMARK    9  A    between atoms: C7_21  and  N5_22 
REMARK   10  A    between atoms: C8_25  and  N6_26 
ROOT
HETATM    1  C1  UNL     1      52.212  27.853  15.596  1.00  0.00     0.678 A 
HETATM    2  N2  UNL     1      50.922  27.817  15.245  1.00  0.00    -0.183 N 
ATOM      3  H2  UNL     1      50.395  28.689  15.183  1.00  0.00     0.185 HD
HETATM    4  C2  UNL     1      50.296  26.632  14.966  1.00  0.00     0.123 A 
HETATM    5  C7  UNL     1      51.047  25.501  15.065  1.00  0.00     0.180 A 
HETATM    6  C8  UNL     1      52.398  25.562  15.435  1.00  0.00     0.150 A 
HETATM    7  N7  UNL     1      52.963  26.741  15.696  1.00  0.00    -0.175 N 
ATOM      8  H7  UNL     1      53.945  26.799  15.967  1.00  0.00     0.186 HD
ENDROOT
BRANCH   4   9
HETATM    9  S1  UNL     1      48.615  26.761  14.482  1.00  0.00    -0.109 SA
BRANCH   9  10
HETATM   10  C3  UNL     1      47.910  28.365  14.309  1.00  0.00     0.081 C 
BRANCH  10  11
HETATM   11  C4  UNL     1      48.418  28.966  12.965  1.00  0.00     0.014 C 
BRANCH  11  12
HETATM   12  C5  UNL     1      47.848  28.096  11.891  1.00  0.00     0.063 C 
BRANCH  12  13
HETATM   13  C6  UNL     1      48.056  28.639  10.507  1.00  0.00     0.378 C 
BRANCH  13  14
HETATM   14  N3  UNL     1      49.075  29.662  10.429  1.00  0.00    -0.051 N 
ATOM     15  H33 UNL     1      49.975  29.253  10.177  1.00  0.00     0.276 HD
ATOM     16  H32 UNL     1      48.924  30.258   9.616  1.00  0.00     0.276 HD
ATOM     17  H31 UNL     1      49.160  30.223  11.277  1.00  0.00     0.276 HD
ENDBRANCH  13  14
BRANCH  13  18
HETATM   18  N4  UNL     1      46.779  29.253  10.112  1.00  0.00    -0.051 N 
ATOM     19  H43 UNL     1      46.543  29.103   9.131  1.00  0.00     0.276 HD
ATOM     20  H42 UNL     1      45.964  28.787  10.509  1.00  0.00     0.276 HD
ATOM     21  H41 UNL     1      46.846  30.239  10.366  1.00  0.00     0.276 HD
ENDBRANCH  13  18
ENDBRANCH  12  13
ENDBRANCH  11  12
ENDBRANCH  10  11
ENDBRANCH   9  10
ENDBRANCH   4   9
BRANCH   5  22
HETATM   22  N5  UNL     1      50.540  24.201  14.790  1.00  0.00    -0.109 N 
HETATM   23  O1  UNL     1      49.445  23.872  15.254  1.00  0.00    -0.532 OA
HETATM   24  O2  UNL     1      51.296  23.332  14.054  1.00  0.00    -0.532 OA
ENDBRANCH   5  22
BRANCH   1  25
HETATM   25  N1  UNL     1      52.770  29.013  15.854  1.00  0.00    -0.234 N 
ATOM     26  H12 UNL     1      52.169  29.832  15.954  1.00  0.00     0.174 HD
ATOM     27  H11 UNL     1      53.784  29.065  15.947  1.00  0.00     0.174 HD
ENDBRANCH   1  25
BRANCH   6  28
HETATM   28  N6  UNL     1      53.097  24.493  15.526  1.00  0.00    -0.383 N 
ATOM     29  H62 UNL     1      53.818  24.424  16.244  1.00  0.00     0.157 HD
ATOM     30  H61 UNL     1      52.939  23.713  14.887  1.00  0.00     0.157 HD
ENDBRANCH   6  28
TORSDOF 10
ENDMDL
MODEL 4
REMARK VINA RESULT: -5.164401942      2.340      6.429
REMARK  10 active torsions:
REMARK  status: ('A' for Active; 'I' for Inactive)
REMARK    1  A    between atoms: N1_1  and  C1_4 
REMARK    2  A    between atoms: C2_7  and  S1_8 
REMARK    3  A    between atoms: S1_8  and  C3_9 
REMARK    4  A    between atoms: C3_9  and  C4_10 
REMARK    5  A    between atoms: C4_10  and  C5_11 
REMARK    6  A    between atoms: C5_11  and  C6_12 
REMARK    7  A    between atoms: C6_12  and  N3_13 
REMARK    8  A    between atoms: C6_12  and  N4_17 
REMARK    9  A    between atoms: C7_21  and  N5_22 
REMARK   10  A    between atoms: C8_25  and  N6_26 
ROOT
HETATM    1  C1  UNL     1      48.310  29.437  10.173  1.00  0.00     0.678 A 
HETATM    2  N2  UNL     1      49.234  29.510  11.137  1.00  0.00    -0.183 N 
ATOM      3  H2  UNL     1      50.177  29.823  10.904  1.00  0.00     0.185 HD
HETATM    4  C2  UNL     1      48.938  29.173  12.430  1.00  0.00     0.123 A 
HETATM    5  C7  UNL     1      47.666  28.762  12.684  1.00  0.00     0.180 A 
HETATM    6  C8  UNL     1      46.712  28.693  11.659  1.00  0.00     0.150 A 
HETATM    7  N7  UNL     1      47.048  29.032  10.414  1.00  0.00    -0.175 N 
ATOM      8  H7  UNL     1      46.364  28.987   9.659  1.00  0.00     0.186 HD
ENDROOT
BRANCH   4   9
HETATM    9  S1  UNL     1      50.250  29.363  13.579  1.00  0.00    -0.109 SA
BRANCH   9  10
HETATM   10  C3  UNL     1      50.196  28.442  15.079  1.00  0.00     0.081 C 
BRANCH  10  11
HETATM   11  C4  UNL     1      51.488  27.574  15.151  1.00  0.00     0.014 C 
BRANCH  11  12
HETATM   12  C5  UNL     1      51.023  26.153  15.126  1.00  0.00     0.063 C 
BRANCH  12  13
HETATM   13  C6  UNL     1      52.086  25.184  14.695  1.00  0.00     0.378 C 
BRANCH  13  14
HETATM   14  N3  UNL     1      51.808  23.813  15.062  1.00  0.00    -0.051 N 
ATOM     15  H33 UNL     1      51.776  23.713  16.077  1.00  0.00     0.276 HD
ATOM     16  H32 UNL     1      50.844  23.568  14.835  1.00  0.00     0.276 HD
ATOM     17  H31 UNL     1      52.456  23.139  14.655  1.00  0.00     0.276 HD
ENDBRANCH  13  14
BRANCH  13  18
HETATM   18  N4  UNL     1      53.317  25.590  15.390  1.00  0.00    -0.051 N 
ATOM     19  H43 UNL     1      54.129  25.025  15.139  1.00  0.00     0.276 HD
ATOM     20  H42 UNL     1      53.686  26.486  15.072  1.00  0.00     0.276 HD
ATOM     21  H41 UNL     1      53.102  25.571  16.386  1.00  0.00     0.276 HD
ENDBRANCH  13  18
ENDBRANCH  12  13
ENDBRANCH  11  12
ENDBRANCH  10  11
ENDBRANCH   9  10
ENDBRANCH   4   9
BRANCH   5  22
HETATM   22  N5  UNL     1      47.207  28.396  13.979  1.00  0.00    -0.109 N 
HETATM   23  O1  UNL     1      46.670  29.251  14.690  1.00  0.00    -0.532 OA
HETATM   24  O2  UNL     1      47.410  27.119  14.423  1.00  0.00    -0.532 OA
ENDBRANCH   5  22
BRANCH   1  25
HETATM   25  N1  UNL     1      48.639  29.771   8.947  1.00  0.00    -0.234 N 
ATOM     26  H12 UNL     1      47.894  29.976   8.281  1.00  0.00     0.174 HD
ATOM     27  H11 UNL     1      49.626  29.817   8.695  1.00  0.00     0.174 HD
ENDBRANCH   1  25
BRANCH   6  28
HETATM   28  N6  UNL     1      45.517  28.305  11.906  1.00  0.00    -0.383 N 
ATOM     29  H62 UNL     1      45.360  27.570  12.595  1.00  0.00     0.157 HD
ATOM     30  H61 UNL     1      44.724  28.725  11.420  1.00  0.00     0.157 HD
ENDBRANCH   6  28
TORSDOF 10
ENDMDL
MODEL 5
REMARK VINA RESULT: -5.162035854      3.203      6.096
REMARK  10 active torsions:
REMARK  status: ('A' for Active; 'I' for Inactive)
REMARK    1  A    between atoms: N1_1  and  C1_4 
REMARK    2  A    between atoms: C2_7  and  S1_8 
REMARK    3  A    between atoms: S1_8  and  C3_9 
REMARK    4  A    between atoms: C3_9  and  C4_10 
REMARK    5  A    between atoms: C4_10  and  C5_11 
REMARK    6  A    between atoms: C5_11  and  C6_12 
REMARK    7  A    between atoms: C6_12  and  N3_13 
REMARK    8  A    between atoms: C6_12  and  N4_17 
REMARK    9  A    between atoms: C7_21  and  N5_22 
REMARK   10  A    between atoms: C8_25  and  N6_26 
ROOT
HETATM    1  C1  UNL     1      48.662  27.688  14.890  1.00  0.00     0.678 A 
HETATM    2  N2  UNL     1      48.708  26.353  14.822  1.00  0.00    -0.183 N 
ATOM      3  H2  UNL     1      47.840  25.827  14.717  1.00  0.00     0.185 HD
HETATM    4  C2  UNL     1      49.898  25.680  14.889  1.00  0.00     0.123 A 
HETATM    5  C7  UNL     1      51.023  26.432  15.030  1.00  0.00     0.180 A 
HETATM    6  C8  UNL     1      50.953  27.831  15.100  1.00  0.00     0.150 A 
HETATM    7  N7  UNL     1      49.769  28.441  15.029  1.00  0.00    -0.175 N 
ATOM      8  H7  UNL     1      49.704  29.458  15.078  1.00  0.00     0.186 HD
ENDROOT
BRANCH   4   9
HETATM    9  S1  UNL     1      49.788  23.936  14.744  1.00  0.00    -0.109 SA
BRANCH   9  10
HETATM   10  C3  UNL     1      50.673  22.938  15.893  1.00  0.00     0.081 C 
BRANCH  10  11
HETATM   11  C4  UNL     1      51.914  22.351  15.157  1.00  0.00     0.014 C 
BRANCH  11  12
HETATM   12  C5  UNL     1      51.461  22.071  13.759  1.00  0.00     0.063 C 
BRANCH  12  13
HETATM   13  C6  UNL     1      52.204  20.944  13.104  1.00  0.00     0.378 C 
BRANCH  13  14
HETATM   14  N3  UNL     1      51.390  20.149  12.211  1.00  0.00    -0.051 N 
ATOM     15  H33 UNL     1      50.827  19.481  12.738  1.00  0.00     0.276 HD
ATOM     16  H32 UNL     1      50.646  20.716  11.803  1.00  0.00     0.276 HD
ATOM     17  H31 UNL     1      51.923  19.675  11.482  1.00  0.00     0.276 HD
ENDBRANCH  13  14
BRANCH  13  18
HETATM   18  N4  UNL     1      52.659  20.064  14.192  1.00  0.00    -0.051 N 
ATOM     19  H43 UNL     1      52.071  20.111  15.024  1.00  0.00     0.276 HD
ATOM     20  H42 UNL     1      52.520  19.072  13.997  1.00  0.00     0.276 HD
ATOM     21  H41 UNL     1      53.633  20.310  14.369  1.00  0.00     0.276 HD
ENDBRANCH  13  18
ENDBRANCH  12  13
ENDBRANCH  11  12
ENDBRANCH  10  11
ENDBRANCH   9  10
ENDBRANCH   4   9
BRANCH   5  22
HETATM   22  N5  UNL     1      52.330  25.876  15.097  1.00  0.00    -0.109 N 
HETATM   23  O1  UNL     1      52.989  26.012  16.132  1.00  0.00    -0.532 OA
HETATM   24  O2  UNL     1      52.843  25.242  14.000  1.00  0.00    -0.532 OA
ENDBRANCH   5  22
BRANCH   1  25
HETATM   25  N1  UNL     1      47.497  28.290  14.821  1.00  0.00    -0.234 N 
ATOM     26  H12 UNL     1      46.669  27.790  15.146  1.00  0.00     0.174 HD
ATOM     27  H11 UNL     1      47.451  29.238  14.445  1.00  0.00     0.174 HD
ENDBRANCH   1  25
BRANCH   6  28
HETATM   28  N6  UNL     1      52.016  28.531  15.232  1.00  0.00    -0.383 N 
ATOM     29  H62 UNL     1      52.788  28.172  15.793  1.00  0.00     0.157 HD
ATOM     30  H61 UNL     1      52.097  29.443  14.781  1.00  0.00     0.157 HD
ENDBRANCH   6  28
TORSDOF 10
ENDMDL
