MODEL 1
REMARK VINA RESULT: -7.685102308      0.000      0.000
REMARK  9 active torsions:
REMARK  status: ('A' for Active; 'I' for Inactive)
REMARK    1  A    between atoms: S1_2  and  C2_3 
REMARK    2  A    between atoms: C3_5  and  C4_6 
REMARK    3  A    between atoms: C4_6  and  O2_7 
REMARK    4  A    between atoms: C5_9  and  O3_11 
REMARK    5  A    between atoms: C8_14  and  O4_15 
REMARK    6  A    between atoms: O4_15  and  C9_16 
REMARK    7  A    between atoms: C12_20  and  O6_21 
REMARK    8  A    between atoms: C13_23  and  O7_24 
REMARK    9  A    between atoms: C14_26  and  O8_27 
ROOT
HETATM    1  C2  UNL     1      17.063  17.637  31.618  1.00  0.00     0.212 C 
HETATM    2  O1  UNL     1      17.932  17.464  32.693  1.00  0.00    -0.363 OA
HETATM    3  C3  UNL     1      18.857  18.473  32.766  1.00  0.00     0.180 C 
HETATM    4  C5  UNL     1      18.266  19.826  32.965  1.00  0.00     0.085 C 
HETATM    5  C6  UNL     1      18.560  20.328  34.369  1.00  0.00     0.049 C 
HETATM    6  C7  UNL     1      16.781  19.877  32.729  1.00  0.00     0.075 C 
HETATM    7  C8  UNL     1      16.337  18.945  31.616  1.00  0.00     0.166 C 
ENDROOT
BRANCH   7   8
HETATM    8  O4  UNL     1      16.624  19.583  30.395  1.00  0.00    -0.350 OA
BRANCH   8   9
HETATM    9  C9  UNL     1      15.490  20.130  29.792  1.00  0.00     0.292 C 
HETATM   10  O5  UNL     1      14.458  19.269  30.107  1.00  0.00    -0.351 OA
HETATM   11  C10 UNL     1      13.190  19.684  29.961  1.00  0.00     0.152 C 
HETATM   12  C11 UNL     1      12.327  18.887  30.938  1.00  0.00     0.042 C 
HETATM   13  C12 UNL     1      12.916  21.133  30.208  1.00  0.00     0.178 C 
HETATM   14  C13 UNL     1      13.998  22.045  29.746  1.00  0.00     0.183 C 
HETATM   15  C14 UNL     1      15.298  21.507  30.369  1.00  0.00     0.204 C 
BRANCH  13  16
HETATM   16  O6  UNL     1      12.782  21.307  31.605  1.00  0.00    -0.390 OA
ATOM     17  H6  UNL     1      13.120  22.169  31.819  1.00  0.00     0.210 HD
ENDBRANCH  13  16
BRANCH  14  18
HETATM   18  O7  UNL     1      13.787  23.326  30.232  1.00  0.00    -0.390 OA
ATOM     19  H7  UNL     1      12.875  23.441  30.473  1.00  0.00     0.210 HD
ENDBRANCH  14  18
BRANCH  15  20
HETATM   20  O8  UNL     1      16.355  22.335  30.107  1.00  0.00    -0.388 OA
ATOM     21  H8  UNL     1      16.163  22.963  29.421  1.00  0.00     0.210 HD
ENDBRANCH  15  20
ENDBRANCH   8   9
ENDBRANCH   7   8
BRANCH   1  22
HETATM   22  S1  UNL     1      15.809  16.308  31.808  1.00  0.00    -0.139 SA
HETATM   23  C1  UNL     1      14.602  16.725  33.068  1.00  0.00     0.092 C 
ENDBRANCH   1  22
BRANCH   4  24
HETATM   24  O3  UNL     1      18.868  20.733  32.099  1.00  0.00    -0.387 OA
ATOM     25  H3  UNL     1      19.136  20.286  31.305  1.00  0.00     0.210 HD
ENDBRANCH   4  24
BRANCH   3  26
HETATM   26  C4  UNL     1      19.816  18.498  31.614  1.00  0.00     0.199 C 
BRANCH  26  27
HETATM   27  O2  UNL     1      21.050  19.075  31.983  1.00  0.00    -0.398 OA
ATOM     28  H2  UNL     1      21.629  18.432  32.375  1.00  0.00     0.209 HD
ENDBRANCH  26  27
ENDBRANCH   3  26
TORSDOF 9
ENDMDL
MODEL 2
REMARK VINA RESULT: -7.666519455      1.569      5.634
REMARK  9 active torsions:
REMARK  status: ('A' for Active; 'I' for Inactive)
REMARK    1  A    between atoms: S1_2  and  C2_3 
REMARK    2  A    between atoms: C3_5  and  C4_6 
REMARK    3  A    between atoms: C4_6  and  O2_7 
REMARK    4  A    between atoms: C5_9  and  O3_11 
REMARK    5  A    between atoms: C8_14  and  O4_15 
REMARK    6  A    between atoms: O4_15  and  C9_16 
REMARK    7  A    between atoms: C12_20  and  O6_21 
REMARK    8  A    between atoms: C13_23  and  O7_24 
REMARK    9  A    between atoms: C14_26  and  O8_27 
ROOT
HETATM    1  C2  UNL     1      13.969  19.932  30.946  1.00  0.00     0.212 C 
HETATM    2  O1  UNL     1      13.164  20.642  30.058  1.00  0.00    -0.363 OA
HETATM    3  C3  UNL     1      13.792  21.769  29.592  1.00  0.00     0.180 C 
HETATM    4  C5  UNL     1      15.047  21.497  28.837  1.00  0.00     0.085 C 
HETATM    5  C6  UNL     1      14.844  21.781  27.358  1.00  0.00     0.049 C 
HETATM    6  C7  UNL     1      15.557  20.091  29.000  1.00  0.00     0.075 C 
HETATM    7  C8  UNL     1      15.301  19.537  30.390  1.00  0.00     0.166 C 
ENDROOT
BRANCH   7   8
HETATM    8  O4  UNL     1      16.286  20.069  31.242  1.00  0.00    -0.350 OA
BRANCH   8   9
HETATM    9  C9  UNL     1      17.133  19.089  31.765  1.00  0.00     0.292 C 
HETATM   10  O5  UNL     1      16.898  17.960  31.007  1.00  0.00    -0.351 OA
HETATM   11  C10 UNL     1      17.784  16.953  31.037  1.00  0.00     0.152 C 
HETATM   12  C11 UNL     1      17.669  16.196  29.715  1.00  0.00     0.042 C 
HETATM   13  C12 UNL     1      19.222  17.318  31.215  1.00  0.00     0.178 C 
HETATM   14  C13 UNL     1      19.451  18.465  32.136  1.00  0.00     0.183 C 
HETATM   15  C14 UNL     1      18.543  19.599  31.629  1.00  0.00     0.204 C 
BRANCH  13  16
HETATM   16  O6  UNL     1      19.727  17.685  29.946  1.00  0.00    -0.390 OA
ATOM     17  H6  UNL     1      18.991  17.972  29.419  1.00  0.00     0.210 HD
ENDBRANCH  13  16
BRANCH  14  18
HETATM   18  O7  UNL     1      20.765  18.896  32.050  1.00  0.00    -0.390 OA
ATOM     19  H7  UNL     1      21.001  19.392  32.825  1.00  0.00     0.210 HD
ENDBRANCH  14  18
BRANCH  15  20
HETATM   20  O8  UNL     1      18.751  20.755  32.331  1.00  0.00    -0.388 OA
ATOM     21  H8  UNL     1      19.494  20.693  32.920  1.00  0.00     0.210 HD
ENDBRANCH  15  20
ENDBRANCH   8   9
ENDBRANCH   7   8
BRANCH   1  22
HETATM   22  S1  UNL     1      13.036  18.390  31.298  1.00  0.00    -0.139 SA
HETATM   23  C1  UNL     1      13.531  17.673  32.866  1.00  0.00     0.092 C 
ENDBRANCH   1  22
BRANCH   4  24
HETATM   24  O3  UNL     1      16.046  22.367  29.262  1.00  0.00    -0.387 OA
ATOM     25  H3  UNL     1      16.897  22.016  29.026  1.00  0.00     0.210 HD
ENDBRANCH   4  24
BRANCH   3  26
HETATM   26  C4  UNL     1      14.044  22.801  30.650  1.00  0.00     0.199 C 
BRANCH  26  27
HETATM   27  O2  UNL     1      14.139  24.095  30.094  1.00  0.00    -0.398 OA
ATOM     28  H2  UNL     1      13.284  24.435  29.858  1.00  0.00     0.209 HD
ENDBRANCH  26  27
ENDBRANCH   3  26
TORSDOF 9
ENDMDL
MODEL 3
REMARK VINA RESULT: -7.605399223      1.586      5.514
REMARK  9 active torsions:
REMARK  status: ('A' for Active; 'I' for Inactive)
REMARK    1  A    between atoms: S1_2  and  C2_3 
REMARK    2  A    between atoms: C3_5  and  C4_6 
REMARK    3  A    between atoms: C4_6  and  O2_7 
REMARK    4  A    between atoms: C5_9  and  O3_11 
REMARK    5  A    between atoms: C8_14  and  O4_15 
REMARK    6  A    between atoms: O4_15  and  C9_16 
REMARK    7  A    between atoms: C12_20  and  O6_21 
REMARK    8  A    between atoms: C13_23  and  O7_24 
REMARK    9  A    between atoms: C14_26  and  O8_27 
ROOT
HETATM    1  C2  UNL     1      14.240  19.962  30.496  1.00  0.00     0.212 C 
HETATM    2  O1  UNL     1      13.294  20.839  29.970  1.00  0.00    -0.363 OA
HETATM    3  C3  UNL     1      13.877  21.973  29.466  1.00  0.00     0.180 C 
HETATM    4  C5  UNL     1      14.829  21.722  28.348  1.00  0.00     0.085 C 
HETATM    5  C6  UNL     1      14.243  22.217  27.037  1.00  0.00     0.049 C 
HETATM    6  C7  UNL     1      15.214  20.276  28.197  1.00  0.00     0.075 C 
HETATM    7  C8  UNL     1      15.309  19.556  29.530  1.00  0.00     0.166 C 
ENDROOT
BRANCH   7   8
HETATM    8  O4  UNL     1      16.546  19.899  30.105  1.00  0.00    -0.350 OA
BRANCH   8   9
HETATM    9  C9  UNL     1      16.687  19.419  31.409  1.00  0.00     0.292 C 
HETATM   10  O5  UNL     1      16.951  18.071  31.275  1.00  0.00    -0.351 OA
HETATM   11  C10 UNL     1      17.464  17.396  32.315  1.00  0.00     0.152 C 
HETATM   12  C11 UNL     1      18.243  16.207  31.757  1.00  0.00     0.042 C 
HETATM   13  C12 UNL     1      18.386  18.144  33.223  1.00  0.00     0.178 C 
HETATM   14  C13 UNL     1      18.004  19.566  33.444  1.00  0.00     0.183 C 
HETATM   15  C14 UNL     1      17.824  20.175  32.043  1.00  0.00     0.204 C 
BRANCH  13  16
HETATM   16  O6  UNL     1      19.667  18.137  32.625  1.00  0.00    -0.390 OA
ATOM     17  H6  UNL     1      20.281  18.485  33.261  1.00  0.00     0.210 HD
ENDBRANCH  13  16
BRANCH  14  18
HETATM   18  O7  UNL     1      19.031  20.246  34.079  1.00  0.00    -0.390 OA
ATOM     19  H7  UNL     1      18.825  21.171  34.141  1.00  0.00     0.210 HD
ENDBRANCH  14  18
BRANCH  15  20
HETATM   20  O8  UNL     1      17.581  21.520  32.113  1.00  0.00    -0.388 OA
ATOM     21  H8  UNL     1      18.343  22.012  32.395  1.00  0.00     0.210 HD
ENDBRANCH  15  20
ENDBRANCH   8   9
ENDBRANCH   7   8
BRANCH   1  22
HETATM   22  S1  UNL     1      13.291  18.453  30.937  1.00  0.00    -0.139 SA
HETATM   23  C1  UNL     1      13.491  18.040  32.671  1.00  0.00     0.092 C 
ENDBRANCH   1  22
BRANCH   4  24
HETATM   24  O3  UNL     1      15.993  22.456  28.551  1.00  0.00    -0.387 OA
ATOM     25  H3  UNL     1      16.733  21.989  28.183  1.00  0.00     0.210 HD
ENDBRANCH   4  24
BRANCH   3  26
HETATM   26  C4  UNL     1      14.527  22.832  30.509  1.00  0.00     0.199 C 
BRANCH  26  27
HETATM   27  O2  UNL     1      14.596  24.180  30.095  1.00  0.00    -0.398 OA
ATOM     28  H2  UNL     1      15.069  24.267  29.276  1.00  0.00     0.209 HD
ENDBRANCH  26  27
ENDBRANCH   3  26
TORSDOF 9
ENDMDL
MODEL 4
REMARK VINA RESULT: -7.264889358      2.646      5.167
REMARK  9 active torsions:
REMARK  status: ('A' for Active; 'I' for Inactive)
REMARK    1  A    between atoms: S1_2  and  C2_3 
REMARK    2  A    between atoms: C3_5  and  C4_6 
REMARK    3  A    between atoms: C4_6  and  O2_7 
REMARK    4  A    between atoms: C5_9  and  O3_11 
REMARK    5  A    between atoms: C8_14  and  O4_15 
REMARK    6  A    between atoms: O4_15  and  C9_16 
REMARK    7  A    between atoms: C12_20  and  O6_21 
REMARK    8  A    between atoms: C13_23  and  O7_24 
REMARK    9  A    between atoms: C14_26  and  O8_27 
ROOT
HETATM    1  C2  UNL     1      16.267  15.608  31.846  1.00  0.00     0.212 C 
HETATM    2  O1  UNL     1      16.614  14.259  31.872  1.00  0.00    -0.363 OA
HETATM    3  C3  UNL     1      17.494  13.980  32.885  1.00  0.00     0.180 C 
HETATM    4  C5  UNL     1      16.963  14.264  34.248  1.00  0.00     0.085 C 
HETATM    5  C6  UNL     1      16.697  12.966  34.991  1.00  0.00     0.049 C 
HETATM    6  C7  UNL     1      15.708  15.093  34.245  1.00  0.00     0.075 C 
HETATM    7  C8  UNL     1      15.692  16.121  33.129  1.00  0.00     0.166 C 
ENDROOT
BRANCH   7   8
HETATM    8  O4  UNL     1      16.490  17.204  33.544  1.00  0.00    -0.350 OA
BRANCH   8   9
HETATM    9  C9  UNL     1      17.216  17.772  32.495  1.00  0.00     0.292 C 
HETATM   10  O5  UNL     1      16.467  18.853  32.076  1.00  0.00    -0.351 OA
HETATM   11  C10 UNL     1      17.044  19.796  31.315  1.00  0.00     0.152 C 
HETATM   12  C11 UNL     1      16.287  21.102  31.544  1.00  0.00     0.042 C 
HETATM   13  C12 UNL     1      18.492  20.074  31.560  1.00  0.00     0.178 C 
HETATM   14  C13 UNL     1      19.298  18.867  31.891  1.00  0.00     0.183 C 
HETATM   15  C14 UNL     1      18.558  18.172  33.048  1.00  0.00     0.204 C 
BRANCH  13  16
HETATM   16  O6  UNL     1      18.575  20.955  32.663  1.00  0.00    -0.390 OA
ATOM     17  H6  UNL     1      18.654  21.837  32.319  1.00  0.00     0.210 HD
ENDBRANCH  13  16
BRANCH  14  18
HETATM   18  O7  UNL     1      20.554  19.237  32.345  1.00  0.00    -0.390 OA
ATOM     19  H7  UNL     1      20.521  20.100  32.740  1.00  0.00     0.210 HD
ENDBRANCH  14  18
BRANCH  15  20
HETATM   20  O8  UNL     1      19.268  17.102  33.520  1.00  0.00    -0.388 OA
ATOM     21  H8  UNL     1      18.972  16.278  33.151  1.00  0.00     0.210 HD
ENDBRANCH  15  20
ENDBRANCH   8   9
ENDBRANCH   7   8
BRANCH   1  22
HETATM   22  S1  UNL     1      14.960  15.735  30.563  1.00  0.00    -0.139 SA
HETATM   23  C1  UNL     1      15.345  14.717  29.137  1.00  0.00     0.092 C 
ENDBRANCH   1  22
BRANCH   4  24
HETATM   24  O3  UNL     1      17.922  14.943  34.992  1.00  0.00    -0.387 OA
ATOM     25  H3  UNL     1      17.500  15.428  35.691  1.00  0.00     0.210 HD
ENDBRANCH   4  24
BRANCH   3  26
HETATM   26  C4  UNL     1      18.837  14.625  32.714  1.00  0.00     0.199 C 
BRANCH  26  27
HETATM   27  O2  UNL     1      19.848  13.894  33.375  1.00  0.00    -0.398 OA
ATOM     28  H2  UNL     1      20.169  14.359  34.139  1.00  0.00     0.209 HD
ENDBRANCH  26  27
ENDBRANCH   3  26
TORSDOF 9
ENDMDL
MODEL 5
REMARK VINA RESULT: -7.234811043      2.258      3.046
REMARK  9 active torsions:
REMARK  status: ('A' for Active; 'I' for Inactive)
REMARK    1  A    between atoms: S1_2  and  C2_3 
REMARK    2  A    between atoms: C3_5  and  C4_6 
REMARK    3  A    between atoms: C4_6  and  O2_7 
REMARK    4  A    between atoms: C5_9  and  O3_11 
REMARK    5  A    between atoms: C8_14  and  O4_15 
REMARK    6  A    between atoms: O4_15  and  C9_16 
REMARK    7  A    between atoms: C12_20  and  O6_21 
REMARK    8  A    between atoms: C13_23  and  O7_24 
REMARK    9  A    between atoms: C14_26  and  O8_27 
ROOT
HETATM    1  C2  UNL     1      17.396  16.138  30.543  1.00  0.00     0.212 C 
HETATM    2  O1  UNL     1      17.700  14.899  31.102  1.00  0.00    -0.363 OA
HETATM    3  C3  UNL     1      18.592  15.014  32.138  1.00  0.00     0.180 C 
HETATM    4  C5  UNL     1      18.098  15.838  33.276  1.00  0.00     0.085 C 
HETATM    5  C6  UNL     1      17.806  14.955  34.478  1.00  0.00     0.049 C 
HETATM    6  C7  UNL     1      16.869  16.643  32.951  1.00  0.00     0.075 C 
HETATM    7  C8  UNL     1      16.863  17.141  31.517  1.00  0.00     0.166 C 
ENDROOT
BRANCH   7   8
HETATM    8  O4  UNL     1      17.703  18.268  31.460  1.00  0.00    -0.350 OA
BRANCH   8   9
HETATM    9  C9  UNL     1      17.165  19.305  30.695  1.00  0.00     0.292 C 
HETATM   10  O5  UNL     1      15.911  18.868  30.319  1.00  0.00    -0.351 OA
HETATM   11  C10 UNL     1      15.015  19.757  29.864  1.00  0.00     0.152 C 
HETATM   12  C11 UNL     1      13.623  19.199  30.149  1.00  0.00     0.042 C 
HETATM   13  C12 UNL     1      15.068  21.134  30.445  1.00  0.00     0.178 C 
HETATM   14  C13 UNL     1      16.445  21.624  30.726  1.00  0.00     0.183 C 
HETATM   15  C14 UNL     1      17.118  20.528  31.571  1.00  0.00     0.204 C 
BRANCH  13  16
HETATM   16  O6  UNL     1      14.369  21.103  31.674  1.00  0.00    -0.390 OA
ATOM     17  H6  UNL     1      14.626  21.873  32.167  1.00  0.00     0.210 HD
ENDBRANCH  13  16
BRANCH  14  18
HETATM   18  O7  UNL     1      16.397  22.783  31.485  1.00  0.00    -0.390 OA
ATOM     19  H7  UNL     1      16.095  22.589  32.364  1.00  0.00     0.210 HD
ENDBRANCH  14  18
BRANCH  15  20
HETATM   20  O8  UNL     1      18.360  20.917  31.993  1.00  0.00    -0.388 OA
ATOM     21  H8  UNL     1      19.023  20.258  31.823  1.00  0.00     0.210 HD
ENDBRANCH  15  20
ENDBRANCH   8   9
ENDBRANCH   7   8
BRANCH   1  22
HETATM   22  S1  UNL     1      16.067  15.791  29.323  1.00  0.00    -0.139 SA
HETATM   23  C1  UNL     1      15.402  14.139  29.536  1.00  0.00     0.092 C 
ENDBRANCH   1  22
BRANCH   4  24
HETATM   24  O3  UNL     1      19.093  16.721  33.682  1.00  0.00    -0.387 OA
ATOM     25  H3  UNL     1      19.817  16.236  34.060  1.00  0.00     0.210 HD
ENDBRANCH   4  24
BRANCH   3  26
HETATM   26  C4  UNL     1      19.950  15.487  31.715  1.00  0.00     0.199 C 
BRANCH  26  27
HETATM   27  O2  UNL     1      20.964  14.622  32.179  1.00  0.00    -0.398 OA
ATOM     28  H2  UNL     1      20.670  14.111  32.923  1.00  0.00     0.209 HD
ENDBRANCH  26  27
ENDBRANCH   3  26
TORSDOF 9
ENDMDL
