MODEL 1
REMARK VINA RESULT: -9.205166879      0.000      0.000
REMARK  8 active torsions:
REMARK  status: ('A' for Active; 'I' for Inactive)
REMARK    1  A    between atoms: C7_8  and  S1_9 
REMARK    2  A    between atoms: S1_9  and  C8_10 
REMARK    3  A    between atoms: C9_11  and  O2_12 
REMARK    4  A    between atoms: C10_14  and  O3_15 
REMARK    5  A    between atoms: C11_17  and  O4_18 
REMARK    6  A    between atoms: C12_20  and  O5_21 
REMARK    7  A    between atoms: C12_20  and  C13_23 
REMARK    8  A    between atoms: C15_27  and  O7_28 
ROOT
HETATM    1  C1  UNL     1      15.321  18.247  33.379  1.00  0.00     0.210 C 
HETATM    2  O1  UNL     1      15.386  17.462  32.363  1.00  0.00    -0.355 OA
HETATM    3  C2  UNL     1      15.460  16.663  31.347  1.00  0.00     0.085 A 
HETATM    4  C3  UNL     1      16.177  15.456  31.382  1.00  0.00     0.038 A 
HETATM    5  C4  UNL     1      16.228  14.646  30.298  1.00  0.00     0.003 A 
HETATM    6  C5  UNL     1      15.566  15.000  29.122  1.00  0.00     0.002 A 
HETATM    7  C6  UNL     1      14.860  16.179  29.076  1.00  0.00     0.021 A 
HETATM    8  C7  UNL     1      14.795  17.005  30.149  1.00  0.00     0.034 A 
ENDROOT
BRANCH   8   9
HETATM    9  S1  UNL     1      13.836  18.500  30.138  1.00  0.00    -0.117 SA
BRANCH   9  10
HETATM   10  C8  UNL     1      14.776  19.940  29.527  1.00  0.00     0.116 C 
HETATM   11  C9  UNL     1      15.312  20.630  30.737  1.00  0.00     0.166 C 
HETATM   12  C10 UNL     1      14.544  21.891  31.021  1.00  0.00     0.180 C 
HETATM   13  C11 UNL     1      14.736  22.811  29.842  1.00  0.00     0.195 C 
HETATM   14  C12 UNL     1      14.133  22.212  28.612  1.00  0.00     0.187 C 
HETATM   15  C15 UNL     1      13.860  20.761  28.688  1.00  0.00     0.180 C 
BRANCH  11  16
HETATM   16  O2  UNL     1      16.696  20.873  30.667  1.00  0.00    -0.392 OA
ATOM     17  H2  UNL     1      17.210  20.244  31.159  1.00  0.00     0.210 HD
ENDBRANCH  11  16
BRANCH  12  18
HETATM   18  O3  UNL     1      13.238  21.549  31.275  1.00  0.00    -0.390 OA
ATOM     19  H3  UNL     1      12.938  22.058  32.019  1.00  0.00     0.210 HD
ENDBRANCH  12  18
BRANCH  13  20
HETATM   20  O4  UNL     1      14.183  24.046  30.176  1.00  0.00    -0.389 OA
ATOM     21  H4  UNL     1      14.714  24.719  29.766  1.00  0.00     0.210 HD
ENDBRANCH  13  20
BRANCH  14  22
HETATM   22  O5  UNL     1      12.881  22.858  28.443  1.00  0.00    -0.376 OA
ATOM     23  H5  UNL     1      12.280  22.412  29.027  1.00  0.00     0.211 HD
ENDBRANCH  14  22
BRANCH  14  24
HETATM   24  C13 UNL     1      14.930  22.620  27.405  1.00  0.00     0.267 C 
HETATM   25  O6  UNL     1      15.947  21.991  27.011  1.00  0.00    -0.278 OA
HETATM   26  C14 UNL     1      14.561  23.779  26.611  1.00  0.00     0.141 C 
HETATM   27  N1  UNL     1      14.280  24.691  25.965  1.00  0.00    -0.188 NA
ENDBRANCH  14  24
BRANCH  15  28
HETATM   28  O7  UNL     1      13.794  20.246  27.404  1.00  0.00    -0.391 OA
ATOM     29  H7  UNL     1      13.279  20.817  26.847  1.00  0.00     0.210 HD
ENDBRANCH  15  28
ENDBRANCH   9  10
ENDBRANCH   8   9
TORSDOF 8
ENDMDL
MODEL 2
REMARK VINA RESULT: -8.750287535      1.012      1.018
REMARK  8 active torsions:
REMARK  status: ('A' for Active; 'I' for Inactive)
REMARK    1  A    between atoms: C7_8  and  S1_9 
REMARK    2  A    between atoms: S1_9  and  C8_10 
REMARK    3  A    between atoms: C9_11  and  O2_12 
REMARK    4  A    between atoms: C10_14  and  O3_15 
REMARK    5  A    between atoms: C11_17  and  O4_18 
REMARK    6  A    between atoms: C12_20  and  O5_21 
REMARK    7  A    between atoms: C12_20  and  C13_23 
REMARK    8  A    between atoms: C15_27  and  O7_28 
ROOT
HETATM    1  C1  UNL     1      17.987  18.545  32.305  1.00  0.00     0.210 C 
HETATM    2  O1  UNL     1      17.326  17.749  31.542  1.00  0.00    -0.355 OA
HETATM    3  C2  UNL     1      16.673  16.939  30.773  1.00  0.00     0.085 A 
HETATM    4  C3  UNL     1      17.193  15.703  30.355  1.00  0.00     0.038 A 
HETATM    5  C4  UNL     1      16.476  14.883  29.551  1.00  0.00     0.003 A 
HETATM    6  C5  UNL     1      15.201  15.254  29.123  1.00  0.00     0.002 A 
HETATM    7  C6  UNL     1      14.680  16.461  29.525  1.00  0.00     0.021 A 
HETATM    8  C7  UNL     1      15.380  17.298  30.330  1.00  0.00     0.034 A 
ENDROOT
BRANCH   8   9
HETATM    9  S1  UNL     1      14.705  18.831  30.919  1.00  0.00    -0.117 SA
BRANCH   9  10
HETATM   10  C8  UNL     1      15.389  20.285  30.055  1.00  0.00     0.116 C 
HETATM   11  C9  UNL     1      15.828  21.235  31.120  1.00  0.00     0.166 C 
HETATM   12  C10 UNL     1      14.871  22.389  31.238  1.00  0.00     0.180 C 
HETATM   13  C11 UNL     1      14.892  23.128  29.924  1.00  0.00     0.195 C 
HETATM   14  C12 UNL     1      14.372  22.254  28.828  1.00  0.00     0.187 C 
HETATM   15  C15 UNL     1      14.339  20.809  29.139  1.00  0.00     0.180 C 
BRANCH  11  16
HETATM   16  O2  UNL     1      17.152  21.677  30.954  1.00  0.00    -0.392 OA
ATOM     17  H2  UNL     1      17.259  22.606  31.119  1.00  0.00     0.210 HD
ENDBRANCH  11  16
BRANCH  12  18
HETATM   18  O3  UNL     1      13.642  21.891  31.597  1.00  0.00    -0.390 OA
ATOM     19  H3  UNL     1      13.057  22.625  31.744  1.00  0.00     0.210 HD
ENDBRANCH  12  18
BRANCH  13  20
HETATM   20  O4  UNL     1      14.152  24.298  30.087  1.00  0.00    -0.389 OA
ATOM     21  H4  UNL     1      14.436  24.913  29.420  1.00  0.00     0.210 HD
ENDBRANCH  13  20
BRANCH  14  22
HETATM   22  O5  UNL     1      13.029  22.661  28.615  1.00  0.00    -0.376 OA
ATOM     23  H5  UNL     1      12.576  22.491  29.431  1.00  0.00     0.211 HD
ENDBRANCH  14  22
BRANCH  14  24
HETATM   24  C13 UNL     1      15.072  22.585  27.540  1.00  0.00     0.267 C 
HETATM   25  O6  UNL     1      16.074  21.948  27.121  1.00  0.00    -0.278 OA
HETATM   26  C14 UNL     1      14.619  23.673  26.690  1.00  0.00     0.141 C 
HETATM   27  N1  UNL     1      14.270  24.527  26.001  1.00  0.00    -0.188 NA
ENDBRANCH  14  24
BRANCH  15  28
HETATM   28  O7  UNL     1      14.335  20.092  27.953  1.00  0.00    -0.391 OA
ATOM     29  H7  UNL     1      13.845  19.285  28.059  1.00  0.00     0.210 HD
ENDBRANCH  15  28
ENDBRANCH   9  10
ENDBRANCH   8   9
TORSDOF 8
ENDMDL
MODEL 3
REMARK VINA RESULT: -8.520470706      1.350      1.989
REMARK  8 active torsions:
REMARK  status: ('A' for Active; 'I' for Inactive)
REMARK    1  A    between atoms: C7_8  and  S1_9 
REMARK    2  A    between atoms: S1_9  and  C8_10 
REMARK    3  A    between atoms: C9_11  and  O2_12 
REMARK    4  A    between atoms: C10_14  and  O3_15 
REMARK    5  A    between atoms: C11_17  and  O4_18 
REMARK    6  A    between atoms: C12_20  and  O5_21 
REMARK    7  A    between atoms: C12_20  and  C13_23 
REMARK    8  A    between atoms: C15_27  and  O7_28 
ROOT
HETATM    1  C1  UNL     1      17.617  17.404  29.666  1.00  0.00     0.210 C 
HETATM    2  O1  UNL     1      16.721  17.390  30.588  1.00  0.00    -0.355 OA
HETATM    3  C2  UNL     1      15.829  17.369  31.526  1.00  0.00     0.085 A 
HETATM    4  C3  UNL     1      16.098  16.895  32.820  1.00  0.00     0.038 A 
HETATM    5  C4  UNL     1      15.136  16.892  33.773  1.00  0.00     0.003 A 
HETATM    6  C5  UNL     1      13.855  17.364  33.484  1.00  0.00     0.002 A 
HETATM    7  C6  UNL     1      13.579  17.831  32.220  1.00  0.00     0.021 A 
HETATM    8  C7  UNL     1      14.526  17.844  31.251  1.00  0.00     0.034 A 
ENDROOT
BRANCH   8   9
HETATM    9  S1  UNL     1      14.216  18.504  29.631  1.00  0.00    -0.117 SA
BRANCH   9  10
HETATM   10  C8  UNL     1      15.034  20.111  29.353  1.00  0.00     0.116 C 
HETATM   11  C9  UNL     1      15.304  20.681  30.706  1.00  0.00     0.166 C 
HETATM   12  C10 UNL     1      14.345  21.796  31.021  1.00  0.00     0.180 C 
HETATM   13  C11 UNL     1      14.576  22.888  30.006  1.00  0.00     0.195 C 
HETATM   14  C12 UNL     1      14.231  22.403  28.634  1.00  0.00     0.187 C 
HETATM   15  C15 UNL     1      14.143  20.935  28.490  1.00  0.00     0.180 C 
BRANCH  11  16
HETATM   16  O2  UNL     1      16.640  21.084  30.880  1.00  0.00    -0.392 OA
ATOM     17  H2  UNL     1      16.976  21.588  30.149  1.00  0.00     0.210 HD
ENDBRANCH  11  16
BRANCH  12  18
HETATM   18  O3  UNL     1      13.073  21.278  31.027  1.00  0.00    -0.390 OA
ATOM     19  H3  UNL     1      12.516  21.855  30.518  1.00  0.00     0.210 HD
ENDBRANCH  12  18
BRANCH  13  20
HETATM   20  O4  UNL     1      13.824  23.994  30.400  1.00  0.00    -0.389 OA
ATOM     21  H4  UNL     1      13.316  24.277  29.648  1.00  0.00     0.210 HD
ENDBRANCH  13  20
BRANCH  14  22
HETATM   22  O5  UNL     1      12.941  22.923  28.355  1.00  0.00    -0.376 OA
ATOM     23  H5  UNL     1      13.042  23.463  27.580  1.00  0.00     0.211 HD
ENDBRANCH  14  22
BRANCH  14  24
HETATM   24  C13 UNL     1      15.127  23.063  27.624  1.00  0.00     0.267 C 
HETATM   25  O6  UNL     1      16.368  22.859  27.571  1.00  0.00    -0.278 OA
HETATM   26  C14 UNL     1      14.599  23.983  26.631  1.00  0.00     0.141 C 
HETATM   27  N1  UNL     1      14.197  24.710  25.833  1.00  0.00    -0.188 NA
ENDBRANCH  14  24
BRANCH  15  28
HETATM   28  O7  UNL     1      14.323  20.600  27.158  1.00  0.00    -0.391 OA
ATOM     29  H7  UNL     1      13.523  20.753  26.670  1.00  0.00     0.210 HD
ENDBRANCH  15  28
ENDBRANCH   9  10
ENDBRANCH   8   9
TORSDOF 8
ENDMDL
MODEL 4
REMARK VINA RESULT: -8.373616959      2.302      3.277
REMARK  8 active torsions:
REMARK  status: ('A' for Active; 'I' for Inactive)
REMARK    1  A    between atoms: C7_8  and  S1_9 
REMARK    2  A    between atoms: S1_9  and  C8_10 
REMARK    3  A    between atoms: C9_11  and  O2_12 
REMARK    4  A    between atoms: C10_14  and  O3_15 
REMARK    5  A    between atoms: C11_17  and  O4_18 
REMARK    6  A    between atoms: C12_20  and  O5_21 
REMARK    7  A    between atoms: C12_20  and  C13_23 
REMARK    8  A    between atoms: C15_27  and  O7_28 
ROOT
HETATM    1  C1  UNL     1      18.409  20.113  33.676  1.00  0.00     0.210 C 
HETATM    2  O1  UNL     1      18.277  19.264  32.720  1.00  0.00    -0.355 OA
HETATM    3  C2  UNL     1      18.160  18.410  31.753  1.00  0.00     0.085 A 
HETATM    4  C3  UNL     1      19.247  18.004  30.963  1.00  0.00     0.038 A 
HETATM    5  C4  UNL     1      19.082  17.107  29.962  1.00  0.00     0.003 A 
HETATM    6  C5  UNL     1      17.822  16.568  29.699  1.00  0.00     0.002 A 
HETATM    7  C6  UNL     1      16.749  16.959  30.466  1.00  0.00     0.021 A 
HETATM    8  C7  UNL     1      16.891  17.855  31.473  1.00  0.00     0.034 A 
ENDROOT
BRANCH   8   9
HETATM    9  S1  UNL     1      15.537  18.325  32.521  1.00  0.00    -0.117 SA
BRANCH   9  10
HETATM   10  C8  UNL     1      14.599  19.749  31.871  1.00  0.00     0.116 C 
HETATM   11  C9  UNL     1      13.199  19.269  31.672  1.00  0.00     0.166 C 
HETATM   12  C10 UNL     1      12.907  19.056  30.212  1.00  0.00     0.180 C 
HETATM   13  C11 UNL     1      13.038  20.393  29.527  1.00  0.00     0.195 C 
HETATM   14  C12 UNL     1      14.448  20.884  29.612  1.00  0.00     0.187 C 
HETATM   15  C15 UNL     1      15.283  20.222  30.636  1.00  0.00     0.180 C 
BRANCH  11  16
HETATM   16  O2  UNL     1      12.239  20.101  32.275  1.00  0.00    -0.392 OA
ATOM     17  H2  UNL     1      12.390  20.232  33.203  1.00  0.00     0.210 HD
ENDBRANCH  11  16
BRANCH  12  18
HETATM   18  O3  UNL     1      13.756  18.084  29.743  1.00  0.00    -0.390 OA
ATOM     19  H3  UNL     1      13.231  17.357  29.431  1.00  0.00     0.210 HD
ENDBRANCH  12  18
BRANCH  13  20
HETATM   20  O4  UNL     1      12.591  20.239  28.215  1.00  0.00    -0.389 OA
ATOM     21  H4  UNL     1      13.334  19.967  27.689  1.00  0.00     0.210 HD
ENDBRANCH  13  20
BRANCH  14  22
HETATM   22  O5  UNL     1      15.034  20.594  28.352  1.00  0.00    -0.376 OA
ATOM     23  H5  UNL     1      14.929  21.381  27.832  1.00  0.00     0.211 HD
ENDBRANCH  14  22
BRANCH  14  24
HETATM   24  C13 UNL     1      14.459  22.384  29.693  1.00  0.00     0.267 C 
HETATM   25  O6  UNL     1      14.118  23.018  30.726  1.00  0.00    -0.278 OA
HETATM   26  C14 UNL     1      14.875  23.200  28.564  1.00  0.00     0.141 C 
HETATM   27  N1  UNL     1      15.210  23.862  27.683  1.00  0.00    -0.188 NA
ENDBRANCH  14  24
BRANCH  15  28
HETATM   28  O7  UNL     1      16.342  21.054  30.963  1.00  0.00    -0.391 OA
ATOM     29  H7  UNL     1      16.027  21.817  31.433  1.00  0.00     0.210 HD
ENDBRANCH  15  28
ENDBRANCH   9  10
ENDBRANCH   8   9
TORSDOF 8
ENDMDL
MODEL 5
REMARK VINA RESULT: -8.328414534      4.460      7.789
REMARK  8 active torsions:
REMARK  status: ('A' for Active; 'I' for Inactive)
REMARK    1  A    between atoms: C7_8  and  S1_9 
REMARK    2  A    between atoms: S1_9  and  C8_10 
REMARK    3  A    between atoms: C9_11  and  O2_12 
REMARK    4  A    between atoms: C10_14  and  O3_15 
REMARK    5  A    between atoms: C11_17  and  O4_18 
REMARK    6  A    between atoms: C12_20  and  O5_21 
REMARK    7  A    between atoms: C12_20  and  C13_23 
REMARK    8  A    between atoms: C15_27  and  O7_28 
ROOT
HETATM    1  C1  UNL     1      16.781  21.729  31.130  1.00  0.00     0.210 C 
HETATM    2  O1  UNL     1      15.802  20.897  31.151  1.00  0.00    -0.355 OA
HETATM    3  C2  UNL     1      14.806  20.070  31.179  1.00  0.00     0.085 A 
HETATM    4  C3  UNL     1      13.519  20.445  31.598  1.00  0.00     0.038 A 
HETATM    5  C4  UNL     1      12.504  19.549  31.610  1.00  0.00     0.003 A 
HETATM    6  C5  UNL     1      12.721  18.232  31.204  1.00  0.00     0.002 A 
HETATM    7  C6  UNL     1      13.977  17.853  30.792  1.00  0.00     0.021 A 
HETATM    8  C7  UNL     1      15.008  18.733  30.771  1.00  0.00     0.034 A 
ENDROOT
BRANCH   8   9
HETATM    9  S1  UNL     1      16.622  18.287  30.179  1.00  0.00    -0.117 SA
BRANCH   9  10
HETATM   10  C8  UNL     1      17.646  17.479  31.456  1.00  0.00     0.116 C 
HETATM   11  C9  UNL     1      19.058  17.868  31.165  1.00  0.00     0.166 C 
HETATM   12  C10 UNL     1      19.815  16.722  30.553  1.00  0.00     0.180 C 
HETATM   13  C11 UNL     1      19.843  15.607  31.568  1.00  0.00     0.195 C 
HETATM   14  C12 UNL     1      18.458  15.110  31.833  1.00  0.00     0.187 C 
HETATM   15  C15 UNL     1      17.373  16.017  31.403  1.00  0.00     0.180 C 
BRANCH  11  16
HETATM   16  O2  UNL     1      19.729  18.391  32.284  1.00  0.00    -0.392 OA
ATOM     17  H2  UNL     1      19.902  17.741  32.953  1.00  0.00     0.210 HD
ENDBRANCH  11  16
BRANCH  12  18
HETATM   18  O3  UNL     1      19.213  16.398  29.361  1.00  0.00    -0.390 OA
ATOM     19  H3  UNL     1      19.678  15.661  28.985  1.00  0.00     0.210 HD
ENDBRANCH  12  18
BRANCH  13  20
HETATM   20  O4  UNL     1      20.696  14.617  31.083  1.00  0.00    -0.389 OA
ATOM     21  H4  UNL     1      20.155  13.905  30.761  1.00  0.00     0.210 HD
ENDBRANCH  13  20
BRANCH  14  22
HETATM   22  O5  UNL     1      18.325  13.919  31.073  1.00  0.00    -0.376 OA
ATOM     23  H5  UNL     1      19.077  13.385  31.298  1.00  0.00     0.211 HD
ENDBRANCH  14  22
BRANCH  14  24
HETATM   24  C13 UNL     1      18.346  14.658  33.261  1.00  0.00     0.267 C 
HETATM   25  O6  UNL     1      18.254  15.458  34.229  1.00  0.00    -0.278 OA
HETATM   26  C14 UNL     1      18.331  13.247  33.609  1.00  0.00     0.141 C 
HETATM   27  N1  UNL     1      18.311  12.133  33.904  1.00  0.00    -0.188 NA
ENDBRANCH  14  24
BRANCH  15  28
HETATM   28  O7  UNL     1      16.225  15.717  32.119  1.00  0.00    -0.391 OA
ATOM     29  H7  UNL     1      15.510  15.519  31.526  1.00  0.00     0.210 HD
ENDBRANCH  15  28
ENDBRANCH   9  10
ENDBRANCH   8   9
TORSDOF 8
ENDMDL
