MODEL 1
REMARK VINA RESULT: -3.506351737      0.000      0.000
REMARK  1 active torsions:
REMARK  status: ('A' for Active; 'I' for Inactive)
REMARK    1  A    between atoms: C2_2  and  N1_4 
ROOT
HETATM    1  N1  UNL     1      29.045  14.943  16.619  1.00  0.00    -0.028 N 
HETATM    2  C3  UNL     1      29.122  15.630  15.336  1.00  0.00     0.280 C 
HETATM    3  C4  UNL     1      30.205  14.241  17.068  1.00  0.00     0.273 A 
HETATM    4  C5  UNL     1      29.025  13.468  16.538  1.00  0.00     0.273 A 
ENDROOT
BRANCH   1   5
HETATM    5  C2  UNL     1      28.091  15.470  17.497  1.00  0.00     0.196 C 
HETATM    6  C1  UNL     1      27.887  14.975  18.717  1.00  0.00     0.064 C 
HETATM    7 CL1  UNL     1      27.133  16.837  16.957  1.00  0.00    -0.058 Cl
ENDBRANCH   1   5
TORSDOF 1
ENDMDL
MODEL 2
REMARK VINA RESULT: -3.423003796      1.938      2.773
REMARK  1 active torsions:
REMARK  status: ('A' for Active; 'I' for Inactive)
REMARK    1  A    between atoms: C2_2  and  N1_4 
ROOT
HETATM    1  N1  UNL     1      28.697  14.769  17.088  1.00  0.00    -0.028 N 
HETATM    2  C3  UNL     1      29.252  15.126  15.788  1.00  0.00     0.280 C 
HETATM    3  C4  UNL     1      27.767  15.675  17.684  1.00  0.00     0.273 A 
HETATM    4  C5  UNL     1      29.175  15.594  18.217  1.00  0.00     0.273 A 
ENDROOT
BRANCH   1   5
HETATM    5  C2  UNL     1      28.697  13.396  17.356  1.00  0.00     0.196 C 
HETATM    6  C1  UNL     1      29.330  12.513  16.584  1.00  0.00     0.064 C 
HETATM    7 CL1  UNL     1      27.824  12.826  18.767  1.00  0.00    -0.058 Cl
ENDBRANCH   1   5
TORSDOF 1
ENDMDL
MODEL 3
REMARK VINA RESULT: -3.402043544      1.719      2.917
REMARK  1 active torsions:
REMARK  status: ('A' for Active; 'I' for Inactive)
REMARK    1  A    between atoms: C2_2  and  N1_4 
ROOT
HETATM    1  N1  UNL     1      28.585  14.466  17.832  1.00  0.00    -0.028 N 
HETATM    2  C3  UNL     1      27.971  13.464  18.693  1.00  0.00     0.280 C 
HETATM    3  C4  UNL     1      29.086  15.654  18.447  1.00  0.00     0.273 A 
HETATM    4  C5  UNL     1      27.802  15.707  17.661  1.00  0.00     0.273 A 
ENDROOT
BRANCH   1   5
HETATM    5  C2  UNL     1      29.100  13.957  16.634  1.00  0.00     0.196 C 
HETATM    6  C1  UNL     1      29.421  12.673  16.479  1.00  0.00     0.064 C 
HETATM    7 CL1  UNL     1      29.327  15.064  15.292  1.00  0.00    -0.058 Cl
ENDBRANCH   1   5
TORSDOF 1
ENDMDL
MODEL 4
REMARK VINA RESULT: -3.389982096      1.353      2.398
REMARK  1 active torsions:
REMARK  status: ('A' for Active; 'I' for Inactive)
REMARK    1  A    between atoms: C2_2  and  N1_4 
ROOT
HETATM    1  N1  UNL     1      29.176  13.925  17.951  1.00  0.00    -0.028 N 
HETATM    2  C3  UNL     1      30.303  13.093  17.547  1.00  0.00     0.280 C 
HETATM    3  C4  UNL     1      28.919  14.061  19.350  1.00  0.00     0.273 A 
HETATM    4  C5  UNL     1      28.024  13.187  18.509  1.00  0.00     0.273 A 
ENDROOT
BRANCH   1   5
HETATM    5  C2  UNL     1      28.818  14.902  17.015  1.00  0.00     0.196 C 
HETATM    6  C1  UNL     1      29.355  14.960  15.798  1.00  0.00     0.064 C 
HETATM    7 CL1  UNL     1      27.613  16.090  17.477  1.00  0.00    -0.058 Cl
ENDBRANCH   1   5
TORSDOF 1
ENDMDL
MODEL 5
REMARK VINA RESULT: -3.386845322      1.696      2.381
REMARK  1 active torsions:
REMARK  status: ('A' for Active; 'I' for Inactive)
REMARK    1  A    between atoms: C2_2  and  N1_4 
ROOT
HETATM    1  N1  UNL     1      28.844  13.512  17.441  1.00  0.00    -0.028 N 
HETATM    2  C3  UNL     1      28.039  13.144  18.600  1.00  0.00     0.280 C 
HETATM    3  C4  UNL     1      29.299  12.460  16.588  1.00  0.00     0.273 A 
HETATM    4  C5  UNL     1      30.269  13.131  17.526  1.00  0.00     0.273 A 
ENDROOT
BRANCH   1   5
HETATM    5  C2  UNL     1      28.638  14.820  16.989  1.00  0.00     0.196 C 
HETATM    6  C1  UNL     1      27.964  15.726  17.697  1.00  0.00     0.064 C 
HETATM    7 CL1  UNL     1      29.298  15.272  15.428  1.00  0.00    -0.058 Cl
ENDBRANCH   1   5
TORSDOF 1
ENDMDL
