MODEL 1
REMARK VINA RESULT: -4.941998823      0.000      0.000
REMARK  3 active torsions:
REMARK  status: ('A' for Active; 'I' for Inactive)
REMARK    1  A    between atoms: C2_2  and  N1_3 
REMARK    2  A    between atoms: N1_3  and  C5_6 
REMARK    3  A    between atoms: C6_7  and  C8_9 
ROOT
HETATM    1  C5  UNL     1      29.362  13.471  16.391  1.00  0.00     0.215 C 
HETATM    2  C6  UNL     1      29.053  14.718  16.458  1.00  0.00     0.038 C 
HETATM    3  C7  UNL     1      29.282  15.548  15.201  1.00  0.00     0.057 C 
ENDROOT
BRANCH   1   4
HETATM    4  N1  UNL     1      29.298  12.414  17.308  1.00  0.00    -0.054 N 
HETATM    5  C3  UNL     1      29.963  11.254  16.666  1.00  0.00     0.277 C 
HETATM    6  C4  UNL     1      27.988  11.972  17.669  1.00  0.00     0.277 C 
BRANCH   4   7
HETATM    7  C2  UNL     1      30.021  12.771  18.509  1.00  0.00     0.237 C 
HETATM    8  C1  UNL     1      29.246  12.516  19.781  1.00  0.00     0.035 C 
ENDBRANCH   4   7
ENDBRANCH   1   4
BRANCH   2   9
HETATM    9  C8  UNL     1      28.526  15.410  17.569  1.00  0.00     0.206 C 
HETATM   10  O1  UNL     1      27.369  15.405  18.037  1.00  0.00    -0.644 OA
HETATM   11  O2  UNL     1      29.406  16.261  18.306  1.00  0.00    -0.644 OA
ENDBRANCH   2   9
TORSDOF 3
ENDMDL
MODEL 2
REMARK VINA RESULT: -4.813906549      0.820      1.404
REMARK  3 active torsions:
REMARK  status: ('A' for Active; 'I' for Inactive)
REMARK    1  A    between atoms: C2_2  and  N1_3 
REMARK    2  A    between atoms: N1_3  and  C5_6 
REMARK    3  A    between atoms: C6_7  and  C8_9 
ROOT
HETATM    1  C5  UNL     1      29.131  13.472  16.673  1.00  0.00     0.215 C 
HETATM    2  C6  UNL     1      29.026  14.745  16.529  1.00  0.00     0.038 C 
HETATM    3  C7  UNL     1      29.346  15.307  15.149  1.00  0.00     0.057 C 
ENDROOT
BRANCH   1   4
HETATM    4  N1  UNL     1      28.928  12.606  17.756  1.00  0.00    -0.054 N 
HETATM    5  C3  UNL     1      28.674  11.262  17.183  1.00  0.00     0.277 C 
HETATM    6  C4  UNL     1      27.809  12.899  18.594  1.00  0.00     0.277 C 
BRANCH   4   7
HETATM    7  C2  UNL     1      30.124  12.558  18.568  1.00  0.00     0.237 C 
HETATM    8  C1  UNL     1      31.160  11.580  18.063  1.00  0.00     0.035 C 
ENDBRANCH   4   7
ENDBRANCH   1   4
BRANCH   2   9
HETATM    9  C8  UNL     1      28.648  15.689  17.508  1.00  0.00     0.206 C 
HETATM   10  O1  UNL     1      29.332  16.233  18.399  1.00  0.00    -0.644 OA
HETATM   11  O2  UNL     1      27.286  16.123  17.528  1.00  0.00    -0.644 OA
ENDBRANCH   2   9
TORSDOF 3
ENDMDL
MODEL 3
REMARK VINA RESULT: -4.620151010      0.562      1.444
REMARK  3 active torsions:
REMARK  status: ('A' for Active; 'I' for Inactive)
REMARK    1  A    between atoms: C2_2  and  N1_3 
REMARK    2  A    between atoms: N1_3  and  C5_6 
REMARK    3  A    between atoms: C6_7  and  C8_9 
ROOT
HETATM    1  C5  UNL     1      29.309  13.598  16.324  1.00  0.00     0.215 C 
HETATM    2  C6  UNL     1      29.088  14.865  16.329  1.00  0.00     0.038 C 
HETATM    3  C7  UNL     1      29.277  15.598  15.007  1.00  0.00     0.057 C 
ENDROOT
BRANCH   1   4
HETATM    4  N1  UNL     1      29.244  12.607  17.312  1.00  0.00    -0.054 N 
HETATM    5  C3  UNL     1      30.427  12.801  18.186  1.00  0.00     0.277 C 
HETATM    6  C4  UNL     1      29.308  11.255  16.852  1.00  0.00     0.277 C 
BRANCH   4   7
HETATM    7  C2  UNL     1      28.041  12.781  18.095  1.00  0.00     0.237 C 
HETATM    8  C1  UNL     1      28.262  12.645  19.584  1.00  0.00     0.035 C 
ENDBRANCH   4   7
ENDBRANCH   1   4
BRANCH   2   9
HETATM    9  C8  UNL     1      28.690  15.660  17.425  1.00  0.00     0.206 C 
HETATM   10  O1  UNL     1      29.372  16.137  18.355  1.00  0.00    -0.644 OA
HETATM   11  O2  UNL     1      27.306  16.001  17.537  1.00  0.00    -0.644 OA
ENDBRANCH   2   9
TORSDOF 3
ENDMDL
MODEL 4
REMARK VINA RESULT: -4.534950674      0.491      1.363
REMARK  3 active torsions:
REMARK  status: ('A' for Active; 'I' for Inactive)
REMARK    1  A    between atoms: C2_2  and  N1_3 
REMARK    2  A    between atoms: N1_3  and  C5_6 
REMARK    3  A    between atoms: C6_7  and  C8_9 
ROOT
HETATM    1  C5  UNL     1      29.405  13.499  16.334  1.00  0.00     0.215 C 
HETATM    2  C6  UNL     1      29.056  14.732  16.439  1.00  0.00     0.038 C 
HETATM    3  C7  UNL     1      29.224  15.600  15.199  1.00  0.00     0.057 C 
ENDROOT
BRANCH   1   4
HETATM    4  N1  UNL     1      29.400  12.419  17.226  1.00  0.00    -0.054 N 
HETATM    5  C3  UNL     1      30.056  12.893  18.470  1.00  0.00     0.277 C 
HETATM    6  C4  UNL     1      30.125  11.258  16.812  1.00  0.00     0.277 C 
BRANCH   4   7
HETATM    7  C2  UNL     1      28.036  12.041  17.522  1.00  0.00     0.237 C 
HETATM    8  C1  UNL     1      27.739  11.955  19.001  1.00  0.00     0.035 C 
ENDBRANCH   4   7
ENDBRANCH   1   4
BRANCH   2   9
HETATM    9  C8  UNL     1      28.534  15.379  17.580  1.00  0.00     0.206 C 
HETATM   10  O1  UNL     1      27.392  15.320  18.079  1.00  0.00    -0.644 OA
HETATM   11  O2  UNL     1      29.403  16.246  18.314  1.00  0.00    -0.644 OA
ENDBRANCH   2   9
TORSDOF 3
ENDMDL
MODEL 5
REMARK VINA RESULT: -4.226984147      1.175      1.413
REMARK  3 active torsions:
REMARK  status: ('A' for Active; 'I' for Inactive)
REMARK    1  A    between atoms: C2_2  and  N1_3 
REMARK    2  A    between atoms: N1_3  and  C5_6 
REMARK    3  A    between atoms: C6_7  and  C8_9 
ROOT
HETATM    1  C5  UNL     1      28.916  13.213  17.346  1.00  0.00     0.215 C 
HETATM    2  C6  UNL     1      28.680  14.474  17.439  1.00  0.00     0.038 C 
HETATM    3  C7  UNL     1      29.136  15.343  16.274  1.00  0.00     0.057 C 
ENDROOT
BRANCH   1   4
HETATM    4  N1  UNL     1      28.657  12.121  18.186  1.00  0.00    -0.054 N 
HETATM    5  C3  UNL     1      28.834  10.901  17.361  1.00  0.00     0.277 C 
HETATM    6  C4  UNL     1      27.339  12.046  18.731  1.00  0.00     0.277 C 
BRANCH   4   7
HETATM    7  C2  UNL     1      29.616  12.106  19.269  1.00  0.00     0.237 C 
HETATM    8  C1  UNL     1      29.001  11.807  20.617  1.00  0.00     0.035 C 
ENDBRANCH   4   7
ENDBRANCH   1   4
BRANCH   2   9
HETATM    9  C8  UNL     1      28.047  15.149  18.503  1.00  0.00     0.206 C 
HETATM   10  O1  UNL     1      28.316  15.150  19.722  1.00  0.00    -0.644 OA
HETATM   11  O2  UNL     1      26.919  15.973  18.196  1.00  0.00    -0.644 OA
ENDBRANCH   2   9
TORSDOF 3
ENDMDL
