MODEL 1
REMARK VINA RESULT: -7.612730667      0.000      0.000
REMARK  15 active torsions:
REMARK  status: ('A' for Active; 'I' for Inactive)
REMARK    1  A    between atoms: O1_2  and  C2_3 
REMARK    2  A    between atoms: C2_3  and  C3_5 
REMARK    3  A    between atoms: C3_5  and  N1_6 
REMARK    4  A    between atoms: C4_7  and  C5_8 
REMARK    5  A    between atoms: C13_27  and  C14_28 
REMARK       I    between atoms: C14_28  and  N6_30 
REMARK    6  A    between atoms: N6_30  and  C15_32 
REMARK    7  A    between atoms: C15_32  and  O8_33 
REMARK    8  A    between atoms: C15_32  and  C16_35 
REMARK    9  A    between atoms: C16_35  and  N7_36 
REMARK   10  A    between atoms: C16_35  and  C18_42 
REMARK   11  A    between atoms: N7_36  and  N8_38 
REMARK   12  A    between atoms: N8_38  and  O9_40 
REMARK   13  A    between atoms: C20_44  and  C21_45 
REMARK   14  A    between atoms: C21_45  and  O10_47 
REMARK   15  A    between atoms: C23_49  and  S2_50 
ROOT
HETATM    1  N1  UNL     1      29.117 -39.821 -28.196  1.00  0.00    -0.239 NA
HETATM    2  C4  UNL     1      30.425 -39.956 -28.806  1.00  0.00     0.175 C 
HETATM    3  C6  UNL     1      30.674 -41.155 -29.664  1.00  0.00     0.113 C 
HETATM    4  S1  UNL     1      31.356 -42.502 -28.625  1.00  0.00    -0.091 SA
HETATM    5  C7  UNL     1      30.765 -42.244 -26.933  1.00  0.00     0.154 A 
HETATM    6  N2  UNL     1      31.399 -42.635 -25.831  1.00  0.00    -0.320 N 
ATOM      7  H2  UNL     1      32.269 -43.166 -25.772  1.00  0.00     0.169 HD
HETATM    8  C8  UNL     1      30.639 -42.175 -24.793  1.00  0.00     0.146 A 
HETATM    9  C9  UNL     1      29.523 -41.493 -25.286  1.00  0.00     0.156 A 
HETATM   10  C10 UNL     1      28.632 -40.914 -24.420  1.00  0.00     0.280 A 
HETATM   11  O5  UNL     1      27.629 -40.284 -24.838  1.00  0.00    -0.265 OA
HETATM   12  N3  UNL     1      28.856 -41.026 -23.091  1.00  0.00    -0.273 N 
ATOM     13  H3  UNL     1      28.199 -40.601 -22.436  1.00  0.00     0.173 HD
HETATM   14  C11 UNL     1      29.924 -41.685 -22.616  1.00  0.00     0.330 A 
HETATM   15  O6  UNL     1      30.144 -41.799 -21.368  1.00  0.00    -0.246 OA
HETATM   16  N4  UNL     1      30.800 -42.249 -23.465  1.00  0.00    -0.287 N 
HETATM   17  C12 UNL     1      31.969 -42.966 -22.955  1.00  0.00     0.163 C 
HETATM   18  N5  UNL     1      29.616 -41.552 -26.622  1.00  0.00    -0.269 N 
HETATM   19  C13 UNL     1      28.679 -41.026 -27.615  1.00  0.00     0.162 C 
ENDROOT
BRANCH  19  20
HETATM   20  C14 UNL     1      27.300 -41.428 -27.487  1.00  0.00     0.282 C 
HETATM   21  O7  UNL     1      26.264 -40.808 -27.221  1.00  0.00    -0.265 OA
HETATM   22  N6  UNL     1      27.053 -42.848 -27.719  1.00  0.00    -0.327 N 
ATOM     23  H6  UNL     1      27.842 -43.453 -27.947  1.00  0.00     0.165 HD
BRANCH  22  24
HETATM   24  C15 UNL     1      25.738 -43.427 -27.640  1.00  0.00     0.246 C 
BRANCH  24  25
HETATM   25  O8  UNL     1      25.107 -43.160 -26.436  1.00  0.00    -0.374 OA
ATOM     26  H8  UNL     1      25.273 -43.826 -25.779  1.00  0.00     0.212 HD
ENDBRANCH  24  25
BRANCH  24  27
HETATM   27  C16 UNL     1      25.760 -44.927 -27.930  1.00  0.00     0.173 C 
BRANCH  27  28
HETATM   28  N7  UNL     1      25.190 -45.703 -26.886  1.00  0.00    -0.321 N 
ATOM     29  H7  UNL     1      24.218 -45.584 -26.603  1.00  0.00     0.177 HD
BRANCH  28  30
HETATM   30  N8  UNL     1      26.011 -46.618 -26.276  1.00  0.00    -0.116 NA
HETATM   31  C17 UNL     1      27.401 -46.211 -26.198  1.00  0.00     0.170 C 
BRANCH  30  32
HETATM   32  O9  UNL     1      25.980 -47.786 -26.970  1.00  0.00    -0.294 OA
ATOM     33  H9  UNL     1      26.868 -48.080 -27.133  1.00  0.00     0.239 HD
ENDBRANCH  30  32
ENDBRANCH  28  30
ENDBRANCH  27  28
BRANCH  27  34
HETATM   34  C18 UNL     1      25.271 -45.179 -29.305  1.00  0.00     0.151 C 
HETATM   35  C19 UNL     1      24.027 -46.004 -29.413  1.00  0.00     0.045 C 
HETATM   36  C20 UNL     1      23.596 -45.700 -30.834  1.00  0.00     0.055 C 
HETATM   37  C23 UNL     1      24.411 -44.506 -31.227  1.00  0.00     0.189 C 
HETATM   38  O11 UNL     1      25.072 -44.047 -30.088  1.00  0.00    -0.368 OA
BRANCH  36  39
HETATM   39  C21 UNL     1      22.121 -45.473 -30.942  1.00  0.00     0.121 C 
HETATM   40  C22 UNL     1      21.387 -46.778 -31.145  1.00  0.00     0.040 C 
BRANCH  39  41
HETATM   41  O10 UNL     1      21.622 -44.877 -29.784  1.00  0.00    -0.395 OA
ATOM     42  H10 UNL     1      21.870 -45.373 -29.013  1.00  0.00     0.210 HD
ENDBRANCH  39  41
ENDBRANCH  36  39
BRANCH  37  43
HETATM   43  S2  UNL     1      25.713 -44.993 -32.416  1.00  0.00    -0.141 SA
HETATM   44  C24 UNL     1      25.577 -46.737 -32.826  1.00  0.00     0.092 C 
ENDBRANCH  37  43
ENDBRANCH  27  34
ENDBRANCH  24  27
ENDBRANCH  22  24
ENDBRANCH  19  20
BRANCH   1  45
HETATM   45  C3  UNL     1      28.202 -39.211 -29.082  1.00  0.00     0.209 C 
BRANCH  45  46
HETATM   46  C2  UNL     1      28.640 -37.888 -29.650  1.00  0.00     0.272 C 
HETATM   47  O2  UNL     1      29.098 -36.980 -28.917  1.00  0.00    -0.264 OA
BRANCH  46  48
HETATM   48  O1  UNL     1      28.555 -37.629 -30.994  1.00  0.00    -0.326 OA
HETATM   49  C1  UNL     1      29.633 -37.908 -31.868  1.00  0.00     0.213 C 
ENDBRANCH  46  48
ENDBRANCH  45  46
ENDBRANCH   1  45
BRANCH   2  50
HETATM   50  C5  UNL     1      31.568 -39.568 -27.981  1.00  0.00     0.192 C 
HETATM   51  O3  UNL     1      31.443 -38.999 -26.892  1.00  0.00    -0.647 OA
HETATM   52  O4  UNL     1      32.846 -39.844 -28.425  1.00  0.00    -0.647 OA
ENDBRANCH   2  50
TORSDOF 15
ENDMDL
MODEL 2
REMARK VINA RESULT: -7.601451141      2.785      7.902
REMARK  15 active torsions:
REMARK  status: ('A' for Active; 'I' for Inactive)
REMARK    1  A    between atoms: O1_2  and  C2_3 
REMARK    2  A    between atoms: C2_3  and  C3_5 
REMARK    3  A    between atoms: C3_5  and  N1_6 
REMARK    4  A    between atoms: C4_7  and  C5_8 
REMARK    5  A    between atoms: C13_27  and  C14_28 
REMARK       I    between atoms: C14_28  and  N6_30 
REMARK    6  A    between atoms: N6_30  and  C15_32 
REMARK    7  A    between atoms: C15_32  and  O8_33 
REMARK    8  A    between atoms: C15_32  and  C16_35 
REMARK    9  A    between atoms: C16_35  and  N7_36 
REMARK   10  A    between atoms: C16_35  and  C18_42 
REMARK   11  A    between atoms: N7_36  and  N8_38 
REMARK   12  A    between atoms: N8_38  and  O9_40 
REMARK   13  A    between atoms: C20_44  and  C21_45 
REMARK   14  A    between atoms: C21_45  and  O10_47 
REMARK   15  A    between atoms: C23_49  and  S2_50 
ROOT
HETATM    1  N1  UNL     1      30.230 -41.754 -26.749  1.00  0.00    -0.239 NA
HETATM    2  C4  UNL     1      30.128 -41.263 -28.109  1.00  0.00     0.175 C 
HETATM    3  C6  UNL     1      29.248 -40.081 -28.359  1.00  0.00     0.113 C 
HETATM    4  S1  UNL     1      27.561 -40.669 -28.770  1.00  0.00    -0.091 SA
HETATM    5  C7  UNL     1      27.336 -42.285 -27.984  1.00  0.00     0.154 A 
HETATM    6  N2  UNL     1      26.532 -43.249 -28.427  1.00  0.00    -0.320 N 
ATOM      7  H2  UNL     1      25.903 -43.209 -29.228  1.00  0.00     0.169 HD
HETATM    8  C8  UNL     1      26.730 -44.302 -27.580  1.00  0.00     0.146 A 
HETATM    9  C9  UNL     1      27.674 -43.961 -26.607  1.00  0.00     0.156 A 
HETATM   10  C10 UNL     1      28.055 -44.881 -25.664  1.00  0.00     0.280 A 
HETATM   11  O5  UNL     1      28.910 -44.604 -24.788  1.00  0.00    -0.265 OA
HETATM   12  N3  UNL     1      27.493 -46.111 -25.697  1.00  0.00    -0.273 N 
ATOM     13  H3  UNL     1      27.767 -46.804 -25.000  1.00  0.00     0.173 HD
HETATM   14  C11 UNL     1      26.583 -46.439 -26.628  1.00  0.00     0.330 A 
HETATM   15  O6  UNL     1      26.046 -47.592 -26.668  1.00  0.00    -0.246 OA
HETATM   16  N4  UNL     1      26.213 -45.538 -27.554  1.00  0.00    -0.287 N 
HETATM   17  C12 UNL     1      25.223 -45.889 -28.574  1.00  0.00     0.163 C 
HETATM   18  N5  UNL     1      28.036 -42.698 -26.872  1.00  0.00    -0.269 N 
HETATM   19  C13 UNL     1      28.970 -41.853 -26.128  1.00  0.00     0.162 C 
ENDROOT
BRANCH  19  20
HETATM   20  C14 UNL     1      28.732 -41.706 -24.714  1.00  0.00     0.282 C 
HETATM   21  O7  UNL     1      27.745 -41.354 -24.058  1.00  0.00    -0.265 OA
HETATM   22  N6  UNL     1      29.872 -42.042 -23.865  1.00  0.00    -0.327 N 
ATOM     23  H6  UNL     1      30.740 -42.346 -24.306  1.00  0.00     0.165 HD
BRANCH  22  24
HETATM   24  C15 UNL     1      29.816 -41.961 -22.429  1.00  0.00     0.246 C 
BRANCH  24  25
HETATM   25  O8  UNL     1      29.739 -40.658 -21.969  1.00  0.00    -0.374 OA
ATOM     26  H8  UNL     1      28.942 -40.487 -21.480  1.00  0.00     0.212 HD
ENDBRANCH  24  25
BRANCH  24  27
HETATM   27  C16 UNL     1      30.978 -42.708 -21.774  1.00  0.00     0.173 C 
BRANCH  27  28
HETATM   28  N7  UNL     1      30.570 -43.521 -20.684  1.00  0.00    -0.321 N 
ATOM     29  H7  UNL     1      30.492 -44.534 -20.773  1.00  0.00     0.177 HD
BRANCH  28  30
HETATM   30  N8  UNL     1      30.286 -42.879 -19.504  1.00  0.00    -0.116 NA
HETATM   31  C17 UNL     1      31.080 -43.330 -18.376  1.00  0.00     0.170 C 
BRANCH  30  32
HETATM   32  O9  UNL     1      28.983 -43.089 -19.178  1.00  0.00    -0.294 OA
ATOM     33  H9  UNL     1      28.905 -43.184 -18.236  1.00  0.00     0.239 HD
ENDBRANCH  30  32
ENDBRANCH  28  30
ENDBRANCH  27  28
BRANCH  27  34
HETATM   34  C18 UNL     1      31.816 -43.344 -22.816  1.00  0.00     0.151 C 
HETATM   35  C19 UNL     1      33.209 -42.812 -22.946  1.00  0.00     0.045 C 
HETATM   36  C20 UNL     1      33.873 -43.919 -23.741  1.00  0.00     0.055 C 
HETATM   37  C23 UNL     1      32.915 -45.068 -23.657  1.00  0.00     0.189 C 
HETATM   38  O11 UNL     1      31.921 -44.728 -22.740  1.00  0.00    -0.368 OA
BRANCH  36  39
HETATM   39  C21 UNL     1      35.238 -44.246 -23.223  1.00  0.00     0.121 C 
HETATM   40  C22 UNL     1      35.251 -44.270 -21.712  1.00  0.00     0.040 C 
BRANCH  39  41
HETATM   41  O10 UNL     1      35.655 -45.500 -23.673  1.00  0.00    -0.395 OA
ATOM     42  H10 UNL     1      36.334 -45.854 -23.111  1.00  0.00     0.210 HD
ENDBRANCH  39  41
ENDBRANCH  36  39
BRANCH  37  43
HETATM   43  S2  UNL     1      32.073 -45.307 -25.263  1.00  0.00    -0.141 SA
HETATM   44  C24 UNL     1      33.184 -46.067 -26.454  1.00  0.00     0.092 C 
ENDBRANCH  37  43
ENDBRANCH  27  34
ENDBRANCH  24  27
ENDBRANCH  22  24
ENDBRANCH  19  20
BRANCH   1  45
HETATM   45  C3  UNL     1      31.207 -41.039 -26.020  1.00  0.00     0.209 C 
BRANCH  45  46
HETATM   46  C2  UNL     1      32.602 -41.106 -26.577  1.00  0.00     0.272 C 
HETATM   47  O2  UNL     1      33.250 -40.067 -26.846  1.00  0.00    -0.264 OA
BRANCH  46  48
HETATM   48  O1  UNL     1      33.218 -42.309 -26.810  1.00  0.00    -0.326 OA
HETATM   49  C1  UNL     1      33.758 -42.629 -28.079  1.00  0.00     0.213 C 
ENDBRANCH  46  48
ENDBRANCH  45  46
ENDBRANCH   1  45
BRANCH   2  50
HETATM   50  C5  UNL     1      30.078 -42.276 -29.161  1.00  0.00     0.192 C 
HETATM   51  O3  UNL     1      29.735 -42.020 -30.319  1.00  0.00    -0.647 OA
HETATM   52  O4  UNL     1      30.427 -43.579 -28.862  1.00  0.00    -0.647 OA
ENDBRANCH   2  50
TORSDOF 15
ENDMDL
MODEL 3
REMARK VINA RESULT: -7.482472013      3.145      7.112
REMARK  15 active torsions:
REMARK  status: ('A' for Active; 'I' for Inactive)
REMARK    1  A    between atoms: O1_2  and  C2_3 
REMARK    2  A    between atoms: C2_3  and  C3_5 
REMARK    3  A    between atoms: C3_5  and  N1_6 
REMARK    4  A    between atoms: C4_7  and  C5_8 
REMARK    5  A    between atoms: C13_27  and  C14_28 
REMARK       I    between atoms: C14_28  and  N6_30 
REMARK    6  A    between atoms: N6_30  and  C15_32 
REMARK    7  A    between atoms: C15_32  and  O8_33 
REMARK    8  A    between atoms: C15_32  and  C16_35 
REMARK    9  A    between atoms: C16_35  and  N7_36 
REMARK   10  A    between atoms: C16_35  and  C18_42 
REMARK   11  A    between atoms: N7_36  and  N8_38 
REMARK   12  A    between atoms: N8_38  and  O9_40 
REMARK   13  A    between atoms: C20_44  and  C21_45 
REMARK   14  A    between atoms: C21_45  and  O10_47 
REMARK   15  A    between atoms: C23_49  and  S2_50 
ROOT
HETATM    1  N1  UNL     1      31.268 -42.233 -22.230  1.00  0.00    -0.239 NA
HETATM    2  C4  UNL     1      32.586 -41.769 -21.846  1.00  0.00     0.175 C 
HETATM    3  C6  UNL     1      32.985 -40.387 -22.253  1.00  0.00     0.113 C 
HETATM    4  S1  UNL     1      33.820 -40.460 -23.883  1.00  0.00    -0.091 SA
HETATM    5  C7  UNL     1      33.192 -41.917 -24.756  1.00  0.00     0.154 A 
HETATM    6  N2  UNL     1      33.863 -42.611 -25.672  1.00  0.00    -0.320 N 
ATOM      7  H2  UNL     1      34.790 -42.407 -26.045  1.00  0.00     0.169 HD
HETATM    8  C8  UNL     1      33.046 -43.654 -26.006  1.00  0.00     0.146 A 
HETATM    9  C9  UNL     1      31.858 -43.582 -25.273  1.00  0.00     0.156 A 
HETATM   10  C10 UNL     1      30.897 -44.549 -25.422  1.00  0.00     0.280 A 
HETATM   11  O5  UNL     1      29.828 -44.515 -24.765  1.00  0.00    -0.265 OA
HETATM   12  N3  UNL     1      31.126 -45.558 -26.292  1.00  0.00    -0.273 N 
ATOM     13  H3  UNL     1      30.418 -46.284 -26.413  1.00  0.00     0.173 HD
HETATM   14  C11 UNL     1      32.264 -45.626 -27.001  1.00  0.00     0.330 A 
HETATM   15  O6  UNL     1      32.489 -46.570 -27.824  1.00  0.00    -0.246 OA
HETATM   16  N4  UNL     1      33.207 -44.680 -26.851  1.00  0.00    -0.287 N 
HETATM   17  C12 UNL     1      34.452 -44.749 -27.618  1.00  0.00     0.163 C 
HETATM   18  N5  UNL     1      31.965 -42.489 -24.504  1.00  0.00    -0.269 N 
HETATM   19  C13 UNL     1      30.976 -41.939 -23.576  1.00  0.00     0.162 C 
ENDROOT
BRANCH  19  20
HETATM   20  C14 UNL     1      29.656 -41.693 -24.100  1.00  0.00     0.282 C 
HETATM   21  O7  UNL     1      28.533 -42.092 -23.773  1.00  0.00    -0.265 OA
HETATM   22  N6  UNL     1      29.613 -40.789 -25.245  1.00  0.00    -0.327 N 
ATOM     23  H6  UNL     1      30.488 -40.401 -25.598  1.00  0.00     0.165 HD
BRANCH  22  24
HETATM   24  C15 UNL     1      28.382 -40.423 -25.896  1.00  0.00     0.246 C 
BRANCH  24  25
HETATM   25  O8  UNL     1      27.341 -40.233 -25.002  1.00  0.00    -0.374 OA
ATOM     26  H8  UNL     1      26.497 -40.161 -25.432  1.00  0.00     0.212 HD
ENDBRANCH  24  25
BRANCH  24  27
HETATM   27  C16 UNL     1      27.997 -41.424 -26.985  1.00  0.00     0.173 C 
BRANCH  27  28
HETATM   28  N7  UNL     1      26.604 -41.695 -27.022  1.00  0.00    -0.321 N 
ATOM     29  H7  UNL     1      25.933 -40.999 -27.346  1.00  0.00     0.177 HD
BRANCH  28  30
HETATM   30  N8  UNL     1      26.203 -42.939 -26.601  1.00  0.00    -0.116 NA
HETATM   31  C17 UNL     1      24.918 -43.359 -27.128  1.00  0.00     0.170 C 
BRANCH  30  32
HETATM   32  O9  UNL     1      26.095 -42.944 -25.246  1.00  0.00    -0.294 OA
ATOM     33  H9  UNL     1      25.178 -42.993 -25.003  1.00  0.00     0.239 HD
ENDBRANCH  30  32
ENDBRANCH  28  30
ENDBRANCH  27  28
BRANCH  27  34
HETATM   34  C18 UNL     1      28.649 -41.050 -28.261  1.00  0.00     0.151 C 
HETATM   35  C19 UNL     1      28.090 -39.845 -28.950  1.00  0.00     0.045 C 
HETATM   36  C20 UNL     1      29.208 -39.516 -29.919  1.00  0.00     0.055 C 
HETATM   37  C23 UNL     1      30.375 -40.320 -29.433  1.00  0.00     0.189 C 
HETATM   38  O11 UNL     1      30.027 -40.876 -28.202  1.00  0.00    -0.368 OA
BRANCH  36  39
HETATM   39  C21 UNL     1      29.486 -38.047 -29.984  1.00  0.00     0.121 C 
HETATM   40  C22 UNL     1      28.248 -37.248 -29.649  1.00  0.00     0.040 C 
BRANCH  39  41
HETATM   41  O10 UNL     1      30.484 -37.688 -29.078  1.00  0.00    -0.395 OA
ATOM     42  H10 UNL     1      30.986 -36.949 -29.401  1.00  0.00     0.210 HD
ENDBRANCH  39  41
ENDBRANCH  36  39
BRANCH  37  43
HETATM   43  S2  UNL     1      30.688 -41.725 -30.562  1.00  0.00    -0.141 SA
HETATM   44  C24 UNL     1      31.410 -43.107 -29.670  1.00  0.00     0.092 C 
ENDBRANCH  37  43
ENDBRANCH  27  34
ENDBRANCH  24  27
ENDBRANCH  22  24
ENDBRANCH  19  20
BRANCH   1  45
HETATM   45  C3  UNL     1      30.291 -41.821 -21.297  1.00  0.00     0.209 C 
BRANCH  45  46
HETATM   46  C2  UNL     1      30.160 -42.688 -20.076  1.00  0.00     0.272 C 
HETATM   47  O2  UNL     1      29.056 -42.854 -19.505  1.00  0.00    -0.264 OA
BRANCH  46  48
HETATM   48  O1  UNL     1      31.246 -43.333 -19.542  1.00  0.00    -0.326 OA
HETATM   49  C1  UNL     1      31.383 -43.515 -18.145  1.00  0.00     0.213 C 
ENDBRANCH  46  48
ENDBRANCH  45  46
ENDBRANCH   1  45
BRANCH   2  50
HETATM   50  C5  UNL     1      33.668 -42.748 -21.930  1.00  0.00     0.192 C 
HETATM   51  O3  UNL     1      33.467 -43.950 -22.129  1.00  0.00    -0.647 OA
HETATM   52  O4  UNL     1      34.975 -42.325 -21.784  1.00  0.00    -0.647 OA
ENDBRANCH   2  50
TORSDOF 15
ENDMDL
MODEL 4
REMARK VINA RESULT: -7.442613487      1.077      1.647
REMARK  15 active torsions:
REMARK  status: ('A' for Active; 'I' for Inactive)
REMARK    1  A    between atoms: O1_2  and  C2_3 
REMARK    2  A    between atoms: C2_3  and  C3_5 
REMARK    3  A    between atoms: C3_5  and  N1_6 
REMARK    4  A    between atoms: C4_7  and  C5_8 
REMARK    5  A    between atoms: C13_27  and  C14_28 
REMARK       I    between atoms: C14_28  and  N6_30 
REMARK    6  A    between atoms: N6_30  and  C15_32 
REMARK    7  A    between atoms: C15_32  and  O8_33 
REMARK    8  A    between atoms: C15_32  and  C16_35 
REMARK    9  A    between atoms: C16_35  and  N7_36 
REMARK   10  A    between atoms: C16_35  and  C18_42 
REMARK   11  A    between atoms: N7_36  and  N8_38 
REMARK   12  A    between atoms: N8_38  and  O9_40 
REMARK   13  A    between atoms: C20_44  and  C21_45 
REMARK   14  A    between atoms: C21_45  and  O10_47 
REMARK   15  A    between atoms: C23_49  and  S2_50 
ROOT
HETATM    1  N1  UNL     1      29.151 -40.020 -28.336  1.00  0.00    -0.239 NA
HETATM    2  C4  UNL     1      30.463 -40.228 -28.916  1.00  0.00     0.175 C 
HETATM    3  C6  UNL     1      30.679 -41.465 -29.727  1.00  0.00     0.113 C 
HETATM    4  S1  UNL     1      31.289 -42.800 -28.630  1.00  0.00    -0.091 SA
HETATM    5  C7  UNL     1      30.680 -42.459 -26.959  1.00  0.00     0.154 A 
HETATM    6  N2  UNL     1      31.279 -42.835 -25.832  1.00  0.00    -0.320 N 
ATOM      7  H2  UNL     1      32.126 -43.396 -25.739  1.00  0.00     0.169 HD
HETATM    8  C8  UNL     1      30.520 -42.308 -24.825  1.00  0.00     0.146 A 
HETATM    9  C9  UNL     1      29.441 -41.602 -25.363  1.00  0.00     0.156 A 
HETATM   10  C10 UNL     1      28.558 -40.958 -24.534  1.00  0.00     0.280 A 
HETATM   11  O5  UNL     1      27.588 -40.305 -24.992  1.00  0.00    -0.265 OA
HETATM   12  N3  UNL     1      28.754 -41.031 -23.198  1.00  0.00    -0.273 N 
ATOM     13  H3  UNL     1      28.103 -40.558 -22.571  1.00  0.00     0.173 HD
HETATM   14  C11 UNL     1      29.787 -41.714 -22.680  1.00  0.00     0.330 A 
HETATM   15  O6  UNL     1      29.981 -41.791 -21.425  1.00  0.00    -0.246 OA
HETATM   16  N4  UNL     1      30.655 -42.341 -23.493  1.00  0.00    -0.287 N 
HETATM   17  C12 UNL     1      31.785 -43.085 -22.936  1.00  0.00     0.163 C 
HETATM   18  N5  UNL     1      29.554 -41.711 -26.694  1.00  0.00    -0.269 N 
HETATM   19  C13 UNL     1      28.655 -41.186 -27.722  1.00  0.00     0.162 C 
ENDROOT
BRANCH  19  20
HETATM   20  C14 UNL     1      27.260 -41.528 -27.605  1.00  0.00     0.282 C 
HETATM   21  O7  UNL     1      26.244 -40.859 -27.383  1.00  0.00    -0.265 OA
HETATM   22  N6  UNL     1      26.961 -42.946 -27.790  1.00  0.00    -0.327 N 
ATOM     23  H6  UNL     1      27.730 -43.589 -27.979  1.00  0.00     0.165 HD
BRANCH  22  24
HETATM   24  C15 UNL     1      25.623 -43.470 -27.715  1.00  0.00     0.246 C 
BRANCH  24  25
HETATM   25  O8  UNL     1      24.963 -43.088 -26.559  1.00  0.00    -0.374 OA
ATOM     26  H8  UNL     1      24.182 -42.576 -26.734  1.00  0.00     0.212 HD
ENDBRANCH  24  25
BRANCH  24  27
HETATM   27  C16 UNL     1      25.599 -44.988 -27.887  1.00  0.00     0.173 C 
BRANCH  27  28
HETATM   28  N7  UNL     1      25.290 -45.678 -26.685  1.00  0.00    -0.321 N 
ATOM     29  H7  UNL     1      24.425 -45.501 -26.175  1.00  0.00     0.177 HD
BRANCH  28  30
HETATM   30  N8  UNL     1      26.212 -46.594 -26.242  1.00  0.00    -0.116 NA
HETATM   31  C17 UNL     1      27.586 -46.132 -26.302  1.00  0.00     0.170 C 
BRANCH  30  32
HETATM   32  O9  UNL     1      26.139 -47.715 -27.008  1.00  0.00    -0.294 OA
ATOM     33  H9  UNL     1      26.146 -47.471 -27.926  1.00  0.00     0.239 HD
ENDBRANCH  30  32
ENDBRANCH  28  30
ENDBRANCH  27  28
BRANCH  27  34
HETATM   34  C18 UNL     1      24.814 -45.343 -29.092  1.00  0.00     0.151 C 
HETATM   35  C19 UNL     1      25.354 -44.839 -30.393  1.00  0.00     0.045 C 
HETATM   36  C20 UNL     1      24.601 -45.709 -31.380  1.00  0.00     0.055 C 
HETATM   37  C23 UNL     1      24.019 -46.808 -30.544  1.00  0.00     0.189 C 
HETATM   38  O11 UNL     1      24.557 -46.699 -29.262  1.00  0.00    -0.368 OA
BRANCH  36  39
HETATM   39  C21 UNL     1      25.483 -46.207 -32.482  1.00  0.00     0.121 C 
HETATM   40  C22 UNL     1      25.573 -47.715 -32.462  1.00  0.00     0.040 C 
BRANCH  39  41
HETATM   41  O10 UNL     1      24.986 -45.825 -33.729  1.00  0.00    -0.395 OA
ATOM     42  H10 UNL     1      25.496 -45.113 -34.095  1.00  0.00     0.210 HD
ENDBRANCH  39  41
ENDBRANCH  36  39
BRANCH  37  43
HETATM   43  S2  UNL     1      22.213 -46.576 -30.366  1.00  0.00    -0.141 SA
HETATM   44  C24 UNL     1      21.600 -45.410 -31.587  1.00  0.00     0.092 C 
ENDBRANCH  37  43
ENDBRANCH  27  34
ENDBRANCH  24  27
ENDBRANCH  22  24
ENDBRANCH  19  20
BRANCH   1  45
HETATM   45  C3  UNL     1      28.277 -39.406 -29.260  1.00  0.00     0.209 C 
BRANCH  45  46
HETATM   46  C2  UNL     1      28.719 -38.063 -29.771  1.00  0.00     0.272 C 
HETATM   47  O2  UNL     1      29.116 -37.164 -28.992  1.00  0.00    -0.264 OA
BRANCH  46  48
HETATM   48  O1  UNL     1      28.706 -37.773 -31.111  1.00  0.00    -0.326 OA
HETATM   49  C1  UNL     1      29.364 -38.601 -32.052  1.00  0.00     0.213 C 
ENDBRANCH  46  48
ENDBRANCH  45  46
ENDBRANCH   1  45
BRANCH   2  50
HETATM   50  C5  UNL     1      31.606 -39.855 -28.084  1.00  0.00     0.192 C 
HETATM   51  O3  UNL     1      31.485 -39.241 -27.020  1.00  0.00    -0.647 OA
HETATM   52  O4  UNL     1      32.880 -40.200 -28.493  1.00  0.00    -0.647 OA
ENDBRANCH   2  50
TORSDOF 15
ENDMDL
MODEL 5
REMARK VINA RESULT: -7.368975619      3.115      5.555
REMARK  15 active torsions:
REMARK  status: ('A' for Active; 'I' for Inactive)
REMARK    1  A    between atoms: O1_2  and  C2_3 
REMARK    2  A    between atoms: C2_3  and  C3_5 
REMARK    3  A    between atoms: C3_5  and  N1_6 
REMARK    4  A    between atoms: C4_7  and  C5_8 
REMARK    5  A    between atoms: C13_27  and  C14_28 
REMARK       I    between atoms: C14_28  and  N6_30 
REMARK    6  A    between atoms: N6_30  and  C15_32 
REMARK    7  A    between atoms: C15_32  and  O8_33 
REMARK    8  A    between atoms: C15_32  and  C16_35 
REMARK    9  A    between atoms: C16_35  and  N7_36 
REMARK   10  A    between atoms: C16_35  and  C18_42 
REMARK   11  A    between atoms: N7_36  and  N8_38 
REMARK   12  A    between atoms: N8_38  and  O9_40 
REMARK   13  A    between atoms: C20_44  and  C21_45 
REMARK   14  A    between atoms: C21_45  and  O10_47 
REMARK   15  A    between atoms: C23_49  and  S2_50 
ROOT
HETATM    1  N1  UNL     1      31.284 -43.645 -24.113  1.00  0.00    -0.239 NA
HETATM    2  C4  UNL     1      32.276 -44.041 -23.133  1.00  0.00     0.175 C 
HETATM    3  C6  UNL     1      31.906 -43.944 -21.688  1.00  0.00     0.113 C 
HETATM    4  S1  UNL     1      32.389 -42.292 -21.057  1.00  0.00    -0.091 SA
HETATM    5  C7  UNL     1      32.377 -41.144 -22.458  1.00  0.00     0.154 A 
HETATM    6  N2  UNL     1      33.128 -40.051 -22.561  1.00  0.00    -0.320 N 
ATOM      7  H2  UNL     1      33.774 -39.677 -21.866  1.00  0.00     0.169 HD
HETATM    8  C8  UNL     1      32.851 -39.536 -23.796  1.00  0.00     0.146 A 
HETATM    9  C9  UNL     1      31.911 -40.340 -24.447  1.00  0.00     0.156 A 
HETATM   10  C10 UNL     1      31.505 -40.031 -25.720  1.00  0.00     0.280 A 
HETATM   11  O5  UNL     1      30.672 -40.745 -26.331  1.00  0.00    -0.265 OA
HETATM   12  N3  UNL     1      32.027 -38.936 -26.317  1.00  0.00    -0.273 N 
ATOM     13  H3  UNL     1      31.732 -38.695 -27.264  1.00  0.00     0.173 HD
HETATM   14  C11 UNL     1      32.926 -38.161 -25.692  1.00  0.00     0.330 A 
HETATM   15  O6  UNL     1      33.423 -37.127 -26.243  1.00  0.00    -0.246 OA
HETATM   16  N4  UNL     1      33.327 -38.466 -24.446  1.00  0.00    -0.287 N 
HETATM   17  C12 UNL     1      34.309 -37.626 -23.758  1.00  0.00     0.163 C 
HETATM   18  N5  UNL     1      31.623 -41.334 -23.596  1.00  0.00    -0.269 N 
HETATM   19  C13 UNL     1      30.666 -42.426 -23.774  1.00  0.00     0.162 C 
ENDROOT
BRANCH  19  20
HETATM   20  C14 UNL     1      29.317 -42.059 -24.125  1.00  0.00     0.282 C 
HETATM   21  O7  UNL     1      28.475 -41.332 -23.586  1.00  0.00    -0.265 OA
HETATM   22  N6  UNL     1      28.826 -42.649 -25.367  1.00  0.00    -0.327 N 
ATOM     23  H6  UNL     1      29.443 -43.267 -25.894  1.00  0.00     0.165 HD
BRANCH  22  24
HETATM   24  C15 UNL     1      27.506 -42.390 -25.878  1.00  0.00     0.246 C 
BRANCH  24  25
HETATM   25  O8  UNL     1      26.507 -42.838 -25.030  1.00  0.00    -0.374 OA
ATOM     26  H8  UNL     1      25.725 -42.301 -25.067  1.00  0.00     0.212 HD
ENDBRANCH  24  25
BRANCH  24  27
HETATM   27  C16 UNL     1      27.324 -42.949 -27.288  1.00  0.00     0.173 C 
BRANCH  27  28
HETATM   28  N7  UNL     1      28.539 -43.397 -27.869  1.00  0.00    -0.321 N 
ATOM     29  H7  UNL     1      28.971 -44.278 -27.590  1.00  0.00     0.177 HD
BRANCH  28  30
HETATM   30  N8  UNL     1      29.105 -42.588 -28.823  1.00  0.00    -0.116 NA
HETATM   31  C17 UNL     1      30.504 -42.869 -29.087  1.00  0.00     0.170 C 
BRANCH  30  32
HETATM   32  O9  UNL     1      29.031 -41.293 -28.419  1.00  0.00    -0.294 OA
ATOM     33  H9  UNL     1      28.128 -41.076 -28.220  1.00  0.00     0.239 HD
ENDBRANCH  30  32
ENDBRANCH  28  30
ENDBRANCH  27  28
BRANCH  27  34
HETATM   34  C18 UNL     1      26.177 -43.886 -27.311  1.00  0.00     0.151 C 
HETATM   35  C19 UNL     1      24.829 -43.262 -27.491  1.00  0.00     0.045 C 
HETATM   36  C20 UNL     1      23.999 -44.465 -27.891  1.00  0.00     0.055 C 
HETATM   37  C23 UNL     1      25.007 -45.520 -28.232  1.00  0.00     0.189 C 
HETATM   38  O11 UNL     1      26.266 -44.921 -28.235  1.00  0.00    -0.368 OA
BRANCH  36  39
HETATM   39  C21 UNL     1      23.061 -44.157 -29.015  1.00  0.00     0.121 C 
HETATM   40  C22 UNL     1      22.435 -45.421 -29.558  1.00  0.00     0.040 C 
BRANCH  39  41
HETATM   41  O10 UNL     1      22.030 -43.319 -28.589  1.00  0.00    -0.395 OA
ATOM     42  H10 UNL     1      21.267 -43.407 -29.148  1.00  0.00     0.210 HD
ENDBRANCH  39  41
ENDBRANCH  36  39
BRANCH  37  43
HETATM   43  S2  UNL     1      25.049 -46.799 -26.925  1.00  0.00    -0.141 SA
HETATM   44  C24 UNL     1      26.710 -46.975 -26.263  1.00  0.00     0.092 C 
ENDBRANCH  37  43
ENDBRANCH  27  34
ENDBRANCH  24  27
ENDBRANCH  22  24
ENDBRANCH  19  20
BRANCH   1  45
HETATM   45  C3  UNL     1      30.402 -44.708 -24.404  1.00  0.00     0.209 C 
BRANCH  45  46
HETATM   46  C2  UNL     1      30.730 -45.498 -25.642  1.00  0.00     0.272 C 
HETATM   47  O2  UNL     1      29.953 -45.528 -26.625  1.00  0.00    -0.264 OA
BRANCH  46  48
HETATM   48  O1  UNL     1      31.897 -46.212 -25.740  1.00  0.00    -0.326 OA
HETATM   49  C1  UNL     1      32.938 -45.809 -26.609  1.00  0.00     0.213 C 
ENDBRANCH  46  48
ENDBRANCH  45  46
ENDBRANCH   1  45
BRANCH   2  50
HETATM   50  C5  UNL     1      33.658 -43.662 -23.420  1.00  0.00     0.192 C 
HETATM   51  O3  UNL     1      34.575 -43.813 -22.607  1.00  0.00    -0.647 OA
HETATM   52  O4  UNL     1      33.966 -43.111 -24.649  1.00  0.00    -0.647 OA
ENDBRANCH   2  50
TORSDOF 15
ENDMDL
