MODEL 1
REMARK VINA RESULT: -8.172489479      0.000      0.000
REMARK  12 active torsions:
REMARK  status: ('A' for Active; 'I' for Inactive)
REMARK    1  A    between atoms: C2_2  and  C4_4 
REMARK    2  A    between atoms: C5_7  and  N2_8 
REMARK    3  A    between atoms: N2_8  and  C6_10 
REMARK    4  A    between atoms: C10_15  and  C11_16 
REMARK    5  A    between atoms: C11_16  and  O1_17 
REMARK    6  A    between atoms: C11_16  and  N3_19 
REMARK    7  A    between atoms: N3_19  and  C12_21 
REMARK    8  A    between atoms: N4_27  and  C18_28 
REMARK    9  A    between atoms: C18_28  and  C19_29 
REMARK   10  A    between atoms: C19_29  and  C20_30 
REMARK   11  A    between atoms: C19_29  and  N5_33 
REMARK   12  A    between atoms: C20_30  and  O2_31 
ROOT
HETATM    1  N3  UNL     1      15.081  15.834  33.961  1.00  0.00    -0.380 N 
ATOM      2  H3  UNL     1      14.066  15.934  33.980  1.00  0.00     0.157 HD
ENDROOT
BRANCH   1   3
HETATM    3  C11 UNL     1      15.770  15.310  35.078  1.00  0.00     0.257 C 
BRANCH   3   4
HETATM    4  C10 UNL     1      15.427  13.906  35.455  1.00  0.00     0.057 A 
HETATM    5  C4  UNL     1      14.395  13.337  36.137  1.00  0.00     0.032 A 
HETATM    6  N1  UNL     1      14.396  12.031  36.284  1.00  0.00    -0.339 N 
HETATM    7  C5  UNL     1      15.396  11.317  35.769  1.00  0.00     0.145 A 
ATOM      8  H1  UNL     1      13.640  11.569  36.788  1.00  0.00     0.168 HD
HETATM    9  S1  UNL     1      16.374  12.521  35.048  1.00  0.00    -0.052 SA
BRANCH   5  10
HETATM   10  C2  UNL     1      13.279  14.186  36.732  1.00  0.00     0.029 C 
HETATM   11  C1  UNL     1      11.968  13.935  35.976  1.00  0.00     0.016 C 
HETATM   12  C3  UNL     1      12.986  13.755  38.156  1.00  0.00     0.016 C 
ENDBRANCH   5  10
BRANCH   7  13
HETATM   13  N2  UNL     1      15.591  10.021  35.798  1.00  0.00    -0.362 N 
ATOM     14  H2  UNL     1      16.494   9.677  35.473  1.00  0.00     0.162 HD
BRANCH  13  15
HETATM   15  C6  UNL     1      14.647   9.053  36.245  1.00  0.00     0.021 C 
HETATM   16  C7  UNL     1      13.323   9.291  35.571  1.00  0.00     0.037 C 
HETATM   17  C8  UNL     1      14.490   8.982  37.747  1.00  0.00     0.037 C 
HETATM   18  C9  UNL     1      15.073   7.635  35.820  1.00  0.00     0.037 C 
ENDBRANCH  13  15
ENDBRANCH   7  13
ENDBRANCH   3   4
BRANCH   3  19
HETATM   19  O1  UNL     1      17.132  15.191  34.637  1.00  0.00    -0.372 OA
ATOM     20  H1  UNL     1      17.138  15.713  33.843  1.00  0.00     0.212 HD
ENDBRANCH   3  19
ENDBRANCH   1   3
BRANCH   1  21
HETATM   21  C12 UNL     1      15.818  16.218  32.816  1.00  0.00     0.171 C 
HETATM   22  C13 UNL     1      15.569  15.531  31.527  1.00  0.00     0.034 C 
HETATM   23  C14 UNL     1      16.837  15.173  30.762  1.00  0.00     0.002 C 
HETATM   24  C15 UNL     1      17.790  16.298  30.591  1.00  0.00     0.002 C 
HETATM   25  C16 UNL     1      17.267  17.507  29.891  1.00  0.00     0.020 C 
HETATM   26  C17 UNL     1      17.321  18.673  30.856  1.00  0.00     0.126 C 
HETATM   27  N4  UNL     1      16.229  18.696  31.762  1.00  0.00    -0.348 N 
HETATM   28  C25 UNL     1      15.684  17.712  32.670  1.00  0.00     0.242 C 
HETATM   29  O3  UNL     1      14.944  18.244  33.502  1.00  0.00    -0.271 OA
BRANCH  27  30
HETATM   30  C18 UNL     1      15.536  19.950  31.817  1.00  0.00     0.152 C 
BRANCH  30  31
HETATM   31  C19 UNL     1      14.494  20.160  30.746  1.00  0.00     0.120 C 
BRANCH  31  32
HETATM   32  C20 UNL     1      13.322  20.829  31.495  1.00  0.00     0.190 C 
BRANCH  32  33
HETATM   33  O2  UNL     1      12.754  19.943  32.408  1.00  0.00    -0.399 OA
ATOM     34  H2  UNL     1      11.988  20.329  32.816  1.00  0.00     0.209 HD
ENDBRANCH  32  33
ENDBRANCH  31  32
BRANCH  31  35
HETATM   35  N5  UNL     1      14.884  20.913  29.639  1.00  0.00    -0.405 N 
HETATM   36  C21 UNL     1      14.425  22.232  29.452  1.00  0.00     0.117 C 
HETATM   37  C22 UNL     1      15.346  22.697  28.311  1.00  0.00     0.021 C 
HETATM   38  C23 UNL     1      15.489  21.414  27.486  1.00  0.00     0.021 C 
HETATM   39  C24 UNL     1      14.860  20.314  28.353  1.00  0.00     0.117 C 
ENDBRANCH  31  35
ENDBRANCH  30  31
ENDBRANCH  27  30
ENDBRANCH   1  21
TORSDOF 12
ENDMDL
MODEL 2
REMARK VINA RESULT: -8.079282925      2.439      3.741
REMARK  12 active torsions:
REMARK  status: ('A' for Active; 'I' for Inactive)
REMARK    1  A    between atoms: C2_2  and  C4_4 
REMARK    2  A    between atoms: C5_7  and  N2_8 
REMARK    3  A    between atoms: N2_8  and  C6_10 
REMARK    4  A    between atoms: C10_15  and  C11_16 
REMARK    5  A    between atoms: C11_16  and  O1_17 
REMARK    6  A    between atoms: C11_16  and  N3_19 
REMARK    7  A    between atoms: N3_19  and  C12_21 
REMARK    8  A    between atoms: N4_27  and  C18_28 
REMARK    9  A    between atoms: C18_28  and  C19_29 
REMARK   10  A    between atoms: C19_29  and  C20_30 
REMARK   11  A    between atoms: C19_29  and  N5_33 
REMARK   12  A    between atoms: C20_30  and  O2_31 
ROOT
HETATM    1  N3  UNL     1      17.313  14.665  33.770  1.00  0.00    -0.380 N 
ATOM      2  H3  UNL     1      16.917  15.129  34.589  1.00  0.00     0.157 HD
ENDROOT
BRANCH   1   3
HETATM    3  C11 UNL     1      18.008  13.442  33.906  1.00  0.00     0.257 C 
BRANCH   3   4
HETATM    4  C10 UNL     1      17.270  12.349  34.609  1.00  0.00     0.057 A 
HETATM    5  C4  UNL     1      17.544  11.041  34.866  1.00  0.00     0.032 A 
HETATM    6  N1  UNL     1      16.655  10.344  35.539  1.00  0.00    -0.339 N 
HETATM    7  C5  UNL     1      15.531  10.935  35.939  1.00  0.00     0.145 A 
ATOM      8  H1  UNL     1      16.825   9.362  35.752  1.00  0.00     0.168 HD
HETATM    9  S1  UNL     1      15.723  12.529  35.352  1.00  0.00    -0.052 SA
BRANCH   5  10
HETATM   10  C2  UNL     1      18.831  10.391  34.374  1.00  0.00     0.029 C 
HETATM   11  C1  UNL     1      19.934  10.545  35.430  1.00  0.00     0.016 C 
HETATM   12  C3  UNL     1      18.648   8.892  34.231  1.00  0.00     0.016 C 
ENDBRANCH   5  10
BRANCH   7  13
HETATM   13  N2  UNL     1      14.525  10.432  36.615  1.00  0.00    -0.362 N 
ATOM     14  H2  UNL     1      14.383  10.775  37.565  1.00  0.00     0.162 HD
BRANCH  13  15
HETATM   15  C6  UNL     1      13.613   9.450  36.133  1.00  0.00     0.021 C 
HETATM   16  C7  UNL     1      12.943   8.771  37.296  1.00  0.00     0.037 C 
HETATM   17  C8  UNL     1      14.227   8.440  35.191  1.00  0.00     0.037 C 
HETATM   18  C9  UNL     1      12.475  10.106  35.331  1.00  0.00     0.037 C 
ENDBRANCH  13  15
ENDBRANCH   7  13
ENDBRANCH   3   4
BRANCH   3  19
HETATM   19  O1  UNL     1      18.111  12.937  32.565  1.00  0.00    -0.372 OA
ATOM     20  H1  UNL     1      19.043  12.780  32.474  1.00  0.00     0.212 HD
ENDBRANCH   3  19
ENDBRANCH   1   3
BRANCH   1  21
HETATM   21  C12 UNL     1      17.173  15.238  32.484  1.00  0.00     0.171 C 
HETATM   22  C13 UNL     1      15.817  15.444  31.923  1.00  0.00     0.034 C 
HETATM   23  C14 UNL     1      15.687  15.045  30.459  1.00  0.00     0.002 C 
HETATM   24  C15 UNL     1      16.725  15.623  29.569  1.00  0.00     0.002 C 
HETATM   25  C16 UNL     1      16.814  17.112  29.539  1.00  0.00     0.020 C 
HETATM   26  C17 UNL     1      18.181  17.515  30.050  1.00  0.00     0.126 C 
HETATM   27  N4  UNL     1      18.268  17.516  31.466  1.00  0.00    -0.348 N 
HETATM   28  C25 UNL     1      17.966  16.520  32.469  1.00  0.00     0.242 C 
HETATM   29  O3  UNL     1      18.489  16.812  33.550  1.00  0.00    -0.271 OA
BRANCH  27  30
HETATM   30  C18 UNL     1      18.781  18.733  32.025  1.00  0.00     0.152 C 
BRANCH  30  31
HETATM   31  C19 UNL     1      17.749  19.651  32.632  1.00  0.00     0.120 C 
BRANCH  31  32
HETATM   32  C20 UNL     1      18.543  20.929  32.972  1.00  0.00     0.190 C 
BRANCH  32  33
HETATM   33  O2  UNL     1      18.961  20.907  34.300  1.00  0.00    -0.399 OA
ATOM     34  H2  UNL     1      18.214  20.916  34.886  1.00  0.00     0.209 HD
ENDBRANCH  32  33
ENDBRANCH  31  32
BRANCH  31  35
HETATM   35  N5  UNL     1      16.635  19.940  31.843  1.00  0.00    -0.405 N 
HETATM   36  C21 UNL     1      16.389  21.246  31.375  1.00  0.00     0.117 C 
HETATM   37  C22 UNL     1      15.272  20.979  30.352  1.00  0.00     0.021 C 
HETATM   38  C23 UNL     1      14.493  19.848  31.032  1.00  0.00     0.021 C 
HETATM   39  C24 UNL     1      15.368  19.425  32.221  1.00  0.00     0.117 C 
ENDBRANCH  31  35
ENDBRANCH  30  31
ENDBRANCH  27  30
ENDBRANCH   1  21
TORSDOF 12
ENDMDL
MODEL 3
REMARK VINA RESULT: -7.999286542      2.507      3.598
REMARK  12 active torsions:
REMARK  status: ('A' for Active; 'I' for Inactive)
REMARK    1  A    between atoms: C2_2  and  C4_4 
REMARK    2  A    between atoms: C5_7  and  N2_8 
REMARK    3  A    between atoms: N2_8  and  C6_10 
REMARK    4  A    between atoms: C10_15  and  C11_16 
REMARK    5  A    between atoms: C11_16  and  O1_17 
REMARK    6  A    between atoms: C11_16  and  N3_19 
REMARK    7  A    between atoms: N3_19  and  C12_21 
REMARK    8  A    between atoms: N4_27  and  C18_28 
REMARK    9  A    between atoms: C18_28  and  C19_29 
REMARK   10  A    between atoms: C19_29  and  C20_30 
REMARK   11  A    between atoms: C19_29  and  N5_33 
REMARK   12  A    between atoms: C20_30  and  O2_31 
ROOT
HETATM    1  N3  UNL     1      17.018  17.014  32.258  1.00  0.00    -0.380 N 
ATOM      2  H3  UNL     1      17.625  16.886  31.448  1.00  0.00     0.157 HD
ENDROOT
BRANCH   1   3
HETATM    3  C11 UNL     1      17.418  16.550  33.532  1.00  0.00     0.257 C 
BRANCH   3   4
HETATM    4  C10 UNL     1      17.505  15.067  33.688  1.00  0.00     0.057 A 
HETATM    5  C4  UNL     1      16.670  14.122  34.199  1.00  0.00     0.032 A 
HETATM    6  N1  UNL     1      17.063  12.868  34.169  1.00  0.00    -0.339 N 
HETATM    7  C5  UNL     1      18.252  12.569  33.649  1.00  0.00     0.145 A 
ATOM      8  H1  UNL     1      16.464  12.131  34.542  1.00  0.00     0.168 HD
HETATM    9  S1  UNL     1      18.844  14.103  33.180  1.00  0.00    -0.052 SA
BRANCH   5  10
HETATM   10  C2  UNL     1      15.325  14.501  34.807  1.00  0.00     0.029 C 
HETATM   11  C1  UNL     1      14.737  13.305  35.567  1.00  0.00     0.016 C 
HETATM   12  C3  UNL     1      15.504  15.573  35.865  1.00  0.00     0.016 C 
ENDBRANCH   5  10
BRANCH   7  13
HETATM   13  N2  UNL     1      18.832  11.400  33.520  1.00  0.00    -0.362 N 
ATOM     14  H2  UNL     1      19.384  11.243  32.678  1.00  0.00     0.162 HD
BRANCH  13  15
HETATM   15  C6  UNL     1      18.754  10.331  34.458  1.00  0.00     0.021 C 
HETATM   16  C7  UNL     1      19.858  10.470  35.471  1.00  0.00     0.037 C 
HETATM   17  C8  UNL     1      18.755   8.954  33.836  1.00  0.00     0.037 C 
HETATM   18  C9  UNL     1      17.446  10.405  35.266  1.00  0.00     0.037 C 
ENDBRANCH  13  15
ENDBRANCH   7  13
ENDBRANCH   3   4
BRANCH   3  19
HETATM   19  O1  UNL     1      18.792  16.957  33.648  1.00  0.00    -0.372 OA
ATOM     20  H1  UNL     1      19.255  16.241  33.231  1.00  0.00     0.212 HD
ENDBRANCH   3  19
ENDBRANCH   1   3
BRANCH   1  21
HETATM   21  C12 UNL     1      15.765  17.655  32.122  1.00  0.00     0.171 C 
HETATM   22  C13 UNL     1      15.058  18.134  33.334  1.00  0.00     0.034 C 
HETATM   23  C14 UNL     1      13.566  17.828  33.340  1.00  0.00     0.002 C 
HETATM   24  C15 UNL     1      12.849  18.239  32.108  1.00  0.00     0.002 C 
HETATM   25  C16 UNL     1      12.927  19.685  31.749  1.00  0.00     0.020 C 
HETATM   26  C17 UNL     1      13.625  19.804  30.411  1.00  0.00     0.126 C 
HETATM   27  N4  UNL     1      15.039  19.730  30.512  1.00  0.00    -0.348 N 
HETATM   28  C25 UNL     1      15.930  18.766  31.117  1.00  0.00     0.242 C 
HETATM   29  O3  UNL     1      17.083  18.910  30.697  1.00  0.00    -0.271 OA
BRANCH  27  30
HETATM   30  C18 UNL     1      15.733  20.805  29.867  1.00  0.00     0.152 C 
BRANCH  30  31
HETATM   31  C19 UNL     1      14.868  21.958  29.420  1.00  0.00     0.120 C 
BRANCH  31  32
HETATM   32  C20 UNL     1      15.226  23.093  30.403  1.00  0.00     0.190 C 
BRANCH  32  33
HETATM   33  O2  UNL     1      14.419  23.032  31.536  1.00  0.00    -0.399 OA
ATOM     34  H2  UNL     1      13.502  23.091  31.297  1.00  0.00     0.209 HD
ENDBRANCH  32  33
ENDBRANCH  31  32
BRANCH  31  35
HETATM   35  N5  UNL     1      15.017  22.368  28.095  1.00  0.00    -0.405 N 
HETATM   36  C21 UNL     1      15.649  21.548  27.141  1.00  0.00     0.117 C 
HETATM   37  C22 UNL     1      15.294  22.291  25.842  1.00  0.00     0.021 C 
HETATM   38  C23 UNL     1      15.344  23.753  26.298  1.00  0.00     0.021 C 
HETATM   39  C24 UNL     1      15.471  23.686  27.827  1.00  0.00     0.117 C 
ENDBRANCH  31  35
ENDBRANCH  30  31
ENDBRANCH  27  30
ENDBRANCH   1  21
TORSDOF 12
ENDMDL
MODEL 4
REMARK VINA RESULT: -7.990983791      1.854      2.556
REMARK  12 active torsions:
REMARK  status: ('A' for Active; 'I' for Inactive)
REMARK    1  A    between atoms: C2_2  and  C4_4 
REMARK    2  A    between atoms: C5_7  and  N2_8 
REMARK    3  A    between atoms: N2_8  and  C6_10 
REMARK    4  A    between atoms: C10_15  and  C11_16 
REMARK    5  A    between atoms: C11_16  and  O1_17 
REMARK    6  A    between atoms: C11_16  and  N3_19 
REMARK    7  A    between atoms: N3_19  and  C12_21 
REMARK    8  A    between atoms: N4_27  and  C18_28 
REMARK    9  A    between atoms: C18_28  and  C19_29 
REMARK   10  A    between atoms: C19_29  and  C20_30 
REMARK   11  A    between atoms: C19_29  and  N5_33 
REMARK   12  A    between atoms: C20_30  and  O2_31 
ROOT
HETATM    1  N3  UNL     1      17.055  14.678  33.807  1.00  0.00    -0.380 N 
ATOM      2  H3  UNL     1      17.914  14.236  34.135  1.00  0.00     0.157 HD
ENDROOT
BRANCH   1   3
HETATM    3  C11 UNL     1      15.910  14.720  34.634  1.00  0.00     0.257 C 
BRANCH   3   4
HETATM    4  C10 UNL     1      15.485  13.415  35.224  1.00  0.00     0.057 A 
HETATM    5  C4  UNL     1      14.401  13.014  35.944  1.00  0.00     0.032 A 
HETATM    6  N1  UNL     1      14.333  11.752  36.307  1.00  0.00    -0.339 N 
HETATM    7  C5  UNL     1      15.315  10.921  35.963  1.00  0.00     0.145 A 
ATOM      8  H1  UNL     1      13.537  11.414  36.846  1.00  0.00     0.168 HD
HETATM    9  S1  UNL     1      16.377  11.943  35.097  1.00  0.00    -0.052 SA
BRANCH   5  10
HETATM   10  C2  UNL     1      13.306  13.997  36.339  1.00  0.00     0.029 C 
HETATM   11  C1  UNL     1      11.932  13.437  35.948  1.00  0.00     0.016 C 
HETATM   12  C3  UNL     1      13.243  14.144  37.847  1.00  0.00     0.016 C 
ENDBRANCH   5  10
BRANCH   7  13
HETATM   13  N2  UNL     1      15.446   9.641  36.217  1.00  0.00    -0.362 N 
ATOM     14  H2  UNL     1      16.386   9.296  36.406  1.00  0.00     0.162 HD
BRANCH  13  15
HETATM   15  C6  UNL     1      14.384   8.692  36.251  1.00  0.00     0.021 C 
HETATM   16  C7  UNL     1      14.917   7.327  35.912  1.00  0.00     0.037 C 
HETATM   17  C8  UNL     1      13.202   9.048  35.378  1.00  0.00     0.037 C 
HETATM   18  C9  UNL     1      13.808   8.565  37.673  1.00  0.00     0.037 C 
ENDBRANCH  13  15
ENDBRANCH   7  13
ENDBRANCH   3   4
BRANCH   3  19
HETATM   19  O1  UNL     1      16.328  15.464  35.790  1.00  0.00    -0.372 OA
ATOM     20  H1  UNL     1      15.785  15.099  36.478  1.00  0.00     0.212 HD
ENDBRANCH   3  19
ENDBRANCH   1   3
BRANCH   1  21
HETATM   21  C12 UNL     1      16.994  15.258  32.518  1.00  0.00     0.171 C 
HETATM   22  C13 UNL     1      15.672  15.530  31.905  1.00  0.00     0.034 C 
HETATM   23  C14 UNL     1      15.580  15.139  30.436  1.00  0.00     0.002 C 
HETATM   24  C15 UNL     1      16.679  15.667  29.589  1.00  0.00     0.002 C 
HETATM   25  C16 UNL     1      16.842  17.149  29.565  1.00  0.00     0.020 C 
HETATM   26  C17 UNL     1      18.206  17.484  30.130  1.00  0.00     0.126 C 
HETATM   27  N4  UNL     1      18.238  17.480  31.549  1.00  0.00    -0.348 N 
HETATM   28  C25 UNL     1      17.849  16.499  32.537  1.00  0.00     0.242 C 
HETATM   29  O3  UNL     1      18.343  16.765  33.637  1.00  0.00    -0.271 OA
BRANCH  27  30
HETATM   30  C18 UNL     1      18.788  18.670  32.130  1.00  0.00     0.152 C 
BRANCH  30  31
HETATM   31  C19 UNL     1      17.780  19.627  32.717  1.00  0.00     0.120 C 
BRANCH  31  32
HETATM   32  C20 UNL     1      18.626  20.853  33.122  1.00  0.00     0.190 C 
BRANCH  32  33
HETATM   33  O2  UNL     1      18.875  20.845  34.492  1.00  0.00    -0.399 OA
ATOM     34  H2  UNL     1      19.797  20.694  34.663  1.00  0.00     0.209 HD
ENDBRANCH  32  33
ENDBRANCH  31  32
BRANCH  31  35
HETATM   35  N5  UNL     1      16.718  19.995  31.891  1.00  0.00    -0.405 N 
HETATM   36  C21 UNL     1      16.550  21.326  31.462  1.00  0.00     0.117 C 
HETATM   37  C22 UNL     1      15.471  21.145  30.380  1.00  0.00     0.021 C 
HETATM   38  C23 UNL     1      14.614  20.027  30.982  1.00  0.00     0.021 C 
HETATM   39  C24 UNL     1      15.414  19.523  32.192  1.00  0.00     0.117 C 
ENDBRANCH  31  35
ENDBRANCH  30  31
ENDBRANCH  27  30
ENDBRANCH   1  21
TORSDOF 12
ENDMDL
MODEL 5
REMARK VINA RESULT: -7.973183473      1.217      1.718
REMARK  12 active torsions:
REMARK  status: ('A' for Active; 'I' for Inactive)
REMARK    1  A    between atoms: C2_2  and  C4_4 
REMARK    2  A    between atoms: C5_7  and  N2_8 
REMARK    3  A    between atoms: N2_8  and  C6_10 
REMARK    4  A    between atoms: C10_15  and  C11_16 
REMARK    5  A    between atoms: C11_16  and  O1_17 
REMARK    6  A    between atoms: C11_16  and  N3_19 
REMARK    7  A    between atoms: N3_19  and  C12_21 
REMARK    8  A    between atoms: N4_27  and  C18_28 
REMARK    9  A    between atoms: C18_28  and  C19_29 
REMARK   10  A    between atoms: C19_29  and  C20_30 
REMARK   11  A    between atoms: C19_29  and  N5_33 
REMARK   12  A    between atoms: C20_30  and  O2_31 
ROOT
HETATM    1  N3  UNL     1      14.982  15.909  33.948  1.00  0.00    -0.380 N 
ATOM      2  H3  UNL     1      13.975  16.059  34.018  1.00  0.00     0.157 HD
ENDROOT
BRANCH   1   3
HETATM    3  C11 UNL     1      15.708  15.398  35.049  1.00  0.00     0.257 C 
BRANCH   3   4
HETATM    4  C10 UNL     1      15.402  13.986  35.432  1.00  0.00     0.057 A 
HETATM    5  C4  UNL     1      14.397  13.397  36.135  1.00  0.00     0.032 A 
HETATM    6  N1  UNL     1      14.428  12.091  36.281  1.00  0.00    -0.339 N 
HETATM    7  C5  UNL     1      15.430  11.398  35.743  1.00  0.00     0.145 A 
ATOM      8  H1  UNL     1      13.692  11.614  36.801  1.00  0.00     0.168 HD
HETATM    9  S1  UNL     1      16.367  12.621  35.003  1.00  0.00    -0.052 SA
BRANCH   5  10
HETATM   10  C2  UNL     1      13.277  14.223  36.756  1.00  0.00     0.029 C 
HETATM   11  C1  UNL     1      11.985  14.049  35.946  1.00  0.00     0.016 C 
HETATM   12  C3  UNL     1      12.933  13.698  38.137  1.00  0.00     0.016 C 
ENDBRANCH   5  10
BRANCH   7  13
HETATM   13  N2  UNL     1      15.651  10.106  35.767  1.00  0.00    -0.362 N 
ATOM     14  H2  UNL     1      16.557   9.782  35.429  1.00  0.00     0.162 HD
BRANCH  13  15
HETATM   15  C6  UNL     1      14.734   9.118  36.224  1.00  0.00     0.021 C 
HETATM   16  C7  UNL     1      13.389   9.349  35.591  1.00  0.00     0.037 C 
HETATM   17  C8  UNL     1      14.620   9.020  37.728  1.00  0.00     0.037 C 
HETATM   18  C9  UNL     1      15.166   7.713  35.763  1.00  0.00     0.037 C 
ENDBRANCH  13  15
ENDBRANCH   7  13
ENDBRANCH   3   4
BRANCH   3  19
HETATM   19  O1  UNL     1      17.061  15.306  34.575  1.00  0.00    -0.372 OA
ATOM     20  H1  UNL     1      17.553  15.726  35.271  1.00  0.00     0.212 HD
ENDBRANCH   3  19
ENDBRANCH   1   3
BRANCH   1  21
HETATM   21  C12 UNL     1      15.671  16.210  32.750  1.00  0.00     0.171 C 
HETATM   22  C13 UNL     1      15.025  15.920  31.448  1.00  0.00     0.034 C 
HETATM   23  C14 UNL     1      15.956  15.280  30.426  1.00  0.00     0.002 C 
HETATM   24  C15 UNL     1      17.244  15.993  30.235  1.00  0.00     0.002 C 
HETATM   25  C16 UNL     1      17.153  17.419  29.807  1.00  0.00     0.020 C 
HETATM   26  C17 UNL     1      17.767  18.279  30.892  1.00  0.00     0.126 C 
HETATM   27  N4  UNL     1      16.884  18.523  31.976  1.00  0.00    -0.348 N 
HETATM   28  C25 UNL     1      16.111  17.650  32.829  1.00  0.00     0.242 C 
HETATM   29  O3  UNL     1      15.738  18.245  33.844  1.00  0.00    -0.271 OA
BRANCH  27  30
HETATM   30  C18 UNL     1      16.743  19.908  32.320  1.00  0.00     0.152 C 
BRANCH  30  31
HETATM   31  C19 UNL     1      15.583  20.621  31.668  1.00  0.00     0.120 C 
BRANCH  31  32
HETATM   32  C20 UNL     1      16.247  21.784  30.901  1.00  0.00     0.190 C 
BRANCH  32  33
HETATM   33  O2  UNL     1      17.232  22.386  31.681  1.00  0.00    -0.399 OA
ATOM     34  H2  UNL     1      17.343  23.296  31.435  1.00  0.00     0.209 HD
ENDBRANCH  32  33
ENDBRANCH  31  32
BRANCH  31  35
HETATM   35  N5  UNL     1      14.777  19.854  30.827  1.00  0.00    -0.405 N 
HETATM   36  C21 UNL     1      14.736  20.087  29.439  1.00  0.00     0.117 C 
HETATM   37  C22 UNL     1      13.976  18.838  28.960  1.00  0.00     0.021 C 
HETATM   38  C23 UNL     1      12.983  18.621  30.106  1.00  0.00     0.021 C 
HETATM   39  C24 UNL     1      13.436  19.589  31.209  1.00  0.00     0.117 C 
ENDBRANCH  31  35
ENDBRANCH  30  31
ENDBRANCH  27  30
ENDBRANCH   1  21
TORSDOF 12
ENDMDL
