MODEL 1
REMARK VINA RESULT: -9.327508340      0.000      0.000
REMARK  11 active torsions:
REMARK  status: ('A' for Active; 'I' for Inactive)
REMARK    1  A    between atoms: C2_2  and  N1_3 
REMARK    2  A    between atoms: C2_2  and  C12_17 
REMARK    3  A    between atoms: N1_3  and  C3_5 
REMARK    4  A    between atoms: C3_5  and  O1_6 
REMARK    5  A    between atoms: C4_8  and  C6_11 
REMARK    6  A    between atoms: C12_17  and  N3_18 
REMARK    7  A    between atoms: C12_17  and  N4_22 
REMARK    8  A    between atoms: C16_26  and  C17_27 
REMARK       I    between atoms: C17_27  and  N5_29 
REMARK    9  A    between atoms: N5_29  and  C18_31 
REMARK   10  A    between atoms: C21_34  and  O3_35 
REMARK   11  A    between atoms: O3_35  and  C22_36 
ROOT
HETATM    1  C3  UNL     1      16.658  21.087  31.747  1.00  0.00     0.158 C 
HETATM    2  C4  UNL     1      15.747  21.214  30.872  1.00  0.00     0.105 C 
HETATM    3  C5  UNL     1      15.828  22.336  29.944  1.00  0.00     0.104 C 
HETATM    4  N2  UNL     1      15.914  23.232  29.210  1.00  0.00    -0.191 NA
ENDROOT
BRANCH   2   5
HETATM    5  C6  UNL     1      14.647  20.314  30.652  1.00  0.00    -0.011 A 
HETATM    6  C7  UNL     1      14.671  19.295  29.730  1.00  0.00     0.013 A 
HETATM    7  C8  UNL     1      13.607  18.442  29.633  1.00  0.00     0.001 A 
HETATM    8  C9  UNL     1      12.500  18.572  30.438  1.00  0.00     0.000 A 
HETATM    9  C10 UNL     1      12.467  19.581  31.355  1.00  0.00     0.001 A 
HETATM   10  C11 UNL     1      13.535  20.445  31.458  1.00  0.00     0.013 A 
ENDBRANCH   2   5
BRANCH   1  11
HETATM   11  N1  UNL     1      16.829  20.110  32.769  1.00  0.00    -0.362 N 
ATOM     12  H1  UNL     1      16.927  20.439  33.730  1.00  0.00     0.162 HD
BRANCH  11  13
HETATM   13  C2  UNL     1      16.874  18.681  32.539  1.00  0.00     0.129 C 
HETATM   14  C1  UNL     1      15.678  18.080  33.206  1.00  0.00     0.036 C 
BRANCH  13  15
HETATM   15  C12 UNL     1      18.197  18.141  32.940  1.00  0.00     0.306 C 
BRANCH  15  16
HETATM   16  N3  UNL     1      19.167  19.218  32.573  1.00  0.00    -0.056 N 
ATOM     17  H33 UNL     1      19.563  19.121  31.638  1.00  0.00     0.276 HD
ATOM     18  H32 UNL     1      18.737  20.130  32.420  1.00  0.00     0.276 HD
ATOM     19  H31 UNL     1      19.859  19.204  33.322  1.00  0.00     0.276 HD
ENDBRANCH  15  16
BRANCH  15  20
HETATM   20  N4  UNL     1      18.666  16.998  32.263  1.00  0.00    -0.351 N 
HETATM   21  C13 UNL     1      18.667  16.902  30.883  1.00  0.00     0.061 C 
HETATM   22  C14 UNL     1      19.062  15.470  30.578  1.00  0.00     0.047 C 
HETATM   23  C15 UNL     1      19.371  14.841  31.919  1.00  0.00     0.040 C 
HETATM   24  C16 UNL     1      18.651  15.763  32.921  1.00  0.00     0.178 C 
BRANCH  24  25
HETATM   25  C17 UNL     1      17.346  15.181  33.253  1.00  0.00     0.240 C 
HETATM   26  O2  UNL     1      16.574  14.881  32.288  1.00  0.00    -0.271 OA
HETATM   27  N5  UNL     1      16.852  14.918  34.541  1.00  0.00    -0.355 N 
ATOM     28  H5  UNL     1      17.443  15.155  35.338  1.00  0.00     0.162 HD
BRANCH  27  29
HETATM   29  C18 UNL     1      15.549  14.328  34.810  1.00  0.00     0.084 C 
HETATM   30  C19 UNL     1      14.733  15.246  35.713  1.00  0.00     0.028 C 
HETATM   31  C20 UNL     1      13.348  14.642  35.841  1.00  0.00     0.034 C 
HETATM   32  C21 UNL     1      13.404  13.311  36.551  1.00  0.00     0.122 C 
HETATM   33  C28 UNL     1      14.328  12.434  35.766  1.00  0.00     0.034 C 
HETATM   34  C29 UNL     1      15.693  13.013  35.538  1.00  0.00     0.028 C 
BRANCH  32  35
HETATM   35  O3  UNL     1      13.804  13.552  37.855  1.00  0.00    -0.381 OA
BRANCH  35  36
HETATM   36  C22 UNL     1      12.728  13.790  38.705  1.00  0.00     0.122 C 
HETATM   37  C23 UNL     1      13.084  13.699  40.156  1.00  0.00     0.032 C 
HETATM   38  C24 UNL     1      13.669  12.380  40.568  1.00  0.00     0.002 C 
HETATM   39  C25 UNL     1      13.158  11.247  39.735  1.00  0.00     0.000 C 
HETATM   40  C26 UNL     1      11.733  11.559  39.322  1.00  0.00     0.002 C 
HETATM   41  C27 UNL     1      11.673  12.754  38.398  1.00  0.00     0.032 C 
ENDBRANCH  35  36
ENDBRANCH  32  35
ENDBRANCH  27  29
ENDBRANCH  24  25
ENDBRANCH  15  20
ENDBRANCH  13  15
ENDBRANCH  11  13
ENDBRANCH   1  11
BRANCH   1  42
HETATM   42  O1  UNL     1      17.695  22.071  31.728  1.00  0.00    -0.345 OA
ATOM     43  H1  UNL     1      18.505  21.754  31.346  1.00  0.00     0.219 HD
ENDBRANCH   1  42
TORSDOF 11
ENDMDL
MODEL 2
REMARK VINA RESULT: -8.869836763      1.479      2.354
REMARK  11 active torsions:
REMARK  status: ('A' for Active; 'I' for Inactive)
REMARK    1  A    between atoms: C2_2  and  N1_3 
REMARK    2  A    between atoms: C2_2  and  C12_17 
REMARK    3  A    between atoms: N1_3  and  C3_5 
REMARK    4  A    between atoms: C3_5  and  O1_6 
REMARK    5  A    between atoms: C4_8  and  C6_11 
REMARK    6  A    between atoms: C12_17  and  N3_18 
REMARK    7  A    between atoms: C12_17  and  N4_22 
REMARK    8  A    between atoms: C16_26  and  C17_27 
REMARK       I    between atoms: C17_27  and  N5_29 
REMARK    9  A    between atoms: N5_29  and  C18_31 
REMARK   10  A    between atoms: C21_34  and  O3_35 
REMARK   11  A    between atoms: O3_35  and  C22_36 
ROOT
HETATM    1  C3  UNL     1      16.692  21.289  31.744  1.00  0.00     0.158 C 
HETATM    2  C4  UNL     1      15.677  21.387  30.987  1.00  0.00     0.105 C 
HETATM    3  C5  UNL     1      15.561  22.561  30.129  1.00  0.00     0.104 C 
HETATM    4  N2  UNL     1      15.491  23.500  29.450  1.00  0.00    -0.191 NA
ENDROOT
BRANCH   2   5
HETATM    5  C6  UNL     1      14.631  20.411  30.835  1.00  0.00    -0.011 A 
HETATM    6  C7  UNL     1      13.468  20.422  31.568  1.00  0.00     0.013 A 
HETATM    7  C8  UNL     1      12.497  19.496  31.314  1.00  0.00     0.001 A 
HETATM    8  C9  UNL     1      12.646  18.540  30.336  1.00  0.00     0.000 A 
HETATM    9  C10 UNL     1      13.797  18.521  29.605  1.00  0.00     0.001 A 
HETATM   10  C11 UNL     1      14.782  19.450  29.857  1.00  0.00     0.013 A 
ENDBRANCH   2   5
BRANCH   1  11
HETATM   11  N1  UNL     1      17.057  20.274  32.675  1.00  0.00    -0.362 N 
ATOM     12  H1  UNL     1      17.587  20.555  33.500  1.00  0.00     0.162 HD
BRANCH  11  13
HETATM   13  C2  UNL     1      16.728  18.872  32.531  1.00  0.00     0.129 C 
HETATM   14  C1  UNL     1      15.659  18.555  33.528  1.00  0.00     0.036 C 
BRANCH  13  15
HETATM   15  C12 UNL     1      17.961  18.048  32.598  1.00  0.00     0.306 C 
BRANCH  15  16
HETATM   16  N3  UNL     1      19.023  18.918  32.005  1.00  0.00    -0.056 N 
ATOM     17  H33 UNL     1      18.795  19.281  31.079  1.00  0.00     0.276 HD
ATOM     18  H32 UNL     1      19.122  19.825  32.461  1.00  0.00     0.276 HD
ATOM     19  H31 UNL     1      19.866  18.344  32.031  1.00  0.00     0.276 HD
ENDBRANCH  15  16
BRANCH  15  20
HETATM   20  N4  UNL     1      17.999  16.869  31.829  1.00  0.00    -0.351 N 
HETATM   21  C13 UNL     1      17.081  16.607  30.828  1.00  0.00     0.061 C 
HETATM   22  C14 UNL     1      17.356  15.181  30.391  1.00  0.00     0.047 C 
HETATM   23  C15 UNL     1      18.572  14.744  31.179  1.00  0.00     0.040 C 
HETATM   24  C16 UNL     1      18.601  15.726  32.366  1.00  0.00     0.178 C 
BRANCH  24  25
HETATM   25  C17 UNL     1      17.958  15.095  33.523  1.00  0.00     0.240 C 
HETATM   26  O2  UNL     1      18.708  14.491  34.354  1.00  0.00    -0.271 OA
HETATM   27  N5  UNL     1      16.584  15.086  33.815  1.00  0.00    -0.355 N 
ATOM     28  H5  UNL     1      15.954  15.555  33.164  1.00  0.00     0.162 HD
BRANCH  27  29
HETATM   29  C18 UNL     1      16.004  14.451  34.988  1.00  0.00     0.084 C 
HETATM   30  C19 UNL     1      15.826  12.956  34.742  1.00  0.00     0.028 C 
HETATM   31  C20 UNL     1      15.349  12.337  36.042  1.00  0.00     0.034 C 
HETATM   32  C21 UNL     1      13.982  12.856  36.417  1.00  0.00     0.122 C 
HETATM   33  C28 UNL     1      14.091  14.346  36.513  1.00  0.00     0.034 C 
HETATM   34  C29 UNL     1      14.633  15.012  35.282  1.00  0.00     0.028 C 
BRANCH  32  35
HETATM   35  O3  UNL     1      13.087  12.403  35.461  1.00  0.00    -0.381 OA
BRANCH  35  36
HETATM   36  C22 UNL     1      12.538  11.168  35.793  1.00  0.00     0.122 C 
HETATM   37  C23 UNL     1      11.360  10.795  34.949  1.00  0.00     0.032 C 
HETATM   38  C24 UNL     1      10.234  11.787  34.985  1.00  0.00     0.002 C 
HETATM   39  C25 UNL     1      10.161  12.516  36.290  1.00  0.00     0.000 C 
HETATM   40  C26 UNL     1      10.632  11.584  37.388  1.00  0.00     0.002 C 
HETATM   41  C27 UNL     1      12.097  11.244  37.235  1.00  0.00     0.032 C 
ENDBRANCH  35  36
ENDBRANCH  32  35
ENDBRANCH  27  29
ENDBRANCH  24  25
ENDBRANCH  15  20
ENDBRANCH  13  15
ENDBRANCH  11  13
ENDBRANCH   1  11
BRANCH   1  42
HETATM   42  O1  UNL     1      17.640  22.355  31.671  1.00  0.00    -0.345 OA
ATOM     43  H1  UNL     1      17.378  23.125  32.163  1.00  0.00     0.219 HD
ENDBRANCH   1  42
TORSDOF 11
ENDMDL
MODEL 3
REMARK VINA RESULT: -8.862065432      1.447      1.908
REMARK  11 active torsions:
REMARK  status: ('A' for Active; 'I' for Inactive)
REMARK    1  A    between atoms: C2_2  and  N1_3 
REMARK    2  A    between atoms: C2_2  and  C12_17 
REMARK    3  A    between atoms: N1_3  and  C3_5 
REMARK    4  A    between atoms: C3_5  and  O1_6 
REMARK    5  A    between atoms: C4_8  and  C6_11 
REMARK    6  A    between atoms: C12_17  and  N3_18 
REMARK    7  A    between atoms: C12_17  and  N4_22 
REMARK    8  A    between atoms: C16_26  and  C17_27 
REMARK       I    between atoms: C17_27  and  N5_29 
REMARK    9  A    between atoms: N5_29  and  C18_31 
REMARK   10  A    between atoms: C21_34  and  O3_35 
REMARK   11  A    between atoms: O3_35  and  C22_36 
ROOT
HETATM    1  C3  UNL     1      17.104  20.063  31.587  1.00  0.00     0.158 C 
HETATM    2  C4  UNL     1      16.218  20.834  31.103  1.00  0.00     0.105 C 
HETATM    3  C5  UNL     1      16.381  22.272  31.273  1.00  0.00     0.104 C 
HETATM    4  N2  UNL     1      16.533  23.415  31.415  1.00  0.00    -0.191 NA
ENDROOT
BRANCH   2   5
HETATM    5  C6  UNL     1      15.072  20.432  30.332  1.00  0.00    -0.011 A 
HETATM    6  C7  UNL     1      15.155  19.697  29.173  1.00  0.00     0.013 A 
HETATM    7  C8  UNL     1      14.011  19.301  28.538  1.00  0.00     0.001 A 
HETATM    8  C9  UNL     1      12.765  19.617  29.027  1.00  0.00     0.000 A 
HETATM    9  C10 UNL     1      12.674  20.348  30.175  1.00  0.00     0.001 A 
HETATM   10  C11 UNL     1      13.822  20.752  30.819  1.00  0.00     0.013 A 
ENDBRANCH   2   5
BRANCH   1  11
HETATM   11  N1  UNL     1      17.200  18.642  31.578  1.00  0.00    -0.362 N 
ATOM     12  H1  UNL     1      17.810  18.212  30.883  1.00  0.00     0.162 HD
BRANCH  11  13
HETATM   13  C2  UNL     1      16.491  17.766  32.487  1.00  0.00     0.129 C 
HETATM   14  C1  UNL     1      15.538  18.610  33.274  1.00  0.00     0.036 C 
BRANCH  13  15
HETATM   15  C12 UNL     1      17.455  16.952  33.269  1.00  0.00     0.306 C 
BRANCH  15  16
HETATM   16  N3  UNL     1      18.776  17.611  33.032  1.00  0.00    -0.056 N 
ATOM     17  H33 UNL     1      18.726  18.448  32.450  1.00  0.00     0.276 HD
ATOM     18  H32 UNL     1      19.167  18.068  33.856  1.00  0.00     0.276 HD
ATOM     19  H31 UNL     1      19.364  16.871  32.648  1.00  0.00     0.276 HD
ENDBRANCH  15  16
BRANCH  15  20
HETATM   20  N4  UNL     1      17.650  15.615  32.872  1.00  0.00    -0.351 N 
HETATM   21  C13 UNL     1      17.475  15.197  31.565  1.00  0.00     0.061 C 
HETATM   22  C14 UNL     1      17.595  13.686  31.604  1.00  0.00     0.047 C 
HETATM   23  C15 UNL     1      17.953  13.346  33.035  1.00  0.00     0.040 C 
HETATM   24  C16 UNL     1      17.513  14.596  33.820  1.00  0.00     0.178 C 
BRANCH  24  25
HETATM   25  C17 UNL     1      16.179  14.362  34.383  1.00  0.00     0.240 C 
HETATM   26  O2  UNL     1      15.266  15.200  34.098  1.00  0.00    -0.271 OA
HETATM   27  N5  UNL     1      15.798  13.297  35.216  1.00  0.00    -0.355 N 
ATOM     28  H5  UNL     1      16.509  12.611  35.470  1.00  0.00     0.162 HD
BRANCH  27  29
HETATM   29  C18 UNL     1      14.452  13.110  35.737  1.00  0.00     0.084 C 
HETATM   30  C19 UNL     1      14.199  14.071  36.893  1.00  0.00     0.028 C 
HETATM   31  C20 UNL     1      12.745  13.921  37.297  1.00  0.00     0.034 C 
HETATM   32  C21 UNL     1      12.478  12.540  37.846  1.00  0.00     0.122 C 
HETATM   33  C28 UNL     1      12.868  11.563  36.780  1.00  0.00     0.034 C 
HETATM   34  C29 UNL     1      14.275  11.713  36.282  1.00  0.00     0.028 C 
BRANCH  32  35
HETATM   35  O3  UNL     1      13.186  12.418  39.029  1.00  0.00    -0.381 OA
BRANCH  35  36
HETATM   36  C22 UNL     1      12.353  12.258  40.132  1.00  0.00     0.122 C 
HETATM   37  C23 UNL     1      12.036  13.543  40.830  1.00  0.00     0.032 C 
HETATM   38  C24 UNL     1      13.240  14.300  41.310  1.00  0.00     0.002 C 
HETATM   39  C25 UNL     1      14.380  13.394  41.653  1.00  0.00     0.000 C 
HETATM   40  C26 UNL     1      13.816  12.088  42.177  1.00  0.00     0.002 C 
HETATM   41  C27 UNL     1      13.060  11.341  41.102  1.00  0.00     0.032 C 
ENDBRANCH  35  36
ENDBRANCH  32  35
ENDBRANCH  27  29
ENDBRANCH  24  25
ENDBRANCH  15  20
ENDBRANCH  13  15
ENDBRANCH  11  13
ENDBRANCH   1  11
BRANCH   1  42
HETATM   42  O1  UNL     1      18.196  20.698  32.256  1.00  0.00    -0.345 OA
ATOM     43  H1  UNL     1      18.408  21.553  31.899  1.00  0.00     0.219 HD
ENDBRANCH   1  42
TORSDOF 11
ENDMDL
MODEL 4
REMARK VINA RESULT: -8.842104825      1.705      2.246
REMARK  11 active torsions:
REMARK  status: ('A' for Active; 'I' for Inactive)
REMARK    1  A    between atoms: C2_2  and  N1_3 
REMARK    2  A    between atoms: C2_2  and  C12_17 
REMARK    3  A    between atoms: N1_3  and  C3_5 
REMARK    4  A    between atoms: C3_5  and  O1_6 
REMARK    5  A    between atoms: C4_8  and  C6_11 
REMARK    6  A    between atoms: C12_17  and  N3_18 
REMARK    7  A    between atoms: C12_17  and  N4_22 
REMARK    8  A    between atoms: C16_26  and  C17_27 
REMARK       I    between atoms: C17_27  and  N5_29 
REMARK    9  A    between atoms: N5_29  and  C18_31 
REMARK   10  A    between atoms: C21_34  and  O3_35 
REMARK   11  A    between atoms: O3_35  and  C22_36 
ROOT
HETATM    1  C3  UNL     1      16.886  21.330  31.285  1.00  0.00     0.158 C 
HETATM    2  C4  UNL     1      15.647  21.260  31.015  1.00  0.00     0.105 C 
HETATM    3  C5  UNL     1      14.907  22.502  30.824  1.00  0.00     0.104 C 
HETATM    4  N2  UNL     1      14.337  23.502  30.669  1.00  0.00    -0.191 NA
ENDROOT
BRANCH   2   5
HETATM    5  C6  UNL     1      14.888  20.056  30.812  1.00  0.00    -0.011 A 
HETATM    6  C7  UNL     1      14.706  19.469  29.582  1.00  0.00     0.013 A 
HETATM    7  C8  UNL     1      14.027  18.287  29.488  1.00  0.00     0.001 A 
HETATM    8  C9  UNL     1      13.512  17.657  30.597  1.00  0.00     0.000 A 
HETATM    9  C10 UNL     1      13.686  18.233  31.821  1.00  0.00     0.001 A 
HETATM   10  C11 UNL     1      14.368  19.425  31.924  1.00  0.00     0.013 A 
ENDBRANCH   2   5
BRANCH   1  11
HETATM   11  N1  UNL     1      17.840  20.300  31.525  1.00  0.00    -0.362 N 
ATOM     12  H1  UNL     1      18.560  20.146  30.819  1.00  0.00     0.162 HD
BRANCH  11  13
HETATM   13  C2  UNL     1      17.858  19.457  32.701  1.00  0.00     0.129 C 
HETATM   14  C1  UNL     1      18.092  20.340  33.885  1.00  0.00     0.036 C 
BRANCH  13  15
HETATM   15  C12 UNL     1      18.814  18.337  32.512  1.00  0.00     0.306 C 
BRANCH  15  16
HETATM   16  N3  UNL     1      19.940  18.936  31.732  1.00  0.00    -0.056 N 
ATOM     17  H33 UNL     1      19.702  19.808  31.260  1.00  0.00     0.276 HD
ATOM     18  H32 UNL     1      20.689  19.319  32.309  1.00  0.00     0.276 HD
ATOM     19  H31 UNL     1      20.239  18.190  31.103  1.00  0.00     0.276 HD
ENDBRANCH  15  16
BRANCH  15  20
HETATM   20  N4  UNL     1      18.388  17.242  31.735  1.00  0.00    -0.351 N 
HETATM   21  C13 UNL     1      17.306  17.318  30.877  1.00  0.00     0.061 C 
HETATM   22  C14 UNL     1      17.074  15.901  30.391  1.00  0.00     0.047 C 
HETATM   23  C15 UNL     1      18.197  15.080  30.988  1.00  0.00     0.040 C 
HETATM   24  C16 UNL     1      18.684  15.945  32.166  1.00  0.00     0.178 C 
BRANCH  24  25
HETATM   25  C17 UNL     1      18.046  15.473  33.400  1.00  0.00     0.240 C 
HETATM   26  O2  UNL     1      18.726  15.531  34.472  1.00  0.00    -0.271 OA
HETATM   27  N5  UNL     1      16.745  14.957  33.524  1.00  0.00    -0.355 N 
ATOM     28  H5  UNL     1      16.175  14.889  32.681  1.00  0.00     0.162 HD
BRANCH  27  29
HETATM   29  C18 UNL     1      16.160  14.513  34.780  1.00  0.00     0.084 C 
HETATM   30  C19 UNL     1      15.810  13.031  34.702  1.00  0.00     0.028 C 
HETATM   31  C20 UNL     1      15.336  12.604  36.078  1.00  0.00     0.034 C 
HETATM   32  C21 UNL     1      14.054  13.309  36.449  1.00  0.00     0.122 C 
HETATM   33  C28 UNL     1      14.328  14.779  36.382  1.00  0.00     0.034 C 
HETATM   34  C29 UNL     1      14.875  15.251  35.067  1.00  0.00     0.028 C 
BRANCH  32  35
HETATM   35  O3  UNL     1      13.068  12.864  35.584  1.00  0.00    -0.381 OA
BRANCH  35  36
HETATM   36  C22 UNL     1      11.886  12.548  36.245  1.00  0.00     0.122 C 
HETATM   37  C23 UNL     1      12.036  11.437  37.236  1.00  0.00     0.032 C 
HETATM   38  C24 UNL     1      12.556  10.155  36.655  1.00  0.00     0.002 C 
HETATM   39  C25 UNL     1      12.163   9.981  35.221  1.00  0.00     0.000 C 
HETATM   40  C26 UNL     1      10.810  10.632  35.012  1.00  0.00     0.002 C 
HETATM   41  C27 UNL     1      10.882  12.130  35.197  1.00  0.00     0.032 C 
ENDBRANCH  35  36
ENDBRANCH  32  35
ENDBRANCH  27  29
ENDBRANCH  24  25
ENDBRANCH  15  20
ENDBRANCH  13  15
ENDBRANCH  11  13
ENDBRANCH   1  11
BRANCH   1  42
HETATM   42  O1  UNL     1      17.441  22.645  31.368  1.00  0.00    -0.345 OA
ATOM     43  H1  UNL     1      18.274  22.729  30.917  1.00  0.00     0.219 HD
ENDBRANCH   1  42
TORSDOF 11
ENDMDL
MODEL 5
REMARK VINA RESULT: -8.810042848      1.587      2.361
REMARK  11 active torsions:
REMARK  status: ('A' for Active; 'I' for Inactive)
REMARK    1  A    between atoms: C2_2  and  N1_3 
REMARK    2  A    between atoms: C2_2  and  C12_17 
REMARK    3  A    between atoms: N1_3  and  C3_5 
REMARK    4  A    between atoms: C3_5  and  O1_6 
REMARK    5  A    between atoms: C4_8  and  C6_11 
REMARK    6  A    between atoms: C12_17  and  N3_18 
REMARK    7  A    between atoms: C12_17  and  N4_22 
REMARK    8  A    between atoms: C16_26  and  C17_27 
REMARK       I    between atoms: C17_27  and  N5_29 
REMARK    9  A    between atoms: N5_29  and  C18_31 
REMARK   10  A    between atoms: C21_34  and  O3_35 
REMARK   11  A    between atoms: O3_35  and  C22_36 
ROOT
HETATM    1  C3  UNL     1      15.293  19.829  31.676  1.00  0.00     0.158 C 
HETATM    2  C4  UNL     1      14.533  20.500  30.910  1.00  0.00     0.105 C 
HETATM    3  C5  UNL     1      13.150  20.712  31.318  1.00  0.00     0.104 C 
HETATM    4  N2  UNL     1      12.053  20.876  31.665  1.00  0.00    -0.191 NA
ENDROOT
BRANCH   2   5
HETATM    5  C6  UNL     1      14.916  21.140  29.681  1.00  0.00    -0.011 A 
HETATM    6  C7  UNL     1      15.126  20.462  28.504  1.00  0.00     0.013 A 
HETATM    7  C8  UNL     1      15.422  21.156  27.364  1.00  0.00     0.001 A 
HETATM    8  C9  UNL     1      15.517  22.528  27.356  1.00  0.00     0.000 A 
HETATM    9  C10 UNL     1      15.312  23.209  28.520  1.00  0.00     0.001 A 
HETATM   10  C11 UNL     1      15.015  22.516  29.673  1.00  0.00     0.013 A 
ENDBRANCH   2   5
BRANCH   1  11
HETATM   11  N1  UNL     1      16.663  19.465  31.532  1.00  0.00    -0.362 N 
ATOM     12  H1  UNL     1      17.353  20.216  31.507  1.00  0.00     0.162 HD
BRANCH  11  13
HETATM   13  C2  UNL     1      17.142  18.104  31.421  1.00  0.00     0.129 C 
HETATM   14  C1  UNL     1      16.000  17.262  30.948  1.00  0.00     0.036 C 
BRANCH  13  15
HETATM   15  C12 UNL     1      17.793  17.686  32.688  1.00  0.00     0.306 C 
BRANCH  15  16
HETATM   16  N3  UNL     1      18.787  18.767  32.970  1.00  0.00    -0.056 N 
ATOM     17  H33 UNL     1      19.554  18.812  32.300  1.00  0.00     0.276 HD
ATOM     18  H32 UNL     1      18.435  19.710  32.805  1.00  0.00     0.276 HD
ATOM     19  H31 UNL     1      19.082  18.595  33.931  1.00  0.00     0.276 HD
ENDBRANCH  15  16
BRANCH  15  20
HETATM   20  N4  UNL     1      18.554  16.502  32.668  1.00  0.00    -0.351 N 
HETATM   21  C13 UNL     1      19.008  15.931  31.493  1.00  0.00     0.061 C 
HETATM   22  C14 UNL     1      19.607  14.598  31.895  1.00  0.00     0.047 C 
HETATM   23  C15 UNL     1      19.523  14.556  33.406  1.00  0.00     0.040 C 
HETATM   24  C16 UNL     1      18.439  15.600  33.732  1.00  0.00     0.178 C 
BRANCH  24  25
HETATM   25  C17 UNL     1      17.154  14.916  33.911  1.00  0.00     0.240 C 
HETATM   26  O2  UNL     1      16.599  14.428  32.877  1.00  0.00    -0.271 OA
HETATM   27  N5  UNL     1      16.463  14.740  35.121  1.00  0.00    -0.355 N 
ATOM     28  H5  UNL     1      16.877  15.126  35.969  1.00  0.00     0.162 HD
BRANCH  27  29
HETATM   29  C18 UNL     1      15.192  14.040  35.240  1.00  0.00     0.084 C 
HETATM   30  C19 UNL     1      14.304  14.735  36.265  1.00  0.00     0.028 C 
HETATM   31  C20 UNL     1      12.955  14.042  36.240  1.00  0.00     0.034 C 
HETATM   32  C21 UNL     1      13.075  12.611  36.705  1.00  0.00     0.122 C 
HETATM   33  C28 UNL     1      14.067  11.941  35.806  1.00  0.00     0.034 C 
HETATM   34  C29 UNL     1      15.399  12.626  35.728  1.00  0.00     0.028 C 
BRANCH  32  35
HETATM   35  O3  UNL     1      13.433  12.637  38.043  1.00  0.00    -0.381 OA
BRANCH  35  36
HETATM   36  C22 UNL     1      12.469  12.056  38.861  1.00  0.00     0.122 C 
HETATM   37  C23 UNL     1      11.765  13.040  39.742  1.00  0.00     0.032 C 
HETATM   38  C24 UNL     1      12.674  13.824  40.644  1.00  0.00     0.002 C 
HETATM   39  C25 UNL     1      13.900  13.054  41.021  1.00  0.00     0.000 C 
HETATM   40  C26 UNL     1      13.543  11.583  41.091  1.00  0.00     0.002 C 
HETATM   41  C27 UNL     1      13.168  11.039  39.731  1.00  0.00     0.032 C 
ENDBRANCH  35  36
ENDBRANCH  32  35
ENDBRANCH  27  29
ENDBRANCH  24  25
ENDBRANCH  15  20
ENDBRANCH  13  15
ENDBRANCH  11  13
ENDBRANCH   1  11
BRANCH   1  42
HETATM   42  O1  UNL     1      14.705  19.349  32.887  1.00  0.00    -0.345 OA
ATOM     43  H1  UNL     1      14.044  19.933  33.240  1.00  0.00     0.219 HD
ENDBRANCH   1  42
TORSDOF 11
ENDMDL
