MODEL 1
REMARK VINA RESULT: -7.002977863      0.000      0.000
REMARK  4 active torsions:
REMARK  status: ('A' for Active; 'I' for Inactive)
REMARK    1  A    between atoms: O1_2  and  C2_3 
REMARK    2  A    between atoms: C3_4  and  O2_5 
REMARK    3  A    between atoms: C11_14  and  O3_15 
REMARK    4  A    between atoms: O3_15  and  C12_16 
REMARK       I    between atoms: C12_16  and  N1_18 
ROOT
HETATM    1  C2  UNL     1      22.558  30.076  17.330  1.00  0.00     0.185 C 
HETATM    2  C3  UNL     1      21.117  30.430  16.929  1.00  0.00     0.151 C 
HETATM    3  C4  UNL     1      21.139  31.897  17.297  1.00  0.00     0.046 C 
HETATM    4  C5  UNL     1      21.712  31.810  18.691  1.00  0.00    -0.007 C 
HETATM    5  C6  UNL     1      20.606  31.657  19.671  1.00  0.00     0.018 C 
HETATM    6  C7  UNL     1      22.474  33.069  18.942  1.00  0.00     0.013 C 
HETATM    7  C8  UNL     1      23.899  32.760  18.591  1.00  0.00     0.008 C 
HETATM    8  C9  UNL     1      24.038  31.293  18.938  1.00  0.00     0.020 C 
HETATM    9  C10 UNL     1      24.521  31.226  20.345  1.00  0.00     0.013 C 
HETATM   10  C11 UNL     1      22.697  30.646  18.709  1.00  0.00     0.111 C 
ENDROOT
BRANCH  10  11
HETATM   11  O3  UNL     1      22.288  29.816  19.741  1.00  0.00    -0.289 OA
BRANCH  11  12
HETATM   12  C12 UNL     1      22.332  28.447  19.717  1.00  0.00     0.363 C 
HETATM   13  O4  UNL     1      23.487  27.962  19.647  1.00  0.00    -0.238 OA
HETATM   14  N1  UNL     1      21.199  27.604  19.766  1.00  0.00    -0.324 N 
HETATM   15  C13 UNL     1      21.410  26.180  19.732  1.00  0.00     0.154 C 
HETATM   16  C16 UNL     1      19.885  28.188  19.847  1.00  0.00     0.154 C 
HETATM   17  C14 UNL     1      20.201  25.380  19.444  1.00  0.00     0.187 C 
HETATM   18  O5  UNL     1      19.085  26.126  19.096  1.00  0.00    -0.388 OA
HETATM   19  C15 UNL     1      18.811  27.136  20.005  1.00  0.00     0.187 C 
ENDBRANCH  11  12
ENDBRANCH  10  11
BRANCH   1  20
HETATM   20  O1  UNL     1      23.456  30.740  16.499  1.00  0.00    -0.385 OA
HETATM   21  C1  UNL     1      23.953  29.929  15.490  1.00  0.00     0.202 C 
ENDBRANCH   1  20
BRANCH   2  22
HETATM   22  O2  UNL     1      20.904  30.224  15.582  1.00  0.00    -0.393 OA
ATOM     23  H2  UNL     1      20.240  30.813  15.242  1.00  0.00     0.210 HD
ENDBRANCH   2  22
TORSDOF 4
ENDMDL
MODEL 2
REMARK VINA RESULT: -6.943028143      1.882      4.879
REMARK  4 active torsions:
REMARK  status: ('A' for Active; 'I' for Inactive)
REMARK    1  A    between atoms: O1_2  and  C2_3 
REMARK    2  A    between atoms: C3_4  and  O2_5 
REMARK    3  A    between atoms: C11_14  and  O3_15 
REMARK    4  A    between atoms: O3_15  and  C12_16 
REMARK       I    between atoms: C12_16  and  N1_18 
ROOT
HETATM    1  C2  UNL     1      21.352  29.054  19.150  1.00  0.00     0.185 C 
HETATM    2  C3  UNL     1      22.837  28.667  19.231  1.00  0.00     0.151 C 
HETATM    3  C4  UNL     1      23.212  29.481  20.450  1.00  0.00     0.046 C 
HETATM    4  C5  UNL     1      22.629  30.818  20.062  1.00  0.00    -0.007 C 
HETATM    5  C6  UNL     1      23.646  31.603  19.316  1.00  0.00     0.018 C 
HETATM    6  C7  UNL     1      22.236  31.518  21.320  1.00  0.00     0.013 C 
HETATM    7  C8  UNL     1      20.782  31.209  21.522  1.00  0.00     0.008 C 
HETATM    8  C9  UNL     1      20.248  31.083  20.111  1.00  0.00     0.020 C 
HETATM    9  C10 UNL     1      19.758  32.432  19.714  1.00  0.00     0.013 C 
HETATM   10  C11 UNL     1      21.365  30.549  19.252  1.00  0.00     0.111 C 
ENDROOT
BRANCH  10  11
HETATM   11  O3  UNL     1      21.528  31.227  18.054  1.00  0.00    -0.289 OA
BRANCH  11  12
HETATM   12  C12 UNL     1      21.174  30.746  16.821  1.00  0.00     0.363 C 
HETATM   13  O4  UNL     1      19.943  30.774  16.581  1.00  0.00    -0.238 OA
HETATM   14  N1  UNL     1      22.083  30.247  15.860  1.00  0.00    -0.324 N 
HETATM   15  C13 UNL     1      21.555  29.775  14.607  1.00  0.00     0.154 C 
HETATM   16  C16 UNL     1      23.491  30.227  16.162  1.00  0.00     0.154 C 
HETATM   17  C14 UNL     1      22.496  28.967  13.801  1.00  0.00     0.187 C 
HETATM   18  O5  UNL     1      23.684  28.655  14.444  1.00  0.00    -0.388 OA
HETATM   19  C15 UNL     1      24.313  29.770  14.978  1.00  0.00     0.187 C 
ENDBRANCH  11  12
ENDBRANCH  10  11
BRANCH   1  20
HETATM   20  O1  UNL     1      20.672  28.555  20.257  1.00  0.00    -0.385 OA
HETATM   21  C1  UNL     1      19.747  27.578  19.923  1.00  0.00     0.202 C 
ENDBRANCH   1  20
BRANCH   2  22
HETATM   22  O2  UNL     1      22.994  27.311  19.431  1.00  0.00    -0.393 OA
ATOM     23  H2  UNL     1      23.666  27.131  20.078  1.00  0.00     0.210 HD
ENDBRANCH   2  22
TORSDOF 4
ENDMDL
MODEL 3
REMARK VINA RESULT: -6.414030981      1.899      3.602
REMARK  4 active torsions:
REMARK  status: ('A' for Active; 'I' for Inactive)
REMARK    1  A    between atoms: O1_2  and  C2_3 
REMARK    2  A    between atoms: C3_4  and  O2_5 
REMARK    3  A    between atoms: C11_14  and  O3_15 
REMARK    4  A    between atoms: O3_15  and  C12_16 
REMARK       I    between atoms: C12_16  and  N1_18 
ROOT
HETATM    1  C2  UNL     1      22.687  31.414  20.493  1.00  0.00     0.185 C 
HETATM    2  C3  UNL     1      23.736  30.997  19.449  1.00  0.00     0.151 C 
HETATM    3  C4  UNL     1      23.768  32.277  18.643  1.00  0.00     0.046 C 
HETATM    4  C5  UNL     1      22.290  32.489  18.428  1.00  0.00    -0.007 C 
HETATM    5  C6  UNL     1      21.868  31.801  17.180  1.00  0.00     0.018 C 
HETATM    6  C7  UNL     1      22.057  33.960  18.327  1.00  0.00     0.013 C 
HETATM    7  C8  UNL     1      21.680  34.408  19.708  1.00  0.00     0.008 C 
HETATM    8  C9  UNL     1      20.957  33.210  20.284  1.00  0.00     0.020 C 
HETATM    9  C10 UNL     1      19.510  33.394  19.985  1.00  0.00     0.013 C 
HETATM   10  C11 UNL     1      21.568  31.977  19.669  1.00  0.00     0.111 C 
ENDROOT
BRANCH  10  11
HETATM   11  O3  UNL     1      20.638  31.054  19.217  1.00  0.00    -0.289 OA
BRANCH  11  12
HETATM   12  C12 UNL     1      20.266  29.916  19.884  1.00  0.00     0.363 C 
HETATM   13  O4  UNL     1      19.554  30.113  20.898  1.00  0.00    -0.238 OA
HETATM   14  N1  UNL     1      20.628  28.604  19.503  1.00  0.00    -0.324 N 
HETATM   15  C13 UNL     1      20.158  27.509  20.310  1.00  0.00     0.154 C 
HETATM   16  C16 UNL     1      21.446  28.407  18.334  1.00  0.00     0.154 C 
HETATM   17  C14 UNL     1      20.839  26.219  20.064  1.00  0.00     0.187 C 
HETATM   18  O5  UNL     1      21.930  26.297  19.212  1.00  0.00    -0.388 OA
HETATM   19  C15 UNL     1      21.633  26.940  18.020  1.00  0.00     0.187 C 
ENDBRANCH  11  12
ENDBRANCH  10  11
BRANCH   1  20
HETATM   20  O1  UNL     1      23.192  32.439  21.287  1.00  0.00    -0.385 OA
HETATM   21  C1  UNL     1      23.056  32.184  22.642  1.00  0.00     0.202 C 
ENDBRANCH   1  20
BRANCH   2  22
HETATM   22  O2  UNL     1      24.948  30.712  20.041  1.00  0.00    -0.393 OA
ATOM     23  H2  UNL     1      25.652  30.703  19.403  1.00  0.00     0.210 HD
ENDBRANCH   2  22
TORSDOF 4
ENDMDL
MODEL 4
REMARK VINA RESULT: -6.084415274      1.037      1.077
REMARK  4 active torsions:
REMARK  status: ('A' for Active; 'I' for Inactive)
REMARK    1  A    between atoms: O1_2  and  C2_3 
REMARK    2  A    between atoms: C3_4  and  O2_5 
REMARK    3  A    between atoms: C11_14  and  O3_15 
REMARK    4  A    between atoms: O3_15  and  C12_16 
REMARK       I    between atoms: C12_16  and  N1_18 
ROOT
HETATM    1  C2  UNL     1      22.660  31.125  17.946  1.00  0.00     0.185 C 
HETATM    2  C3  UNL     1      21.207  31.432  17.548  1.00  0.00     0.151 C 
HETATM    3  C4  UNL     1      21.098  32.813  18.155  1.00  0.00     0.046 C 
HETATM    4  C5  UNL     1      21.635  32.536  19.538  1.00  0.00    -0.007 C 
HETATM    5  C6  UNL     1      20.516  32.135  20.431  1.00  0.00     0.018 C 
HETATM    6  C7  UNL     1      22.283  33.787  20.028  1.00  0.00     0.013 C 
HETATM    7  C8  UNL     1      23.738  33.651  19.693  1.00  0.00     0.008 C 
HETATM    8  C9  UNL     1      23.987  32.162  19.797  1.00  0.00     0.020 C 
HETATM    9  C10 UNL     1      24.431  31.894  21.193  1.00  0.00     0.013 C 
HETATM   10  C11 UNL     1      22.710  31.463  19.405  1.00  0.00     0.111 C 
ENDROOT
BRANCH  10  11
HETATM   11  O3  UNL     1      22.340  30.442  20.267  1.00  0.00    -0.289 OA
BRANCH  11  12
HETATM   12  C12 UNL     1      22.519  29.104  20.028  1.00  0.00     0.363 C 
HETATM   13  O4  UNL     1      23.716  28.750  19.902  1.00  0.00    -0.238 OA
HETATM   14  N1  UNL     1      21.473  28.159  19.922  1.00  0.00    -0.324 N 
HETATM   15  C13 UNL     1      21.823  26.786  19.668  1.00  0.00     0.154 C 
HETATM   16  C16 UNL     1      20.109  28.593  20.071  1.00  0.00     0.154 C 
HETATM   17  C14 UNL     1      20.698  25.929  19.235  1.00  0.00     0.187 C 
HETATM   18  O5  UNL     1      19.516  26.610  18.989  1.00  0.00    -0.388 OA
HETATM   19  C15 UNL     1      19.142  27.431  20.042  1.00  0.00     0.187 C 
ENDBRANCH  11  12
ENDBRANCH  10  11
BRANCH   1  20
HETATM   20  O1  UNL     1      23.525  31.986  17.277  1.00  0.00    -0.385 OA
HETATM   21  C1  UNL     1      24.374  31.322  16.405  1.00  0.00     0.202 C 
ENDBRANCH   1  20
BRANCH   2  22
HETATM   22  O2  UNL     1      21.052  31.441  16.178  1.00  0.00    -0.393 OA
ATOM     23  H2  UNL     1      20.363  30.848  15.903  1.00  0.00     0.210 HD
ENDBRANCH   2  22
TORSDOF 4
ENDMDL
MODEL 5
REMARK VINA RESULT: -6.034604214      2.698      4.420
REMARK  4 active torsions:
REMARK  status: ('A' for Active; 'I' for Inactive)
REMARK    1  A    between atoms: O1_2  and  C2_3 
REMARK    2  A    between atoms: C3_4  and  O2_5 
REMARK    3  A    between atoms: C11_14  and  O3_15 
REMARK    4  A    between atoms: O3_15  and  C12_16 
REMARK       I    between atoms: C12_16  and  N1_18 
ROOT
HETATM    1  C2  UNL     1      21.571  32.945  18.858  1.00  0.00     0.185 C 
HETATM    2  C3  UNL     1      20.117  33.210  19.282  1.00  0.00     0.151 C 
HETATM    3  C4  UNL     1      20.290  33.059  20.777  1.00  0.00     0.046 C 
HETATM    4  C5  UNL     1      21.039  31.749  20.824  1.00  0.00    -0.007 C 
HETATM    5  C6  UNL     1      20.068  30.628  20.899  1.00  0.00     0.018 C 
HETATM    6  C7  UNL     1      21.913  31.776  22.033  1.00  0.00     0.013 C 
HETATM    7  C8  UNL     1      23.253  32.253  21.557  1.00  0.00     0.008 C 
HETATM    8  C9  UNL     1      23.336  31.722  20.142  1.00  0.00     0.020 C 
HETATM    9  C10 UNL     1      23.998  30.390  20.219  1.00  0.00     0.013 C 
HETATM   10  C11 UNL     1      21.934  31.689  19.591  1.00  0.00     0.111 C 
ENDROOT
BRANCH  10  11
HETATM   11  O3  UNL     1      21.611  30.506  18.943  1.00  0.00    -0.289 OA
BRANCH  11  12
HETATM   12  C12 UNL     1      21.128  30.413  17.664  1.00  0.00     0.363 C 
HETATM   13  O4  UNL     1      19.878  30.469  17.571  1.00  0.00    -0.238 OA
HETATM   14  N1  UNL     1      21.930  30.266  16.510  1.00  0.00    -0.324 N 
HETATM   15  C13 UNL     1      21.272  30.182  15.232  1.00  0.00     0.154 C 
HETATM   16  C16 UNL     1      23.362  30.205  16.645  1.00  0.00     0.154 C 
HETATM   17  C14 UNL     1      22.123  29.694  14.126  1.00  0.00     0.187 C 
HETATM   18  O5  UNL     1      23.374  29.243  14.517  1.00  0.00    -0.388 OA
HETATM   19  C15 UNL     1      24.053  30.163  15.301  1.00  0.00     0.187 C 
ENDBRANCH  11  12
ENDBRANCH  10  11
BRANCH   1  20
HETATM   20  O1  UNL     1      22.392  33.966  19.326  1.00  0.00    -0.385 OA
HETATM   21  C1  UNL     1      23.016  34.663  18.302  1.00  0.00     0.202 C 
ENDBRANCH   1  20
BRANCH   2  22
HETATM   22  O2  UNL     1      19.710  34.476  18.920  1.00  0.00    -0.393 OA
ATOM     23  H2  UNL     1      19.502  35.004  19.682  1.00  0.00     0.210 HD
ENDBRANCH   2  22
TORSDOF 4
ENDMDL
