MODEL 1
REMARK VINA RESULT: -7.003634405      0.000      0.000
REMARK  8 active torsions:
REMARK  status: ('A' for Active; 'I' for Inactive)
REMARK    1  A    between atoms: C2_3  and  N3_7 
REMARK       I    between atoms: N3_7  and  C3_9 
REMARK    2  A    between atoms: C3_9  and  C4_11 
REMARK    3  A    between atoms: C4_11  and  C5_12 
REMARK    4  A    between atoms: C5_12  and  C6_13 
REMARK    5  A    between atoms: C6_13  and  N4_14 
REMARK    6  A    between atoms: C6_13  and  N5_18 
REMARK    7  A    between atoms: C6_13  and  N6_22 
REMARK    8  A    between atoms: N6_22  and  N7_23 
ROOT
HETATM    1  N1  UNL     1       5.683   8.771   1.206  1.00  0.00    -0.188 NA
HETATM    2  C1  UNL     1       5.523   8.142   0.222  1.00  0.00     0.136 C 
HETATM    3  C2  UNL     1       5.301   7.388  -0.963  1.00  0.00     0.184 C 
HETATM    4  N2  UNL     1       4.072   7.335  -1.413  1.00  0.00    -0.377 N 
ATOM      5  H21 UNL     1       3.912   6.794  -2.263  1.00  0.00     0.158 HD
ATOM      6  H22 UNL     1       3.339   7.828  -0.903  1.00  0.00     0.158 HD
ENDROOT
BRANCH   3   7
HETATM    7  N3  UNL     1       6.303   6.714  -1.661  1.00  0.00    -0.305 N 
HETATM    8  C3  UNL     1       6.414   5.281  -1.654  1.00  0.00     0.223 C 
HETATM    9  O1  UNL     1       5.551   4.674  -0.981  1.00  0.00    -0.273 OA
ATOM     10  H3  UNL     1       6.982   7.258  -2.194  1.00  0.00     0.171 HD
BRANCH   8  11
HETATM   11  C4  UNL     1       7.485   4.612  -2.404  1.00  0.00     0.109 C 
BRANCH  11  12
HETATM   12  C5  UNL     1       7.256   3.215  -2.857  1.00  0.00     0.099 C 
BRANCH  12  13
HETATM   13  C6  UNL     1       7.891   2.117  -2.065  1.00  0.00     0.371 C 
BRANCH  13  14
HETATM   14  N4  UNL     1       7.009   1.322  -1.279  1.00  0.00    -0.028 N 
ATOM     15  H43 UNL     1       6.125   1.813  -1.148  1.00  0.00     0.279 HD
ATOM     16  H42 UNL     1       6.694   0.516  -1.820  1.00  0.00     0.279 HD
ATOM     17  H41 UNL     1       7.369   1.012  -0.376  1.00  0.00     0.279 HD
ENDBRANCH  13  14
BRANCH  13  18
HETATM   18  N5  UNL     1       8.557   1.246  -2.991  1.00  0.00    -0.028 N 
ATOM     19  H53 UNL     1       8.466   1.552  -3.960  1.00  0.00     0.279 HD
ATOM     20  H52 UNL     1       9.574   1.302  -2.929  1.00  0.00     0.279 HD
ATOM     21  H51 UNL     1       8.200   0.304  -2.837  1.00  0.00     0.279 HD
ENDBRANCH  13  18
BRANCH  13  22
HETATM   22  N6  UNL     1       8.831   2.742  -1.139  1.00  0.00    -0.081 NA
BRANCH  22  23
HETATM   23  N7  UNL     1       8.671   2.305   0.164  1.00  0.00    -0.344 N 
ATOM     24  H72 UNL     1       8.116   1.484   0.406  1.00  0.00     0.172 HD
ATOM     25  H71 UNL     1       9.162   2.890   0.840  1.00  0.00     0.172 HD
ENDBRANCH  22  23
ENDBRANCH  13  22
ENDBRANCH  12  13
ENDBRANCH  11  12
ENDBRANCH   8  11
ENDBRANCH   3   7
TORSDOF 8
ENDMDL
MODEL 2
REMARK VINA RESULT: -6.942536330      1.785      2.517
REMARK  8 active torsions:
REMARK  status: ('A' for Active; 'I' for Inactive)
REMARK    1  A    between atoms: C2_3  and  N3_7 
REMARK       I    between atoms: N3_7  and  C3_9 
REMARK    2  A    between atoms: C3_9  and  C4_11 
REMARK    3  A    between atoms: C4_11  and  C5_12 
REMARK    4  A    between atoms: C5_12  and  C6_13 
REMARK    5  A    between atoms: C6_13  and  N4_14 
REMARK    6  A    between atoms: C6_13  and  N5_18 
REMARK    7  A    between atoms: C6_13  and  N6_22 
REMARK    8  A    between atoms: N6_22  and  N7_23 
ROOT
HETATM    1  N1  UNL     1       4.030   7.237  -1.988  1.00  0.00    -0.188 NA
HETATM    2  C1  UNL     1       4.908   7.128  -1.209  1.00  0.00     0.136 C 
HETATM    3  C2  UNL     1       5.960   7.022  -0.258  1.00  0.00     0.184 C 
HETATM    4  N2  UNL     1       6.096   8.010   0.592  1.00  0.00    -0.377 N 
ATOM      5  H21 UNL     1       6.851   7.935   1.274  1.00  0.00     0.158 HD
ATOM      6  H22 UNL     1       5.453   8.799   0.536  1.00  0.00     0.158 HD
ENDROOT
BRANCH   3   7
HETATM    7  N3  UNL     1       6.840   5.942  -0.181  1.00  0.00    -0.305 N 
HETATM    8  C3  UNL     1       6.609   4.823   0.692  1.00  0.00     0.223 C 
HETATM    9  O1  UNL     1       5.565   4.879   1.380  1.00  0.00    -0.273 OA
ATOM     10  H3  UNL     1       7.676   5.947  -0.765  1.00  0.00     0.171 HD
BRANCH   8  11
HETATM   11  C4  UNL     1       7.561   3.707   0.740  1.00  0.00     0.109 C 
BRANCH  11  12
HETATM   12  C5  UNL     1       7.304   2.529  -0.131  1.00  0.00     0.099 C 
BRANCH  12  13
HETATM   13  C6  UNL     1       8.060   2.441  -1.419  1.00  0.00     0.371 C 
BRANCH  13  14
HETATM   14  N4  UNL     1       9.466   2.243  -1.307  1.00  0.00    -0.028 N 
ATOM     15  H43 UNL     1       9.683   1.800  -0.414  1.00  0.00     0.279 HD
ATOM     16  H42 UNL     1       9.764   1.511  -1.952  1.00  0.00     0.279 HD
ATOM     17  H41 UNL     1      10.046   3.072  -1.432  1.00  0.00     0.279 HD
ENDBRANCH  13  14
BRANCH  13  18
HETATM   18  N5  UNL     1       7.520   1.339  -2.162  1.00  0.00    -0.028 N 
ATOM     19  H53 UNL     1       6.540   1.156  -1.946  1.00  0.00     0.279 HD
ATOM     20  H52 UNL     1       7.401   1.548  -3.153  1.00  0.00     0.279 HD
ATOM     21  H51 UNL     1       8.121   0.533  -1.995  1.00  0.00     0.279 HD
ENDBRANCH  13  18
BRANCH  13  22
HETATM   22  N6  UNL     1       7.869   3.710  -2.117  1.00  0.00    -0.081 NA
BRANCH  22  23
HETATM   23  N7  UNL     1       6.739   3.719  -2.914  1.00  0.00    -0.344 N 
ATOM     24  H72 UNL     1       5.875   4.189  -2.642  1.00  0.00     0.172 HD
ATOM     25  H71 UNL     1       6.868   3.209  -3.788  1.00  0.00     0.172 HD
ENDBRANCH  22  23
ENDBRANCH  13  22
ENDBRANCH  12  13
ENDBRANCH  11  12
ENDBRANCH   8  11
ENDBRANCH   3   7
TORSDOF 8
ENDMDL
MODEL 3
REMARK VINA RESULT: -6.899733245      0.809      1.676
REMARK  8 active torsions:
REMARK  status: ('A' for Active; 'I' for Inactive)
REMARK    1  A    between atoms: C2_3  and  N3_7 
REMARK       I    between atoms: N3_7  and  C3_9 
REMARK    2  A    between atoms: C3_9  and  C4_11 
REMARK    3  A    between atoms: C4_11  and  C5_12 
REMARK    4  A    between atoms: C5_12  and  C6_13 
REMARK    5  A    between atoms: C6_13  and  N4_14 
REMARK    6  A    between atoms: C6_13  and  N5_18 
REMARK    7  A    between atoms: C6_13  and  N6_22 
REMARK    8  A    between atoms: N6_22  and  N7_23 
ROOT
HETATM    1  N1  UNL     1       5.637   8.847   1.166  1.00  0.00    -0.188 NA
HETATM    2  C1  UNL     1       5.516   8.165   0.213  1.00  0.00     0.136 C 
HETATM    3  C2  UNL     1       5.340   7.349  -0.938  1.00  0.00     0.184 C 
HETATM    4  N2  UNL     1       4.137   7.299  -1.456  1.00  0.00    -0.377 N 
ATOM      5  H21 UNL     1       4.011   6.714  -2.281  1.00  0.00     0.158 HD
ATOM      6  H22 UNL     1       3.391   7.839  -1.018  1.00  0.00     0.158 HD
ENDROOT
BRANCH   3   7
HETATM    7  N3  UNL     1       6.361   6.611  -1.537  1.00  0.00    -0.305 N 
HETATM    8  C3  UNL     1       6.583   5.222  -1.237  1.00  0.00     0.223 C 
HETATM    9  O1  UNL     1       5.800   4.716  -0.403  1.00  0.00    -0.273 OA
ATOM     10  H3  UNL     1       6.971   7.073  -2.211  1.00  0.00     0.171 HD
BRANCH   8  11
HETATM   11  C4  UNL     1       7.670   4.483  -1.892  1.00  0.00     0.109 C 
BRANCH  11  12
HETATM   12  C5  UNL     1       7.307   3.358  -2.794  1.00  0.00     0.099 C 
BRANCH  12  13
HETATM   13  C6  UNL     1       7.371   1.973  -2.234  1.00  0.00     0.371 C 
BRANCH  13  14
HETATM   14  N4  UNL     1       8.332   1.102  -2.824  1.00  0.00    -0.028 N 
ATOM     15  H43 UNL     1       8.765   1.559  -3.626  1.00  0.00     0.279 HD
ATOM     16  H42 UNL     1       9.139   1.010  -2.207  1.00  0.00     0.279 HD
ATOM     17  H41 UNL     1       7.994   0.179  -3.092  1.00  0.00     0.279 HD
ENDBRANCH  13  14
BRANCH  13  18
HETATM   18  N5  UNL     1       7.681   2.085  -0.838  1.00  0.00    -0.028 N 
ATOM     19  H53 UNL     1       8.489   1.526  -0.563  1.00  0.00     0.279 HD
ATOM     20  H52 UNL     1       8.060   2.999  -0.587  1.00  0.00     0.279 HD
ATOM     21  H51 UNL     1       6.838   1.848  -0.316  1.00  0.00     0.279 HD
ENDBRANCH  13  18
BRANCH  13  22
HETATM   22  N6  UNL     1       6.062   1.360  -2.449  1.00  0.00    -0.081 NA
BRANCH  22  23
HETATM   23  N7  UNL     1       5.072   1.920  -1.662  1.00  0.00    -0.344 N 
ATOM     24  H72 UNL     1       4.807   1.539  -0.754  1.00  0.00     0.172 HD
ATOM     25  H71 UNL     1       4.646   2.743  -2.089  1.00  0.00     0.172 HD
ENDBRANCH  22  23
ENDBRANCH  13  22
ENDBRANCH  12  13
ENDBRANCH  11  12
ENDBRANCH   8  11
ENDBRANCH   3   7
TORSDOF 8
ENDMDL
MODEL 4
REMARK VINA RESULT: -6.868055022      1.343      1.988
REMARK  8 active torsions:
REMARK  status: ('A' for Active; 'I' for Inactive)
REMARK    1  A    between atoms: C2_3  and  N3_7 
REMARK       I    between atoms: N3_7  and  C3_9 
REMARK    2  A    between atoms: C3_9  and  C4_11 
REMARK    3  A    between atoms: C4_11  and  C5_12 
REMARK    4  A    between atoms: C5_12  and  C6_13 
REMARK    5  A    between atoms: C6_13  and  N4_14 
REMARK    6  A    between atoms: C6_13  and  N5_18 
REMARK    7  A    between atoms: C6_13  and  N6_22 
REMARK    8  A    between atoms: N6_22  and  N7_23 
ROOT
HETATM    1  N1  UNL     1       5.823   8.805   1.187  1.00  0.00    -0.188 NA
HETATM    2  C1  UNL     1       5.516   8.044   0.341  1.00  0.00     0.136 C 
HETATM    3  C2  UNL     1       5.122   7.144  -0.687  1.00  0.00     0.184 C 
HETATM    4  N2  UNL     1       4.064   7.468  -1.390  1.00  0.00    -0.377 N 
ATOM      5  H21 UNL     1       3.781   6.822  -2.127  1.00  0.00     0.158 HD
ATOM      6  H22 UNL     1       3.576   8.337  -1.173  1.00  0.00     0.158 HD
ENDROOT
BRANCH   3   7
HETATM    7  N3  UNL     1       5.789   5.956  -0.984  1.00  0.00    -0.305 N 
HETATM    8  C3  UNL     1       6.714   5.846  -2.080  1.00  0.00     0.223 C 
HETATM    9  O1  UNL     1       6.883   6.888  -2.752  1.00  0.00    -0.273 OA
ATOM     10  H3  UNL     1       5.614   5.136  -0.404  1.00  0.00     0.171 HD
BRANCH   8  11
HETATM   11  C4  UNL     1       7.396   4.575  -2.356  1.00  0.00     0.109 C 
BRANCH  11  12
HETATM   12  C5  UNL     1       7.902   3.787  -1.201  1.00  0.00     0.099 C 
BRANCH  12  13
HETATM   13  C6  UNL     1       7.256   2.466  -0.928  1.00  0.00     0.371 C 
BRANCH  13  14
HETATM   14  N4  UNL     1       7.436   1.463  -1.924  1.00  0.00    -0.028 N 
ATOM     15  H43 UNL     1       7.741   0.593  -1.488  1.00  0.00     0.279 HD
ATOM     16  H42 UNL     1       6.530   1.176  -2.294  1.00  0.00     0.279 HD
ATOM     17  H41 UNL     1       8.063   1.702  -2.692  1.00  0.00     0.279 HD
ENDBRANCH  13  14
BRANCH  13  18
HETATM   18  N5  UNL     1       7.800   1.965   0.301  1.00  0.00    -0.028 N 
ATOM     19  H53 UNL     1       7.777   0.947   0.360  1.00  0.00     0.279 HD
ATOM     20  H52 UNL     1       8.812   2.079   0.364  1.00  0.00     0.279 HD
ATOM     21  H51 UNL     1       7.301   2.419   1.065  1.00  0.00     0.279 HD
ENDBRANCH  13  18
BRANCH  13  22
HETATM   22  N6  UNL     1       5.818   2.702  -0.827  1.00  0.00    -0.081 NA
BRANCH  22  23
HETATM   23  N7  UNL     1       5.078   1.864  -1.642  1.00  0.00    -0.344 N 
ATOM     24  H72 UNL     1       4.476   2.210  -2.389  1.00  0.00     0.172 HD
ATOM     25  H71 UNL     1       5.203   0.878  -1.412  1.00  0.00     0.172 HD
ENDBRANCH  22  23
ENDBRANCH  13  22
ENDBRANCH  12  13
ENDBRANCH  11  12
ENDBRANCH   8  11
ENDBRANCH   3   7
TORSDOF 8
ENDMDL
MODEL 5
REMARK VINA RESULT: -6.783202012      0.496      1.675
REMARK  8 active torsions:
REMARK  status: ('A' for Active; 'I' for Inactive)
REMARK    1  A    between atoms: C2_3  and  N3_7 
REMARK       I    between atoms: N3_7  and  C3_9 
REMARK    2  A    between atoms: C3_9  and  C4_11 
REMARK    3  A    between atoms: C4_11  and  C5_12 
REMARK    4  A    between atoms: C5_12  and  C6_13 
REMARK    5  A    between atoms: C6_13  and  N4_14 
REMARK    6  A    between atoms: C6_13  and  N5_18 
REMARK    7  A    between atoms: C6_13  and  N6_22 
REMARK    8  A    between atoms: N6_22  and  N7_23 
ROOT
HETATM    1  N1  UNL     1       5.650   8.764   1.229  1.00  0.00    -0.188 NA
HETATM    2  C1  UNL     1       5.544   8.108   0.256  1.00  0.00     0.136 C 
HETATM    3  C2  UNL     1       5.387   7.322  -0.919  1.00  0.00     0.184 C 
HETATM    4  N2  UNL     1       4.182   7.247  -1.428  1.00  0.00    -0.377 N 
ATOM      5  H21 UNL     1       4.069   6.683  -2.271  1.00  0.00     0.158 HD
ATOM      6  H22 UNL     1       3.421   7.746  -0.968  1.00  0.00     0.158 HD
ENDROOT
BRANCH   3   7
HETATM    7  N3  UNL     1       6.427   6.639  -1.548  1.00  0.00    -0.305 N 
HETATM    8  C3  UNL     1       6.631   5.225  -1.382  1.00  0.00     0.223 C 
HETATM    9  O1  UNL     1       5.811   4.644  -0.634  1.00  0.00    -0.273 OA
ATOM     10  H3  UNL     1       7.067   7.161  -2.147  1.00  0.00     0.171 HD
BRANCH   8  11
HETATM   11  C4  UNL     1       7.739   4.546  -2.065  1.00  0.00     0.109 C 
BRANCH  11  12
HETATM   12  C5  UNL     1       7.471   3.224  -2.690  1.00  0.00     0.099 C 
BRANCH  12  13
HETATM   13  C6  UNL     1       8.166   2.031  -2.113  1.00  0.00     0.371 C 
BRANCH  13  14
HETATM   14  N4  UNL     1       9.214   2.305  -1.188  1.00  0.00    -0.028 N 
ATOM     15  H43 UNL     1       9.769   3.095  -1.517  1.00  0.00     0.279 HD
ATOM     16  H42 UNL     1       8.825   2.698  -0.330  1.00  0.00     0.279 HD
ATOM     17  H41 UNL     1       9.828   1.522  -0.962  1.00  0.00     0.279 HD
ENDBRANCH  13  14
BRANCH  13  18
HETATM   18  N5  UNL     1       7.179   1.242  -1.436  1.00  0.00    -0.028 N 
ATOM     19  H53 UNL     1       6.305   1.744  -1.282  1.00  0.00     0.279 HD
ATOM     20  H52 UNL     1       6.802   0.492  -2.016  1.00  0.00     0.279 HD
ATOM     21  H51 UNL     1       7.599   0.901  -0.571  1.00  0.00     0.279 HD
ENDBRANCH  13  18
BRANCH  13  22
HETATM   22  N6  UNL     1       8.770   1.304  -3.227  1.00  0.00    -0.081 NA
BRANCH  22  23
HETATM   23  N7  UNL     1       7.978   1.308  -4.361  1.00  0.00    -0.344 N 
ATOM     24  H72 UNL     1       7.433   2.121  -4.652  1.00  0.00     0.172 HD
ATOM     25  H71 UNL     1       8.002   0.421  -4.863  1.00  0.00     0.172 HD
ENDBRANCH  22  23
ENDBRANCH  13  22
ENDBRANCH  12  13
ENDBRANCH  11  12
ENDBRANCH   8  11
ENDBRANCH   3   7
TORSDOF 8
ENDMDL
