MODEL 1
REMARK VINA RESULT: -8.013370364      0.000      0.000
REMARK  11 active torsions:
REMARK  status: ('A' for Active; 'I' for Inactive)
REMARK    1  A    between atoms: C2_2  and  O1_3 
REMARK    2  A    between atoms: O1_3  and  C3_4 
REMARK    3  A    between atoms: C3_4  and  C4_6 
REMARK    4  A    between atoms: C4_6  and  C5_7 
REMARK    5  A    between atoms: C5_7  and  C6_8 
REMARK    6  A    between atoms: C6_8  and  N1_9 
REMARK    7  A    between atoms: C6_8  and  C19_26 
REMARK       I    between atoms: N1_9  and  C7_11 
REMARK    8  A    between atoms: C7_11  and  C8_13 
REMARK    9  A    between atoms: C8_13  and  O4_15 
REMARK   10  A    between atoms: O4_15  and  C10_16 
REMARK   11  A    between atoms: C10_16  and  C11_18 
ROOT
HETATM    1  N1  UNL     1      37.911 163.526  58.108  1.00  0.00    -0.344 N 
ATOM      2  H1  UNL     1      37.749 164.224  58.834  1.00  0.00     0.163 HD
HETATM    3  C7  UNL     1      36.959 163.415  57.071  1.00  0.00     0.247 C 
HETATM    4  O3  UNL     1      37.116 162.573  56.159  1.00  0.00    -0.271 OA
ENDROOT
BRANCH   3   5
HETATM    5  C8  UNL     1      35.770 164.286  57.047  1.00  0.00     0.219 C 
HETATM    6  C9  UNL     1      36.009 165.541  57.896  1.00  0.00     0.050 C 
BRANCH   5   7
HETATM    7  O4  UNL     1      34.677 163.619  57.645  1.00  0.00    -0.306 OA
BRANCH   7   8
HETATM    8  C10 UNL     1      33.708 162.933  56.936  1.00  0.00     0.264 C 
HETATM    9  O5  UNL     1      33.679 163.143  55.687  1.00  0.00    -0.265 OA
BRANCH   8  10
HETATM   10  C11 UNL     1      32.742 161.999  57.568  1.00  0.00     0.095 A 
HETATM   11  C12 UNL     1      32.271 160.861  56.686  1.00  0.00     0.025 A 
HETATM   12  C13 UNL     1      33.194 160.610  57.827  1.00  0.00    -0.027 A 
HETATM   13  C14 UNL     1      34.636 160.327  57.620  1.00  0.00     0.010 C 
HETATM   14  C18 UNL     1      32.608 159.801  58.943  1.00  0.00     0.010 C 
HETATM   15  C15 UNL     1      35.074 159.180  58.466  1.00  0.00     0.001 C 
HETATM   16  C16 UNL     1      34.886 159.541  59.929  1.00  0.00     0.000 C 
HETATM   17  C17 UNL     1      33.433 159.872  60.211  1.00  0.00     0.001 C 
ENDBRANCH   8  10
ENDBRANCH   7   8
ENDBRANCH   5   7
ENDBRANCH   3   5
BRANCH   1  18
HETATM   18  C6  UNL     1      39.096 162.715  58.202  1.00  0.00     0.186 C 
BRANCH  18  19
HETATM   19  C5  UNL     1      40.042 163.289  59.237  1.00  0.00     0.046 C 
BRANCH  19  20
HETATM   20  C4  UNL     1      41.464 163.140  58.807  1.00  0.00     0.113 C 
BRANCH  20  21
HETATM   21  C3  UNL     1      41.629 163.538  57.395  1.00  0.00     0.258 C 
HETATM   22  O2  UNL     1      41.658 164.754  57.065  1.00  0.00    -0.265 OA
BRANCH  21  23
HETATM   23  O1  UNL     1      41.753 162.561  56.425  1.00  0.00    -0.322 OA
BRANCH  23  24
HETATM   24  C2  UNL     1      42.453 161.374  56.753  1.00  0.00     0.174 C 
HETATM   25  C1  UNL     1      43.400 161.058  55.641  1.00  0.00     0.034 C 
ENDBRANCH  23  24
ENDBRANCH  21  23
ENDBRANCH  20  21
ENDBRANCH  19  20
ENDBRANCH  18  19
BRANCH  18  26
HETATM   26  C19 UNL     1      38.801 161.329  58.581  1.00  0.00     0.196 C 
HETATM   27  O6  UNL     1      38.084 160.998  59.559  1.00  0.00    -0.646 OA
HETATM   28  O7  UNL     1      39.343 160.300  57.822  1.00  0.00    -0.646 OA
ENDBRANCH  18  26
ENDBRANCH   1  18
TORSDOF 11
ENDMDL
MODEL 2
REMARK VINA RESULT: -8.009011869      1.280      2.090
REMARK  11 active torsions:
REMARK  status: ('A' for Active; 'I' for Inactive)
REMARK    1  A    between atoms: C2_2  and  O1_3 
REMARK    2  A    between atoms: O1_3  and  C3_4 
REMARK    3  A    between atoms: C3_4  and  C4_6 
REMARK    4  A    between atoms: C4_6  and  C5_7 
REMARK    5  A    between atoms: C5_7  and  C6_8 
REMARK    6  A    between atoms: C6_8  and  N1_9 
REMARK    7  A    between atoms: C6_8  and  C19_26 
REMARK       I    between atoms: N1_9  and  C7_11 
REMARK    8  A    between atoms: C7_11  and  C8_13 
REMARK    9  A    between atoms: C8_13  and  O4_15 
REMARK   10  A    between atoms: O4_15  and  C10_16 
REMARK   11  A    between atoms: C10_16  and  C11_18 
ROOT
HETATM    1  N1  UNL     1      37.507 163.400  57.986  1.00  0.00    -0.344 N 
ATOM      2  H1  UNL     1      37.214 164.021  58.741  1.00  0.00     0.163 HD
HETATM    3  C7  UNL     1      36.576 163.117  56.962  1.00  0.00     0.247 C 
HETATM    4  O3  UNL     1      36.891 162.360  56.017  1.00  0.00    -0.271 OA
ENDROOT
BRANCH   3   5
HETATM    5  C8  UNL     1      35.224 163.705  56.992  1.00  0.00     0.219 C 
HETATM    6  C9  UNL     1      35.234 165.028  57.769  1.00  0.00     0.050 C 
BRANCH   5   7
HETATM    7  O4  UNL     1      34.347 162.851  57.696  1.00  0.00    -0.306 OA
BRANCH   7   8
HETATM    8  C10 UNL     1      33.525 161.917  57.090  1.00  0.00     0.264 C 
HETATM    9  O5  UNL     1      33.053 162.241  55.961  1.00  0.00    -0.265 OA
BRANCH   8  10
HETATM   10  C11 UNL     1      33.195 160.603  57.699  1.00  0.00     0.095 A 
HETATM   11  C12 UNL     1      33.599 160.442  59.149  1.00  0.00     0.025 A 
HETATM   12  C13 UNL     1      32.166 160.577  58.767  1.00  0.00    -0.027 A 
HETATM   13  C14 UNL     1      31.409 161.832  58.997  1.00  0.00     0.010 C 
HETATM   14  C18 UNL     1      31.334 159.355  59.009  1.00  0.00     0.010 C 
HETATM   15  C15 UNL     1      30.069 161.538  59.580  1.00  0.00     0.001 C 
HETATM   16  C16 UNL     1      29.271 160.699  58.598  1.00  0.00     0.000 C 
HETATM   17  C17 UNL     1      30.001 159.405  58.292  1.00  0.00     0.001 C 
ENDBRANCH   8  10
ENDBRANCH   7   8
ENDBRANCH   5   7
ENDBRANCH   3   5
BRANCH   1  18
HETATM   18  C6  UNL     1      38.842 162.866  58.029  1.00  0.00     0.186 C 
BRANCH  18  19
HETATM   19  C5  UNL     1      39.762 163.818  58.767  1.00  0.00     0.046 C 
BRANCH  19  20
HETATM   20  C4  UNL     1      41.195 163.472  58.529  1.00  0.00     0.113 C 
BRANCH  20  21
HETATM   21  C3  UNL     1      41.549 163.656  57.107  1.00  0.00     0.258 C 
HETATM   22  O2  UNL     1      41.746 164.807  56.633  1.00  0.00    -0.265 OA
BRANCH  21  23
HETATM   23  O1  UNL     1      41.667 162.548  56.289  1.00  0.00    -0.322 OA
BRANCH  23  24
HETATM   24  C2  UNL     1      42.397 161.434  56.769  1.00  0.00     0.174 C 
HETATM   25  C1  UNL     1      43.388 161.030  55.725  1.00  0.00     0.034 C 
ENDBRANCH  23  24
ENDBRANCH  21  23
ENDBRANCH  20  21
ENDBRANCH  19  20
ENDBRANCH  18  19
BRANCH  18  26
HETATM   26  C19 UNL     1      38.908 161.565  58.702  1.00  0.00     0.196 C 
HETATM   27  O6  UNL     1      38.706 161.390  59.930  1.00  0.00    -0.646 OA
HETATM   28  O7  UNL     1      39.212 160.439  57.948  1.00  0.00    -0.646 OA
ENDBRANCH  18  26
ENDBRANCH   1  18
TORSDOF 11
ENDMDL
MODEL 3
REMARK VINA RESULT: -7.893042737      2.091      3.217
REMARK  11 active torsions:
REMARK  status: ('A' for Active; 'I' for Inactive)
REMARK    1  A    between atoms: C2_2  and  O1_3 
REMARK    2  A    between atoms: O1_3  and  C3_4 
REMARK    3  A    between atoms: C3_4  and  C4_6 
REMARK    4  A    between atoms: C4_6  and  C5_7 
REMARK    5  A    between atoms: C5_7  and  C6_8 
REMARK    6  A    between atoms: C6_8  and  N1_9 
REMARK    7  A    between atoms: C6_8  and  C19_26 
REMARK       I    between atoms: N1_9  and  C7_11 
REMARK    8  A    between atoms: C7_11  and  C8_13 
REMARK    9  A    between atoms: C8_13  and  O4_15 
REMARK   10  A    between atoms: O4_15  and  C10_16 
REMARK   11  A    between atoms: C10_16  and  C11_18 
ROOT
HETATM    1  N1  UNL     1      38.057 161.785  58.795  1.00  0.00    -0.344 N 
ATOM      2  H1  UNL     1      37.372 162.426  59.195  1.00  0.00     0.163 HD
HETATM    3  C7  UNL     1      37.579 160.634  58.130  1.00  0.00     0.247 C 
HETATM    4  O3  UNL     1      38.383 159.820  57.624  1.00  0.00    -0.271 OA
ENDROOT
BRANCH   3   5
HETATM    5  C8  UNL     1      36.132 160.375  58.024  1.00  0.00     0.219 C 
HETATM    6  C9  UNL     1      35.387 161.656  57.626  1.00  0.00     0.050 C 
BRANCH   5   7
HETATM    7  O4  UNL     1      35.617 160.007  59.287  1.00  0.00    -0.306 OA
BRANCH   7   8
HETATM    8  C10 UNL     1      34.993 158.800  59.546  1.00  0.00     0.264 C 
HETATM    9  O5  UNL     1      35.524 158.081  60.443  1.00  0.00    -0.265 OA
BRANCH   8  10
HETATM   10  C11 UNL     1      33.772 158.343  58.835  1.00  0.00     0.095 A 
HETATM   11  C12 UNL     1      32.713 157.707  59.710  1.00  0.00     0.025 A 
HETATM   12  C13 UNL     1      32.502 159.056  59.117  1.00  0.00    -0.027 A 
HETATM   13  C14 UNL     1      32.596 160.293  59.930  1.00  0.00     0.010 C 
HETATM   14  C18 UNL     1      31.411 159.128  58.093  1.00  0.00     0.010 C 
HETATM   15  C15 UNL     1      31.461 161.210  59.627  1.00  0.00     0.001 C 
HETATM   16  C16 UNL     1      31.529 161.620  58.167  1.00  0.00     0.000 C 
HETATM   17  C17 UNL     1      31.466 160.398  57.270  1.00  0.00     0.001 C 
ENDBRANCH   8  10
ENDBRANCH   7   8
ENDBRANCH   5   7
ENDBRANCH   3   5
BRANCH   1  18
HETATM   18  C6  UNL     1      39.452 162.108  58.941  1.00  0.00     0.186 C 
BRANCH  18  19
HETATM   19  C5  UNL     1      39.640 163.611  58.969  1.00  0.00     0.046 C 
BRANCH  19  20
HETATM   20  C4  UNL     1      39.788 164.160  57.589  1.00  0.00     0.113 C 
BRANCH  20  21
HETATM   21  C3  UNL     1      41.160 163.946  57.084  1.00  0.00     0.258 C 
HETATM   22  O2  UNL     1      42.056 164.815  57.259  1.00  0.00    -0.265 OA
BRANCH  21  23
HETATM   23  O1  UNL     1      41.461 162.776  56.413  1.00  0.00    -0.322 OA
BRANCH  23  24
HETATM   24  C2  UNL     1      42.445 161.920  56.964  1.00  0.00     0.174 C 
HETATM   25  C1  UNL     1      43.088 161.157  55.851  1.00  0.00     0.034 C 
ENDBRANCH  23  24
ENDBRANCH  21  23
ENDBRANCH  20  21
ENDBRANCH  19  20
ENDBRANCH  18  19
BRANCH  18  26
HETATM   26  C19 UNL     1      40.031 161.559  60.171  1.00  0.00     0.196 C 
HETATM   27  O6  UNL     1      40.205 162.217  61.228  1.00  0.00    -0.646 OA
HETATM   28  O7  UNL     1      40.421 160.226  60.188  1.00  0.00    -0.646 OA
ENDBRANCH  18  26
ENDBRANCH   1  18
TORSDOF 11
ENDMDL
MODEL 4
REMARK VINA RESULT: -7.889165557      2.200      4.508
REMARK  11 active torsions:
REMARK  status: ('A' for Active; 'I' for Inactive)
REMARK    1  A    between atoms: C2_2  and  O1_3 
REMARK    2  A    between atoms: O1_3  and  C3_4 
REMARK    3  A    between atoms: C3_4  and  C4_6 
REMARK    4  A    between atoms: C4_6  and  C5_7 
REMARK    5  A    between atoms: C5_7  and  C6_8 
REMARK    6  A    between atoms: C6_8  and  N1_9 
REMARK    7  A    between atoms: C6_8  and  C19_26 
REMARK       I    between atoms: N1_9  and  C7_11 
REMARK    8  A    between atoms: C7_11  and  C8_13 
REMARK    9  A    between atoms: C8_13  and  O4_15 
REMARK   10  A    between atoms: O4_15  and  C10_16 
REMARK   11  A    between atoms: C10_16  and  C11_18 
ROOT
HETATM    1  N1  UNL     1      38.122 161.957  58.516  1.00  0.00    -0.344 N 
ATOM      2  H1  UNL     1      37.356 162.591  58.746  1.00  0.00     0.163 HD
HETATM    3  C7  UNL     1      37.796 160.642  58.118  1.00  0.00     0.247 C 
HETATM    4  O3  UNL     1      38.702 159.829  57.828  1.00  0.00    -0.271 OA
ENDROOT
BRANCH   3   5
HETATM    5  C8  UNL     1      36.389 160.208  58.038  1.00  0.00     0.219 C 
HETATM    6  C9  UNL     1      35.492 161.379  57.617  1.00  0.00     0.050 C 
BRANCH   5   7
HETATM    7  O4  UNL     1      35.937 159.816  59.318  1.00  0.00    -0.306 OA
BRANCH   7   8
HETATM    8  C10 UNL     1      35.251 158.641  59.569  1.00  0.00     0.264 C 
HETATM    9  O5  UNL     1      35.706 157.923  60.509  1.00  0.00    -0.265 OA
BRANCH   8  10
HETATM   10  C11 UNL     1      34.052 158.215  58.805  1.00  0.00     0.095 A 
HETATM   11  C12 UNL     1      32.969 157.544  59.622  1.00  0.00     0.025 A 
HETATM   12  C13 UNL     1      32.774 158.917  59.079  1.00  0.00    -0.027 A 
HETATM   13  C14 UNL     1      32.844 160.119  59.947  1.00  0.00     0.010 C 
HETATM   14  C18 UNL     1      31.713 159.032  58.028  1.00  0.00     0.010 C 
HETATM   15  C15 UNL     1      31.718 161.049  59.649  1.00  0.00     0.001 C 
HETATM   16  C16 UNL     1      31.828 161.519  58.210  1.00  0.00     0.000 C 
HETATM   17  C17 UNL     1      31.791 160.336  57.262  1.00  0.00     0.001 C 
ENDBRANCH   8  10
ENDBRANCH   7   8
ENDBRANCH   5   7
ENDBRANCH   3   5
BRANCH   1  18
HETATM   18  C6  UNL     1      39.468 162.456  58.619  1.00  0.00     0.186 C 
BRANCH  18  19
HETATM   19  C5  UNL     1      39.512 163.922  58.239  1.00  0.00     0.046 C 
BRANCH  19  20
HETATM   20  C4  UNL     1      38.558 164.219  57.130  1.00  0.00     0.113 C 
BRANCH  20  21
HETATM   21  C3  UNL     1      37.433 165.044  57.614  1.00  0.00     0.258 C 
HETATM   22  O2  UNL     1      37.584 165.842  58.577  1.00  0.00    -0.265 OA
BRANCH  21  23
HETATM   23  O1  UNL     1      36.200 164.939  56.997  1.00  0.00    -0.322 OA
BRANCH  23  24
HETATM   24  C2  UNL     1      35.040 165.206  57.764  1.00  0.00     0.174 C 
HETATM   25  C1  UNL     1      33.918 164.372  57.236  1.00  0.00     0.034 C 
ENDBRANCH  23  24
ENDBRANCH  21  23
ENDBRANCH  20  21
ENDBRANCH  19  20
ENDBRANCH  18  19
BRANCH  18  26
HETATM   26  C19 UNL     1      40.016 162.325  59.973  1.00  0.00     0.196 C 
HETATM   27  O6  UNL     1      39.388 161.841  60.948  1.00  0.00    -0.646 OA
HETATM   28  O7  UNL     1      41.312 162.761  60.213  1.00  0.00    -0.646 OA
ENDBRANCH  18  26
ENDBRANCH   1  18
TORSDOF 11
ENDMDL
MODEL 5
REMARK VINA RESULT: -7.864593335      1.536      3.294
REMARK  11 active torsions:
REMARK  status: ('A' for Active; 'I' for Inactive)
REMARK    1  A    between atoms: C2_2  and  O1_3 
REMARK    2  A    between atoms: O1_3  and  C3_4 
REMARK    3  A    between atoms: C3_4  and  C4_6 
REMARK    4  A    between atoms: C4_6  and  C5_7 
REMARK    5  A    between atoms: C5_7  and  C6_8 
REMARK    6  A    between atoms: C6_8  and  N1_9 
REMARK    7  A    between atoms: C6_8  and  C19_26 
REMARK       I    between atoms: N1_9  and  C7_11 
REMARK    8  A    between atoms: C7_11  and  C8_13 
REMARK    9  A    between atoms: C8_13  and  O4_15 
REMARK   10  A    between atoms: O4_15  and  C10_16 
REMARK   11  A    between atoms: C10_16  and  C11_18 
ROOT
HETATM    1  N1  UNL     1      38.865 163.126  57.335  1.00  0.00    -0.344 N 
ATOM      2  H1  UNL     1      38.590 162.470  56.603  1.00  0.00     0.163 HD
HETATM    3  C7  UNL     1      37.929 164.108  57.730  1.00  0.00     0.247 C 
HETATM    4  O3  UNL     1      38.222 164.933  58.623  1.00  0.00    -0.271 OA
ENDROOT
BRANCH   3   5
HETATM    5  C8  UNL     1      36.599 164.175  57.097  1.00  0.00     0.219 C 
HETATM    6  C9  UNL     1      35.798 165.355  57.662  1.00  0.00     0.050 C 
BRANCH   5   7
HETATM    7  O4  UNL     1      35.858 163.016  57.417  1.00  0.00    -0.306 OA
BRANCH   7   8
HETATM    8  C10 UNL     1      34.545 162.808  57.035  1.00  0.00     0.264 C 
HETATM    9  O5  UNL     1      34.279 163.025  55.816  1.00  0.00    -0.265 OA
BRANCH   8  10
HETATM   10  C11 UNL     1      33.484 162.358  57.972  1.00  0.00     0.095 A 
HETATM   11  C12 UNL     1      32.319 161.635  57.331  1.00  0.00     0.025 A 
HETATM   12  C13 UNL     1      33.308 160.898  58.164  1.00  0.00    -0.027 A 
HETATM   13  C14 UNL     1      34.337 160.015  57.562  1.00  0.00     0.010 C 
HETATM   14  C18 UNL     1      32.763 160.347  59.446  1.00  0.00     0.010 C 
HETATM   15  C15 UNL     1      34.426 158.726  58.305  1.00  0.00     0.001 C 
HETATM   16  C16 UNL     1      34.847 159.006  59.737  1.00  0.00     0.000 C 
HETATM   17  C17 UNL     1      33.851 159.929  60.412  1.00  0.00     0.001 C 
ENDBRANCH   8  10
ENDBRANCH   7   8
ENDBRANCH   5   7
ENDBRANCH   3   5
BRANCH   1  18
HETATM   18  C6  UNL     1      40.180 162.994  57.902  1.00  0.00     0.186 C 
BRANCH  18  19
HETATM   19  C5  UNL     1      40.424 161.562  58.332  1.00  0.00     0.046 C 
BRANCH  19  20
HETATM   20  C4  UNL     1      39.365 161.097  59.276  1.00  0.00     0.113 C 
BRANCH  20  21
HETATM   21  C3  UNL     1      38.569 160.007  58.675  1.00  0.00     0.258 C 
HETATM   22  O2  UNL     1      37.872 160.207  57.645  1.00  0.00    -0.265 OA
BRANCH  21  23
HETATM   23  O1  UNL     1      38.594 158.751  59.254  1.00  0.00    -0.322 OA
BRANCH  23  24
HETATM   24  C2  UNL     1      37.968 157.683  58.568  1.00  0.00     0.174 C 
HETATM   25  C1  UNL     1      37.725 156.572  59.537  1.00  0.00     0.034 C 
ENDBRANCH  23  24
ENDBRANCH  21  23
ENDBRANCH  20  21
ENDBRANCH  19  20
ENDBRANCH  18  19
BRANCH  18  26
HETATM   26  C19 UNL     1      41.241 163.367  56.960  1.00  0.00     0.196 C 
HETATM   27  O6  UNL     1      41.780 164.502  56.912  1.00  0.00    -0.646 OA
HETATM   28  O7  UNL     1      41.691 162.418  56.052  1.00  0.00    -0.646 OA
ENDBRANCH  18  26
ENDBRANCH   1  18
TORSDOF 11
ENDMDL
