MODEL 1
REMARK VINA RESULT: -7.859356863      0.000      0.000
REMARK  11 active torsions:
REMARK  status: ('A' for Active; 'I' for Inactive)
REMARK    1  A    between atoms: C2_2  and  O1_3 
REMARK    2  A    between atoms: C2_2  and  C16_23 
REMARK    3  A    between atoms: O1_3  and  C3_4 
REMARK    4  A    between atoms: C3_4  and  C4_6 
REMARK    5  A    between atoms: C4_6  and  C5_7 
REMARK    6  A    between atoms: C5_7  and  C6_8 
REMARK    7  A    between atoms: C6_8  and  O4_10 
REMARK    8  A    between atoms: O4_10  and  C7_11 
REMARK    9  A    between atoms: C7_11  and  C8_12 
REMARK       I    between atoms: C8_12  and  N1_14 
REMARK   10  A    between atoms: N1_14  and  C9_16 
REMARK       I    between atoms: C16_23  and  N2_25 
REMARK   11  A    between atoms: N2_25  and  C17_27 
ROOT
HETATM    1  C6  UNL     1      37.087 164.951  57.536  1.00  0.00     0.259 C 
HETATM    2  O3  UNL     1      37.179 166.045  58.153  1.00  0.00    -0.265 OA
ENDROOT
BRANCH   1   3
HETATM    3  C5  UNL     1      38.278 164.101  57.393  1.00  0.00     0.121 C 
BRANCH   3   4
HETATM    4  C4  UNL     1      39.524 164.692  58.013  1.00  0.00     0.121 C 
BRANCH   4   5
HETATM    5  C3  UNL     1      40.695 163.981  57.443  1.00  0.00     0.260 C 
HETATM    6  O2  UNL     1      41.692 164.622  56.976  1.00  0.00    -0.265 OA
BRANCH   5   7
HETATM    7  O1  UNL     1      40.754 162.611  57.395  1.00  0.00    -0.307 OA
BRANCH   7   8
HETATM    8  C2  UNL     1      41.088 161.750  58.444  1.00  0.00     0.219 C 
HETATM    9  C1  UNL     1      41.673 162.589  59.571  1.00  0.00     0.050 C 
BRANCH   8  10
HETATM   10  C16 UNL     1      39.866 161.100  58.947  1.00  0.00     0.247 C 
HETATM   11  O6  UNL     1      39.667 160.989  60.167  1.00  0.00    -0.271 OA
HETATM   12  N2  UNL     1      38.914 160.597  58.032  1.00  0.00    -0.354 N 
ATOM     13  H2  UNL     1      39.085 160.691  57.031  1.00  0.00     0.162 HD
BRANCH  12  14
HETATM   14  C17 UNL     1      37.698 159.951  58.489  1.00  0.00     0.084 A 
HETATM   15  C18 UNL     1      37.004 158.990  57.559  1.00  0.00     0.027 A 
HETATM   16  C19 UNL     1      37.688 158.478  58.783  1.00  0.00     0.027 A 
ENDBRANCH  12  14
ENDBRANCH   8  10
ENDBRANCH   7   8
ENDBRANCH   5   7
ENDBRANCH   4   5
ENDBRANCH   3   4
ENDBRANCH   1   3
BRANCH   1  17
HETATM   17  O4  UNL     1      35.857 164.599  57.015  1.00  0.00    -0.312 OA
BRANCH  17  18
HETATM   18  C7  UNL     1      35.472 163.315  56.615  1.00  0.00     0.281 C 
BRANCH  18  19
HETATM   19  C8  UNL     1      34.378 162.722  57.409  1.00  0.00     0.242 C 
HETATM   20  O5  UNL     1      33.439 163.456  57.792  1.00  0.00    -0.271 OA
HETATM   21  N1  UNL     1      34.386 161.367  57.734  1.00  0.00    -0.345 N 
ATOM     22  H1  UNL     1      35.171 160.807  57.402  1.00  0.00     0.163 HD
BRANCH  21  23
HETATM   23  C9  UNL     1      33.354 160.686  58.512  1.00  0.00     0.154 C 
HETATM   24  C10 UNL     1      32.353 160.118  57.443  1.00  0.00     0.064 C 
HETATM   25  C11 UNL     1      32.472 158.602  57.325  1.00  0.00    -0.028 C 
HETATM   26  C12 UNL     1      32.231 157.714  58.426  1.00  0.00    -0.030 C 
HETATM   27  C13 UNL     1      33.339 157.245  59.365  1.00  0.00     0.038 C 
HETATM   28  C14 UNL     1      34.044 158.450  60.072  1.00  0.00     0.086 C 
HETATM   29  C15 UNL     1      33.714 159.597  59.327  1.00  0.00    -0.157 C 
ENDBRANCH  21  23
ENDBRANCH  18  19
ENDBRANCH  17  18
ENDBRANCH   1  17
TORSDOF 11
ENDMDL
MODEL 2
REMARK VINA RESULT: -7.855575812      1.770      4.155
REMARK  11 active torsions:
REMARK  status: ('A' for Active; 'I' for Inactive)
REMARK    1  A    between atoms: C2_2  and  O1_3 
REMARK    2  A    between atoms: C2_2  and  C16_23 
REMARK    3  A    between atoms: O1_3  and  C3_4 
REMARK    4  A    between atoms: C3_4  and  C4_6 
REMARK    5  A    between atoms: C4_6  and  C5_7 
REMARK    6  A    between atoms: C5_7  and  C6_8 
REMARK    7  A    between atoms: C6_8  and  O4_10 
REMARK    8  A    between atoms: O4_10  and  C7_11 
REMARK    9  A    between atoms: C7_11  and  C8_12 
REMARK       I    between atoms: C8_12  and  N1_14 
REMARK   10  A    between atoms: N1_14  and  C9_16 
REMARK       I    between atoms: C16_23  and  N2_25 
REMARK   11  A    between atoms: N2_25  and  C17_27 
ROOT
HETATM    1  C6  UNL     1      39.953 161.302  60.006  1.00  0.00     0.259 C 
HETATM    2  O3  UNL     1      39.372 161.875  60.965  1.00  0.00    -0.265 OA
ENDROOT
BRANCH   1   3
HETATM    3  C5  UNL     1      41.229 161.840  59.511  1.00  0.00     0.121 C 
BRANCH   3   4
HETATM    4  C4  UNL     1      41.136 163.266  59.017  1.00  0.00     0.121 C 
BRANCH   4   5
HETATM    5  C3  UNL     1      40.573 163.235  57.645  1.00  0.00     0.260 C 
HETATM    6  O2  UNL     1      41.115 162.538  56.726  1.00  0.00    -0.265 OA
BRANCH   5   7
HETATM    7  O1  UNL     1      39.452 163.951  57.308  1.00  0.00    -0.307 OA
BRANCH   7   8
HETATM    8  C2  UNL     1      38.236 163.975  57.997  1.00  0.00     0.219 C 
HETATM    9  C1  UNL     1      37.878 165.431  58.264  1.00  0.00     0.050 C 
BRANCH   8  10
HETATM   10  C16 UNL     1      37.183 163.396  57.146  1.00  0.00     0.247 C 
HETATM   11  O6  UNL     1      37.471 162.597  56.242  1.00  0.00    -0.271 OA
HETATM   12  N2  UNL     1      35.834 163.755  57.362  1.00  0.00    -0.354 N 
ATOM     13  H2  UNL     1      35.604 164.413  58.107  1.00  0.00     0.162 HD
BRANCH  12  14
HETATM   14  C17 UNL     1      34.768 163.205  56.546  1.00  0.00     0.084 A 
HETATM   15  C18 UNL     1      33.838 162.195  57.165  1.00  0.00     0.027 A 
HETATM   16  C19 UNL     1      33.336 163.560  56.830  1.00  0.00     0.027 A 
ENDBRANCH  12  14
ENDBRANCH   8  10
ENDBRANCH   7   8
ENDBRANCH   5   7
ENDBRANCH   4   5
ENDBRANCH   3   4
ENDBRANCH   1   3
BRANCH   1  17
HETATM   17  O4  UNL     1      39.357 160.182  59.459  1.00  0.00    -0.312 OA
BRANCH  17  18
HETATM   18  C7  UNL     1      38.338 160.179  58.502  1.00  0.00     0.281 C 
BRANCH  18  19
HETATM   19  C8  UNL     1      37.245 159.223  58.767  1.00  0.00     0.242 C 
HETATM   20  O5  UNL     1      37.529 158.025  58.996  1.00  0.00    -0.271 OA
HETATM   21  N1  UNL     1      35.915 159.639  58.761  1.00  0.00    -0.345 N 
ATOM     22  H1  UNL     1      35.730 160.623  58.569  1.00  0.00     0.163 HD
BRANCH  21  23
HETATM   23  C9  UNL     1      34.765 158.774  59.011  1.00  0.00     0.154 C 
HETATM   24  C10 UNL     1      34.000 159.457  60.201  1.00  0.00     0.064 C 
HETATM   25  C11 UNL     1      32.701 160.100  59.726  1.00  0.00    -0.028 C 
HETATM   26  C12 UNL     1      31.641 159.354  59.110  1.00  0.00    -0.030 C 
HETATM   27  C13 UNL     1      31.536 159.165  57.599  1.00  0.00     0.038 C 
HETATM   28  C14 UNL     1      32.807 158.460  57.017  1.00  0.00     0.086 C 
HETATM   29  C15 UNL     1      33.813 158.584  57.992  1.00  0.00    -0.157 C 
ENDBRANCH  21  23
ENDBRANCH  18  19
ENDBRANCH  17  18
ENDBRANCH   1  17
TORSDOF 11
ENDMDL
MODEL 3
REMARK VINA RESULT: -7.754203102      1.213      1.479
REMARK  11 active torsions:
REMARK  status: ('A' for Active; 'I' for Inactive)
REMARK    1  A    between atoms: C2_2  and  O1_3 
REMARK    2  A    between atoms: C2_2  and  C16_23 
REMARK    3  A    between atoms: O1_3  and  C3_4 
REMARK    4  A    between atoms: C3_4  and  C4_6 
REMARK    5  A    between atoms: C4_6  and  C5_7 
REMARK    6  A    between atoms: C5_7  and  C6_8 
REMARK    7  A    between atoms: C6_8  and  O4_10 
REMARK    8  A    between atoms: O4_10  and  C7_11 
REMARK    9  A    between atoms: C7_11  and  C8_12 
REMARK       I    between atoms: C8_12  and  N1_14 
REMARK   10  A    between atoms: N1_14  and  C9_16 
REMARK       I    between atoms: C16_23  and  N2_25 
REMARK   11  A    between atoms: N2_25  and  C17_27 
ROOT
HETATM    1  C6  UNL     1      36.667 163.555  56.901  1.00  0.00     0.259 C 
HETATM    2  O3  UNL     1      37.170 162.569  56.300  1.00  0.00    -0.265 OA
ENDROOT
BRANCH   1   3
HETATM    3  C5  UNL     1      37.506 164.352  57.808  1.00  0.00     0.121 C 
BRANCH   3   4
HETATM    4  C4  UNL     1      38.782 164.855  57.171  1.00  0.00     0.121 C 
BRANCH   4   5
HETATM    5  C3  UNL     1      39.914 164.441  58.035  1.00  0.00     0.260 C 
HETATM    6  O2  UNL     1      41.118 164.719  57.723  1.00  0.00    -0.265 OA
BRANCH   5   7
HETATM    7  O1  UNL     1      39.716 163.744  59.200  1.00  0.00    -0.307 OA
BRANCH   7   8
HETATM    8  C2  UNL     1      40.317 162.536  59.566  1.00  0.00     0.219 C 
HETATM    9  C1  UNL     1      39.882 162.208  60.988  1.00  0.00     0.050 C 
BRANCH   8  10
HETATM   10  C16 UNL     1      39.832 161.463  58.682  1.00  0.00     0.247 C 
HETATM   11  O6  UNL     1      40.524 161.067  57.732  1.00  0.00    -0.271 OA
HETATM   12  N2  UNL     1      38.567 160.880  58.920  1.00  0.00    -0.354 N 
ATOM     13  H2  UNL     1      38.003 161.211  59.703  1.00  0.00     0.162 HD
BRANCH  12  14
HETATM   14  C17 UNL     1      38.054 159.821  58.072  1.00  0.00     0.084 A 
HETATM   15  C18 UNL     1      37.542 158.564  58.725  1.00  0.00     0.027 A 
HETATM   16  C19 UNL     1      36.586 159.500  58.064  1.00  0.00     0.027 A 
ENDBRANCH  12  14
ENDBRANCH   8  10
ENDBRANCH   7   8
ENDBRANCH   5   7
ENDBRANCH   4   5
ENDBRANCH   3   4
ENDBRANCH   1   3
BRANCH   1  17
HETATM   17  O4  UNL     1      35.335 163.844  56.677  1.00  0.00    -0.312 OA
BRANCH  17  18
HETATM   18  C7  UNL     1      34.369 162.950  56.205  1.00  0.00     0.281 C 
BRANCH  18  19
HETATM   19  C8  UNL     1      33.457 162.423  57.240  1.00  0.00     0.242 C 
HETATM   20  O5  UNL     1      32.634 163.199  57.776  1.00  0.00    -0.271 OA
HETATM   21  N1  UNL     1      33.506 161.084  57.621  1.00  0.00    -0.345 N 
ATOM     22  H1  UNL     1      34.193 160.488  57.158  1.00  0.00     0.163 HD
BRANCH  21  23
HETATM   23  C9  UNL     1      32.650 160.467  58.631  1.00  0.00     0.154 C 
HETATM   24  C10 UNL     1      31.376 159.995  57.843  1.00  0.00     0.064 C 
HETATM   25  C11 UNL     1      31.345 158.476  57.700  1.00  0.00    -0.028 C 
HETATM   26  C12 UNL     1      31.316 157.589  58.827  1.00  0.00    -0.030 C 
HETATM   27  C13 UNL     1      32.583 157.021  59.463  1.00  0.00     0.038 C 
HETATM   28  C14 UNL     1      33.530 158.158  59.973  1.00  0.00     0.086 C 
HETATM   29  C15 UNL     1      33.116 159.340  59.332  1.00  0.00    -0.157 C 
ENDBRANCH  21  23
ENDBRANCH  18  19
ENDBRANCH  17  18
ENDBRANCH   1  17
TORSDOF 11
ENDMDL
MODEL 4
REMARK VINA RESULT: -7.728296293      2.077      6.949
REMARK  11 active torsions:
REMARK  status: ('A' for Active; 'I' for Inactive)
REMARK    1  A    between atoms: C2_2  and  O1_3 
REMARK    2  A    between atoms: C2_2  and  C16_23 
REMARK    3  A    between atoms: O1_3  and  C3_4 
REMARK    4  A    between atoms: C3_4  and  C4_6 
REMARK    5  A    between atoms: C4_6  and  C5_7 
REMARK    6  A    between atoms: C5_7  and  C6_8 
REMARK    7  A    between atoms: C6_8  and  O4_10 
REMARK    8  A    between atoms: O4_10  and  C7_11 
REMARK    9  A    between atoms: C7_11  and  C8_12 
REMARK       I    between atoms: C8_12  and  N1_14 
REMARK   10  A    between atoms: N1_14  and  C9_16 
REMARK       I    between atoms: C16_23  and  N2_25 
REMARK   11  A    between atoms: N2_25  and  C17_27 
ROOT
HETATM    1  C6  UNL     1      35.651 162.948  56.593  1.00  0.00     0.259 C 
HETATM    2  O3  UNL     1      36.562 162.490  55.854  1.00  0.00    -0.265 OA
ENDROOT
BRANCH   1   3
HETATM    3  C5  UNL     1      34.254 162.568  56.336  1.00  0.00     0.121 C 
BRANCH   3   4
HETATM    4  C4  UNL     1      33.269 163.190  57.300  1.00  0.00     0.121 C 
BRANCH   4   5
HETATM    5  C3  UNL     1      32.513 162.089  57.947  1.00  0.00     0.260 C 
HETATM    6  O2  UNL     1      31.325 162.266  58.372  1.00  0.00    -0.265 OA
BRANCH   5   7
HETATM    7  O1  UNL     1      33.058 160.842  58.116  1.00  0.00    -0.307 OA
BRANCH   7   8
HETATM    8  C2  UNL     1      33.145 160.120  59.311  1.00  0.00     0.219 C 
HETATM    9  C1  UNL     1      32.221 158.916  59.199  1.00  0.00     0.050 C 
BRANCH   8  10
HETATM   10  C16 UNL     1      34.521 159.625  59.481  1.00  0.00     0.247 C 
HETATM   11  O6  UNL     1      34.823 158.927  60.461  1.00  0.00    -0.271 OA
HETATM   12  N2  UNL     1      35.504 159.948  58.519  1.00  0.00    -0.354 N 
ATOM     13  H2  UNL     1      35.248 160.523  57.716  1.00  0.00     0.162 HD
BRANCH  12  14
HETATM   14  C17 UNL     1      36.870 159.479  58.651  1.00  0.00     0.084 A 
HETATM   15  C18 UNL     1      37.620 159.095  57.402  1.00  0.00     0.027 A 
HETATM   16  C19 UNL     1      38.012 160.322  58.158  1.00  0.00     0.027 A 
ENDBRANCH  12  14
ENDBRANCH   8  10
ENDBRANCH   7   8
ENDBRANCH   5   7
ENDBRANCH   4   5
ENDBRANCH   3   4
ENDBRANCH   1   3
BRANCH   1  17
HETATM   17  O4  UNL     1      36.013 163.796  57.622  1.00  0.00    -0.312 OA
BRANCH  17  18
HETATM   18  C7  UNL     1      36.577 165.067  57.479  1.00  0.00     0.281 C 
BRANCH  18  19
HETATM   19  C8  UNL     1      37.995 165.162  57.879  1.00  0.00     0.242 C 
HETATM   20  O5  UNL     1      38.353 166.102  58.625  1.00  0.00    -0.271 OA
HETATM   21  N1  UNL     1      38.926 164.225  57.436  1.00  0.00    -0.345 N 
ATOM     22  H1  UNL     1      38.590 163.478  56.829  1.00  0.00     0.163 HD
BRANCH  21  23
HETATM   23  C9  UNL     1      40.347 164.231  57.774  1.00  0.00     0.154 C 
HETATM   24  C10 UNL     1      40.420 163.602  59.212  1.00  0.00     0.064 C 
HETATM   25  C11 UNL     1      41.011 162.197  59.171  1.00  0.00    -0.028 C 
HETATM   26  C12 UNL     1      42.333 161.921  58.683  1.00  0.00    -0.030 C 
HETATM   27  C13 UNL     1      42.616 161.562  57.226  1.00  0.00     0.038 C 
HETATM   28  C14 UNL     1      42.141 162.691  56.252  1.00  0.00     0.086 C 
HETATM   29  C15 UNL     1      41.246 163.496  56.980  1.00  0.00    -0.157 C 
ENDBRANCH  21  23
ENDBRANCH  18  19
ENDBRANCH  17  18
ENDBRANCH   1  17
TORSDOF 11
ENDMDL
MODEL 5
REMARK VINA RESULT: -7.720640421      1.737      2.376
REMARK  11 active torsions:
REMARK  status: ('A' for Active; 'I' for Inactive)
REMARK    1  A    between atoms: C2_2  and  O1_3 
REMARK    2  A    between atoms: C2_2  and  C16_23 
REMARK    3  A    between atoms: O1_3  and  C3_4 
REMARK    4  A    between atoms: C3_4  and  C4_6 
REMARK    5  A    between atoms: C4_6  and  C5_7 
REMARK    6  A    between atoms: C5_7  and  C6_8 
REMARK    7  A    between atoms: C6_8  and  O4_10 
REMARK    8  A    between atoms: O4_10  and  C7_11 
REMARK    9  A    between atoms: C7_11  and  C8_12 
REMARK       I    between atoms: C8_12  and  N1_14 
REMARK   10  A    between atoms: N1_14  and  C9_16 
REMARK       I    between atoms: C16_23  and  N2_25 
REMARK   11  A    between atoms: N2_25  and  C17_27 
ROOT
HETATM    1  C6  UNL     1      38.895 164.797  58.064  1.00  0.00     0.259 C 
HETATM    2  O3  UNL     1      38.457 165.602  58.928  1.00  0.00    -0.265 OA
ENDROOT
BRANCH   1   3
HETATM    3  C5  UNL     1      40.321 164.438  58.071  1.00  0.00     0.121 C 
BRANCH   3   4
HETATM    4  C4  UNL     1      40.681 163.363  57.070  1.00  0.00     0.121 C 
BRANCH   4   5
HETATM    5  C3  UNL     1      41.039 162.139  57.828  1.00  0.00     0.260 C 
HETATM    6  O2  UNL     1      41.403 161.075  57.229  1.00  0.00    -0.265 OA
BRANCH   5   7
HETATM    7  O1  UNL     1      40.991 162.099  59.198  1.00  0.00    -0.307 OA
BRANCH   7   8
HETATM    8  C2  UNL     1      40.190 161.267  59.985  1.00  0.00     0.219 C 
HETATM    9  C1  UNL     1      39.797 162.040  61.236  1.00  0.00     0.050 C 
BRANCH   8  10
HETATM   10  C16 UNL     1      38.959 160.938  59.248  1.00  0.00     0.247 C 
HETATM   11  O6  UNL     1      38.006 161.732  59.225  1.00  0.00    -0.271 OA
HETATM   12  N2  UNL     1      38.863 159.706  58.562  1.00  0.00    -0.354 N 
ATOM     13  H2  UNL     1      39.650 159.057  58.586  1.00  0.00     0.162 HD
BRANCH  12  14
HETATM   14  C17 UNL     1      37.667 159.346  57.824  1.00  0.00     0.084 A 
HETATM   15  C18 UNL     1      37.759 158.241  56.804  1.00  0.00     0.027 A 
HETATM   16  C19 UNL     1      36.995 158.024  58.068  1.00  0.00     0.027 A 
ENDBRANCH  12  14
ENDBRANCH   8  10
ENDBRANCH   7   8
ENDBRANCH   5   7
ENDBRANCH   4   5
ENDBRANCH   3   4
ENDBRANCH   1   3
BRANCH   1  17
HETATM   17  O4  UNL     1      38.005 164.284  57.141  1.00  0.00    -0.312 OA
BRANCH  17  18
HETATM   18  C7  UNL     1      36.623 164.500  57.124  1.00  0.00     0.281 C 
BRANCH  18  19
HETATM   19  C8  UNL     1      35.814 163.303  56.825  1.00  0.00     0.242 C 
HETATM   20  O5  UNL     1      36.182 162.535  55.907  1.00  0.00    -0.271 OA
HETATM   21  N1  UNL     1      34.655 163.025  57.548  1.00  0.00    -0.345 N 
ATOM     22  H1  UNL     1      34.393 163.679  58.286  1.00  0.00     0.163 HD
BRANCH  21  23
HETATM   23  C9  UNL     1      33.788 161.870  57.331  1.00  0.00     0.154 C 
HETATM   24  C10 UNL     1      34.486 160.694  58.103  1.00  0.00     0.064 C 
HETATM   25  C11 UNL     1      33.714 160.327  59.366  1.00  0.00    -0.028 C 
HETATM   26  C12 UNL     1      32.353 159.872  59.343  1.00  0.00    -0.030 C 
HETATM   27  C13 UNL     1      31.164 160.821  59.472  1.00  0.00     0.038 C 
HETATM   28  C14 UNL     1      31.162 161.899  58.337  1.00  0.00     0.086 C 
HETATM   29  C15 UNL     1      32.461 161.910  57.796  1.00  0.00    -0.157 C 
ENDBRANCH  21  23
ENDBRANCH  18  19
ENDBRANCH  17  18
ENDBRANCH   1  17
TORSDOF 11
ENDMDL
