MODEL 1
REMARK VINA RESULT: -8.679627470      0.000      0.000
REMARK  14 active torsions:
REMARK  status: ('A' for Active; 'I' for Inactive)
REMARK    1  A    between atoms: N3_7  and  C2_8 
REMARK    2  A    between atoms: C5_12  and  O2_13 
REMARK    3  A    between atoms: C9_21  and  O3_22 
REMARK    4  A    between atoms: C11_25  and  O4_26 
REMARK    5  A    between atoms: C12_28  and  O5_29 
REMARK    6  A    between atoms: C13_31  and  C14_32 
REMARK       I    between atoms: C14_32  and  N6_34 
REMARK       I    between atoms: N6_34  and  C15_36 
REMARK    7  A    between atoms: C15_36  and  C16_38 
REMARK    8  A    between atoms: C16_38  and  N7_39 
REMARK    9  A    between atoms: N7_39  and  C17_41 
REMARK   10  A    between atoms: C17_41  and  O8_42 
REMARK   11  A    between atoms: C17_41  and  C18_44 
REMARK   12  A    between atoms: C18_44  and  N8_45 
REMARK   13  A    between atoms: C18_44  and  C19_49 
REMARK   14  A    between atoms: C19_49  and  O9_50 
ROOT
HETATM    1  N1  UNL     1       6.286  14.625  44.792  1.00  0.00    -0.382 N 
ATOM      2  H11 UNL     1       5.452  14.207  44.380  1.00  0.00     0.157 HD
ATOM      3  H12 UNL     1       6.177  14.676  45.805  1.00  0.00     0.157 HD
HETATM    4  C1  UNL     1       7.284  15.002  44.040  1.00  0.00     0.145 A 
HETATM    5  N2  UNL     1       8.359  15.541  44.570  1.00  0.00    -0.277 N 
ATOM      6  H2  UNL     1       8.521  15.714  45.563  1.00  0.00     0.189 HD
HETATM    7  N3  UNL     1       9.183  15.815  43.594  1.00  0.00    -0.235 N 
HETATM    8  C6  UNL     1       8.670  15.462  42.378  1.00  0.00     0.194 A 
HETATM    9  C7  UNL     1       7.436  14.931  42.639  1.00  0.00     0.131 A 
HETATM   10  N4  UNL     1       6.445  14.390  41.828  1.00  0.00    -0.346 N 
ATOM     11  H4  UNL     1       5.969  13.716  42.429  1.00  0.00     0.167 HD
HETATM   12  C8  UNL     1       5.859  14.313  40.771  1.00  0.00     0.181 C 
HETATM   13  N5  UNL     1       5.911  14.894  39.494  1.00  0.00    -0.337 N 
HETATM   14  C9  UNL     1       5.509  15.927  38.491  1.00  0.00     0.247 A 
HETATM   15  C10 UNL     1       6.405  14.879  38.222  1.00  0.00     0.167 A 
HETATM   16  C11 UNL     1       7.920  15.096  37.980  1.00  0.00     0.177 C 
HETATM   17  C12 UNL     1       8.454  15.318  39.277  1.00  0.00     0.187 C 
HETATM   18  C13 UNL     1       9.719  15.315  39.987  1.00  0.00     0.254 C 
HETATM   19  O10 UNL     1       9.398  15.681  41.278  1.00  0.00    -0.315 OA
ENDROOT
BRANCH  18  20
HETATM   20  C14 UNL     1      10.605  16.419  39.443  1.00  0.00     0.256 C 
HETATM   21  O6  UNL     1      10.428  17.626  39.712  1.00  0.00    -0.270 OA
HETATM   22  N6  UNL     1      11.680  16.063  38.590  1.00  0.00    -0.291 N 
HETATM   23  C15 UNL     1      12.537  17.062  38.013  1.00  0.00     0.263 C 
ATOM     24  H6  UNL     1      11.849  15.078  38.382  1.00  0.00     0.172 HD
HETATM   25  O7  UNL     1      12.333  18.246  38.288  1.00  0.00    -0.267 OA
BRANCH  23  26
HETATM   26  C16 UNL     1      13.624  16.645  37.112  1.00  0.00     0.160 C 
BRANCH  26  27
HETATM   27  N7  UNL     1      14.881  16.395  37.627  1.00  0.00    -0.367 N 
ATOM     28  H7  UNL     1      15.521  17.175  37.771  1.00  0.00     0.161 HD
BRANCH  27  29
HETATM   29  C17 UNL     1      15.298  15.110  37.954  1.00  0.00     0.250 C 
BRANCH  29  30
HETATM   30  O8  UNL     1      16.357  14.628  37.228  1.00  0.00    -0.375 OA
ATOM     31  H8  UNL     1      16.253  14.652  36.284  1.00  0.00     0.212 HD
ENDBRANCH  29  30
BRANCH  29  32
HETATM   32  C18 UNL     1      15.619  14.869  39.420  1.00  0.00     0.255 C 
BRANCH  32  33
HETATM   33  N8  UNL     1      16.509  15.827  39.981  1.00  0.00    -0.069 N 
ATOM     34  H83 UNL     1      17.327  15.949  39.383  1.00  0.00     0.275 HD
ATOM     35  H82 UNL     1      16.110  16.764  39.921  1.00  0.00     0.275 HD
ATOM     36  H81 UNL     1      16.793  15.617  40.938  1.00  0.00     0.275 HD
ENDBRANCH  32  33
BRANCH  32  37
HETATM   37  C19 UNL     1      14.356  14.681  40.244  1.00  0.00     0.201 C 
BRANCH  37  38
HETATM   38  O9  UNL     1      13.373  14.019  39.515  1.00  0.00    -0.399 OA
ATOM     39  H9  UNL     1      12.986  14.591  38.863  1.00  0.00     0.209 HD
ENDBRANCH  37  38
ENDBRANCH  32  37
ENDBRANCH  29  32
ENDBRANCH  27  29
ENDBRANCH  26  27
ENDBRANCH  23  26
ENDBRANCH  18  20
BRANCH  17  40
HETATM   40  O5  UNL     1       7.937  16.532  39.664  1.00  0.00    -0.390 OA
ATOM     41  H5  UNL     1       8.507  16.823  40.366  1.00  0.00     0.210 HD
ENDBRANCH  17  40
BRANCH  16  42
HETATM   42  O4  UNL     1       8.068  16.211  37.122  1.00  0.00    -0.391 OA
ATOM     43  H4  UNL     1       8.276  16.967  37.658  1.00  0.00     0.210 HD
ENDBRANCH  16  42
BRANCH   7  44
HETATM   44  C2  UNL     1      10.501  16.439  43.909  1.00  0.00     0.275 C 
HETATM   45  O1  UNL     1      10.569  17.644  43.216  1.00  0.00    -0.362 OA
HETATM   46  C3  UNL     1      11.876  17.939  42.946  1.00  0.00     0.173 C 
HETATM   47  C4  UNL     1      12.708  16.731  43.239  1.00  0.00     0.062 C 
HETATM   48  C5  UNL     1      11.617  15.652  43.355  1.00  0.00     0.170 C 
BRANCH  48  49
HETATM   49  O2  UNL     1      12.080  14.645  44.204  1.00  0.00    -0.391 OA
ATOM     50  H2  UNL     1      12.937  14.817  44.576  1.00  0.00     0.210 HD
ENDBRANCH  48  49
ENDBRANCH   7  44
BRANCH  14  51
HETATM   51  O3  UNL     1       4.244  15.883  37.914  1.00  0.00    -0.374 OA
ATOM     52  H3  UNL     1       4.144  15.634  37.003  1.00  0.00     0.212 HD
ENDBRANCH  14  51
TORSDOF 14
ENDMDL
MODEL 2
REMARK VINA RESULT: -8.659031612      1.237      1.922
REMARK  14 active torsions:
REMARK  status: ('A' for Active; 'I' for Inactive)
REMARK    1  A    between atoms: N3_7  and  C2_8 
REMARK    2  A    between atoms: C5_12  and  O2_13 
REMARK    3  A    between atoms: C9_21  and  O3_22 
REMARK    4  A    between atoms: C11_25  and  O4_26 
REMARK    5  A    between atoms: C12_28  and  O5_29 
REMARK    6  A    between atoms: C13_31  and  C14_32 
REMARK       I    between atoms: C14_32  and  N6_34 
REMARK       I    between atoms: N6_34  and  C15_36 
REMARK    7  A    between atoms: C15_36  and  C16_38 
REMARK    8  A    between atoms: C16_38  and  N7_39 
REMARK    9  A    between atoms: N7_39  and  C17_41 
REMARK   10  A    between atoms: C17_41  and  O8_42 
REMARK   11  A    between atoms: C17_41  and  C18_44 
REMARK   12  A    between atoms: C18_44  and  N8_45 
REMARK   13  A    between atoms: C18_44  and  C19_49 
REMARK   14  A    between atoms: C19_49  and  O9_50 
ROOT
HETATM    1  N1  UNL     1       6.970  14.990  44.702  1.00  0.00    -0.382 N 
ATOM      2  H11 UNL     1       5.997  14.693  44.638  1.00  0.00     0.157 HD
ATOM      3  H12 UNL     1       7.209  15.166  45.678  1.00  0.00     0.157 HD
HETATM    4  C1  UNL     1       7.708  15.094  43.630  1.00  0.00     0.145 A 
HETATM    5  N2  UNL     1       8.963  15.476  43.712  1.00  0.00    -0.277 N 
ATOM      6  H2  UNL     1       9.465  15.719  44.566  1.00  0.00     0.189 HD
HETATM    7  N3  UNL     1       9.449  15.488  42.499  1.00  0.00    -0.235 N 
HETATM    8  C6  UNL     1       8.520  15.111  41.572  1.00  0.00     0.194 A 
HETATM    9  C7  UNL     1       7.378  14.850  42.280  1.00  0.00     0.131 A 
HETATM   10  N4  UNL     1       6.109  14.420  41.910  1.00  0.00    -0.346 N 
ATOM     11  H4  UNL     1       5.767  13.913  42.726  1.00  0.00     0.167 HD
HETATM   12  C8  UNL     1       5.203  14.343  41.110  1.00  0.00     0.181 C 
HETATM   13  N5  UNL     1       4.913  14.767  39.803  1.00  0.00    -0.337 N 
HETATM   14  C9  UNL     1       4.355  15.745  38.821  1.00  0.00     0.247 A 
HETATM   15  C10 UNL     1       4.953  14.527  38.460  1.00  0.00     0.167 A 
HETATM   16  C11 UNL     1       6.319  14.432  37.734  1.00  0.00     0.177 C 
HETATM   17  C12 UNL     1       7.276  14.685  38.751  1.00  0.00     0.187 C 
HETATM   18  C13 UNL     1       8.690  14.521  39.029  1.00  0.00     0.254 C 
HETATM   19  O10 UNL     1       8.868  15.074  40.282  1.00  0.00    -0.315 OA
ENDROOT
BRANCH  18  20
HETATM   20  C14 UNL     1       9.495  15.378  38.071  1.00  0.00     0.256 C 
HETATM   21  O6  UNL     1       9.119  15.631  36.907  1.00  0.00    -0.270 OA
HETATM   22  N6  UNL     1      10.730  15.912  38.518  1.00  0.00    -0.291 N 
HETATM   23  C15 UNL     1      11.558  16.703  37.650  1.00  0.00     0.263 C 
ATOM     24  H6  UNL     1      11.036  15.732  39.475  1.00  0.00     0.172 HD
HETATM   25  O7  UNL     1      11.166  16.930  36.503  1.00  0.00    -0.267 OA
BRANCH  23  26
HETATM   26  C16 UNL     1      12.844  17.215  38.152  1.00  0.00     0.160 C 
BRANCH  26  27
HETATM   27  N7  UNL     1      13.293  16.833  39.400  1.00  0.00    -0.367 N 
ATOM     28  H7  UNL     1      13.025  17.387  40.214  1.00  0.00     0.161 HD
BRANCH  27  29
HETATM   29  C17 UNL     1      14.100  15.716  39.580  1.00  0.00     0.250 C 
BRANCH  29  30
HETATM   30  O8  UNL     1      13.568  14.526  39.152  1.00  0.00    -0.375 OA
ATOM     31  H8  UNL     1      13.986  13.744  39.493  1.00  0.00     0.212 HD
ENDBRANCH  29  30
BRANCH  29  32
HETATM   32  C18 UNL     1      15.502  15.809  39.002  1.00  0.00     0.255 C 
BRANCH  32  33
HETATM   33  N8  UNL     1      16.535  15.691  39.974  1.00  0.00    -0.069 N 
ATOM     34  H83 UNL     1      16.566  16.520  40.567  1.00  0.00     0.275 HD
ATOM     35  H82 UNL     1      16.292  14.988  40.672  1.00  0.00     0.275 HD
ATOM     36  H81 UNL     1      17.456  15.499  39.577  1.00  0.00     0.275 HD
ENDBRANCH  32  33
BRANCH  32  37
HETATM   37  C19 UNL     1      15.685  14.863  37.826  1.00  0.00     0.201 C 
BRANCH  37  38
HETATM   38  O9  UNL     1      16.408  13.734  38.196  1.00  0.00    -0.399 OA
ATOM     39  H9  UNL     1      15.892  13.163  38.753  1.00  0.00     0.209 HD
ENDBRANCH  37  38
ENDBRANCH  32  37
ENDBRANCH  29  32
ENDBRANCH  27  29
ENDBRANCH  26  27
ENDBRANCH  23  26
ENDBRANCH  18  20
BRANCH  17  40
HETATM   40  O5  UNL     1       7.094  16.008  39.080  1.00  0.00    -0.390 OA
ATOM     41  H5  UNL     1       6.892  16.000  40.008  1.00  0.00     0.210 HD
ENDBRANCH  17  40
BRANCH  16  42
HETATM   42  O4  UNL     1       6.333  15.403  36.705  1.00  0.00    -0.391 OA
ATOM     43  H4  UNL     1       6.477  16.252  37.107  1.00  0.00     0.210 HD
ENDBRANCH  16  42
BRANCH   7  44
HETATM   44  C2  UNL     1      10.872  15.886  42.291  1.00  0.00     0.275 C 
HETATM   45  O1  UNL     1      11.589  15.471  43.409  1.00  0.00    -0.362 OA
HETATM   46  C3  UNL     1      12.665  16.294  43.589  1.00  0.00     0.173 C 
HETATM   47  C4  UNL     1      12.508  17.486  42.701  1.00  0.00     0.062 C 
HETATM   48  C5  UNL     1      11.029  17.352  42.298  1.00  0.00     0.170 C 
BRANCH  48  49
HETATM   49  O2  UNL     1      10.855  17.949  41.048  1.00  0.00    -0.391 OA
ATOM     50  H2  UNL     1      10.057  18.457  40.970  1.00  0.00     0.210 HD
ENDBRANCH  48  49
ENDBRANCH   7  44
BRANCH  14  51
HETATM   51  O3  UNL     1       2.977  15.877  38.674  1.00  0.00    -0.374 OA
ATOM     52  H3  UNL     1       2.559  15.629  37.859  1.00  0.00     0.212 HD
ENDBRANCH  14  51
TORSDOF 14
ENDMDL
MODEL 3
REMARK VINA RESULT: -8.534436410      3.534      7.500
REMARK  14 active torsions:
REMARK  status: ('A' for Active; 'I' for Inactive)
REMARK    1  A    between atoms: N3_7  and  C2_8 
REMARK    2  A    between atoms: C5_12  and  O2_13 
REMARK    3  A    between atoms: C9_21  and  O3_22 
REMARK    4  A    between atoms: C11_25  and  O4_26 
REMARK    5  A    between atoms: C12_28  and  O5_29 
REMARK    6  A    between atoms: C13_31  and  C14_32 
REMARK       I    between atoms: C14_32  and  N6_34 
REMARK       I    between atoms: N6_34  and  C15_36 
REMARK    7  A    between atoms: C15_36  and  C16_38 
REMARK    8  A    between atoms: C16_38  and  N7_39 
REMARK    9  A    between atoms: N7_39  and  C17_41 
REMARK   10  A    between atoms: C17_41  and  O8_42 
REMARK   11  A    between atoms: C17_41  and  C18_44 
REMARK   12  A    between atoms: C18_44  and  N8_45 
REMARK   13  A    between atoms: C18_44  and  C19_49 
REMARK   14  A    between atoms: C19_49  and  O9_50 
ROOT
HETATM    1  N1  UNL     1      16.733  14.236  40.669  1.00  0.00    -0.382 N 
ATOM      2  H11 UNL     1      16.570  14.411  41.660  1.00  0.00     0.157 HD
ATOM      3  H12 UNL     1      17.676  13.867  40.540  1.00  0.00     0.157 HD
HETATM    4  C1  UNL     1      15.806  14.485  39.785  1.00  0.00     0.145 A 
HETATM    5  N2  UNL     1      16.017  14.259  38.507  1.00  0.00    -0.277 N 
ATOM      6  H2  UNL     1      16.873  13.891  38.093  1.00  0.00     0.189 HD
HETATM    7  N3  UNL     1      14.929  14.594  37.865  1.00  0.00    -0.235 N 
HETATM    8  C6  UNL     1      13.959  15.054  38.708  1.00  0.00     0.194 A 
HETATM    9  C7  UNL     1      14.502  14.995  39.963  1.00  0.00     0.131 A 
HETATM   10  N4  UNL     1      14.014  15.311  41.225  1.00  0.00    -0.346 N 
ATOM     11  H4  UNL     1      14.520  14.687  41.854  1.00  0.00     0.167 HD
HETATM   12  C8  UNL     1      13.292  15.951  41.957  1.00  0.00     0.181 C 
HETATM   13  N5  UNL     1      12.330  16.970  41.860  1.00  0.00    -0.337 N 
HETATM   14  C9  UNL     1      11.917  18.406  41.858  1.00  0.00     0.247 A 
HETATM   15  C10 UNL     1      11.025  17.333  41.699  1.00  0.00     0.167 A 
HETATM   16  C11 UNL     1      10.296  17.022  40.367  1.00  0.00     0.177 C 
HETATM   17  C12 UNL     1      11.290  16.411  39.558  1.00  0.00     0.187 C 
HETATM   18  C13 UNL     1      11.423  15.595  38.366  1.00  0.00     0.254 C 
HETATM   19  O10 UNL     1      12.784  15.437  38.198  1.00  0.00    -0.315 OA
ENDROOT
BRANCH  18  20
HETATM   20  C14 UNL     1      10.937  16.378  37.162  1.00  0.00     0.256 C 
HETATM   21  O6  UNL     1      10.089  17.292  37.244  1.00  0.00    -0.270 OA
HETATM   22  N6  UNL     1      11.467  16.055  35.888  1.00  0.00    -0.291 N 
HETATM   23  C15 UNL     1      11.025  16.735  34.702  1.00  0.00     0.263 C 
ATOM     24  H6  UNL     1      12.177  15.326  35.811  1.00  0.00     0.172 HD
HETATM   25  O7  UNL     1      10.181  17.627  34.811  1.00  0.00    -0.267 OA
BRANCH  23  26
HETATM   26  C16 UNL     1      11.587  16.347  33.397  1.00  0.00     0.160 C 
BRANCH  26  27
HETATM   27  N7  UNL     1      12.458  17.197  32.747  1.00  0.00    -0.367 N 
ATOM     28  H7  UNL     1      13.440  17.207  33.025  1.00  0.00     0.161 HD
BRANCH  27  29
HETATM   29  C17 UNL     1      12.037  18.040  31.726  1.00  0.00     0.250 C 
BRANCH  29  30
HETATM   30  O8  UNL     1      11.215  19.069  32.107  1.00  0.00    -0.375 OA
ATOM     31  H8  UNL     1      10.390  18.810  32.502  1.00  0.00     0.212 HD
ENDBRANCH  29  30
BRANCH  29  32
HETATM   32  C18 UNL     1      13.137  18.646  30.868  1.00  0.00     0.255 C 
BRANCH  32  33
HETATM   33  N8  UNL     1      12.720  19.778  30.113  1.00  0.00    -0.069 N 
ATOM     34  H83 UNL     1      13.052  19.709  29.151  1.00  0.00     0.275 HD
ATOM     35  H82 UNL     1      11.713  19.750  29.951  1.00  0.00     0.275 HD
ATOM     36  H81 UNL     1      12.994  20.671  30.523  1.00  0.00     0.275 HD
ENDBRANCH  32  33
BRANCH  32  37
HETATM   37  C19 UNL     1      14.397  18.904  31.677  1.00  0.00     0.201 C 
BRANCH  37  38
HETATM   38  O9  UNL     1      14.220  19.966  32.559  1.00  0.00    -0.399 OA
ATOM     39  H9  UNL     1      14.416  19.707  33.451  1.00  0.00     0.209 HD
ENDBRANCH  37  38
ENDBRANCH  32  37
ENDBRANCH  29  32
ENDBRANCH  27  29
ENDBRANCH  26  27
ENDBRANCH  23  26
ENDBRANCH  18  20
BRANCH  17  40
HETATM   40  O5  UNL     1      12.189  17.416  39.291  1.00  0.00    -0.390 OA
ATOM     41  H5  UNL     1      13.041  17.015  39.416  1.00  0.00     0.210 HD
ENDBRANCH  17  40
BRANCH  16  42
HETATM   42  O4  UNL     1       9.822  18.243  39.835  1.00  0.00    -0.391 OA
ATOM     43  H4  UNL     1      10.574  18.746  39.543  1.00  0.00     0.210 HD
ENDBRANCH  16  42
BRANCH   7  44
HETATM   44  C2  UNL     1      14.885  14.438  36.382  1.00  0.00     0.275 C 
HETATM   45  O1  UNL     1      15.843  13.491  36.033  1.00  0.00    -0.362 OA
HETATM   46  C3  UNL     1      16.288  13.742  34.765  1.00  0.00     0.173 C 
HETATM   47  C4  UNL     1      15.795  15.091  34.344  1.00  0.00     0.062 C 
HETATM   48  C5  UNL     1      15.335  15.663  35.697  1.00  0.00     0.170 C 
BRANCH  48  49
HETATM   49  O2  UNL     1      14.318  16.590  35.462  1.00  0.00    -0.391 OA
ATOM     50  H2  UNL     1      13.798  16.797  36.229  1.00  0.00     0.210 HD
ENDBRANCH  48  49
ENDBRANCH   7  44
BRANCH  14  51
HETATM   51  O3  UNL     1      11.886  19.125  43.049  1.00  0.00    -0.374 OA
ATOM     52  H3  UNL     1      11.323  19.885  43.131  1.00  0.00     0.212 HD
ENDBRANCH  14  51
TORSDOF 14
ENDMDL
MODEL 4
REMARK VINA RESULT: -8.412933070      1.105      1.462
REMARK  14 active torsions:
REMARK  status: ('A' for Active; 'I' for Inactive)
REMARK    1  A    between atoms: N3_7  and  C2_8 
REMARK    2  A    between atoms: C5_12  and  O2_13 
REMARK    3  A    between atoms: C9_21  and  O3_22 
REMARK    4  A    between atoms: C11_25  and  O4_26 
REMARK    5  A    between atoms: C12_28  and  O5_29 
REMARK    6  A    between atoms: C13_31  and  C14_32 
REMARK       I    between atoms: C14_32  and  N6_34 
REMARK       I    between atoms: N6_34  and  C15_36 
REMARK    7  A    between atoms: C15_36  and  C16_38 
REMARK    8  A    between atoms: C16_38  and  N7_39 
REMARK    9  A    between atoms: N7_39  and  C17_41 
REMARK   10  A    between atoms: C17_41  and  O8_42 
REMARK   11  A    between atoms: C17_41  and  C18_44 
REMARK   12  A    between atoms: C18_44  and  N8_45 
REMARK   13  A    between atoms: C18_44  and  C19_49 
REMARK   14  A    between atoms: C19_49  and  O9_50 
ROOT
HETATM    1  N1  UNL     1       6.470  14.829  44.952  1.00  0.00    -0.382 N 
ATOM      2  H11 UNL     1       5.596  14.436  44.604  1.00  0.00     0.157 HD
ATOM      3  H12 UNL     1       6.421  14.922  45.967  1.00  0.00     0.157 HD
HETATM    4  C1  UNL     1       7.439  15.131  44.132  1.00  0.00     0.145 A 
HETATM    5  N2  UNL     1       8.566  15.637  44.581  1.00  0.00    -0.277 N 
ATOM      6  H2  UNL     1       8.792  15.838  45.556  1.00  0.00     0.189 HD
HETATM    7  N3  UNL     1       9.345  15.837  43.551  1.00  0.00    -0.235 N 
HETATM    8  C6  UNL     1       8.748  15.465  42.380  1.00  0.00     0.194 A 
HETATM    9  C7  UNL     1       7.508  15.004  42.729  1.00  0.00     0.131 A 
HETATM   10  N4  UNL     1       6.448  14.482  41.996  1.00  0.00    -0.346 N 
ATOM     11  H4  UNL     1       5.978  13.853  42.647  1.00  0.00     0.167 HD
HETATM   12  C8  UNL     1       5.800  14.395  40.977  1.00  0.00     0.181 C 
HETATM   13  N5  UNL     1       5.805  14.926  39.677  1.00  0.00    -0.337 N 
HETATM   14  C9  UNL     1       5.394  15.940  38.659  1.00  0.00     0.247 A 
HETATM   15  C10 UNL     1       6.225  14.842  38.381  1.00  0.00     0.167 A 
HETATM   16  C11 UNL     1       7.732  14.978  38.048  1.00  0.00     0.177 C 
HETATM   17  C12 UNL     1       8.348  15.220  39.303  1.00  0.00     0.187 C 
HETATM   18  C13 UNL     1       9.651  15.183  39.942  1.00  0.00     0.254 C 
HETATM   19  O10 UNL     1       9.421  15.610  41.234  1.00  0.00    -0.315 OA
ENDROOT
BRANCH  18  20
HETATM   20  C14 UNL     1      10.554  16.223  39.307  1.00  0.00     0.256 C 
HETATM   21  O6  UNL     1      10.116  17.246  38.740  1.00  0.00    -0.270 OA
HETATM   22  N6  UNL     1      11.956  16.022  39.360  1.00  0.00    -0.291 N 
HETATM   23  C15 UNL     1      12.866  16.951  38.749  1.00  0.00     0.263 C 
ATOM     24  H6  UNL     1      12.326  15.202  39.842  1.00  0.00     0.172 HD
HETATM   25  O7  UNL     1      12.406  17.948  38.188  1.00  0.00    -0.267 OA
BRANCH  23  26
HETATM   26  C16 UNL     1      14.313  16.686  38.809  1.00  0.00     0.160 C 
BRANCH  26  27
HETATM   27  N7  UNL     1      14.917  15.954  37.807  1.00  0.00    -0.367 N 
ATOM     28  H7  UNL     1      15.309  16.443  37.003  1.00  0.00     0.161 HD
BRANCH  27  29
HETATM   29  C17 UNL     1      15.006  14.568  37.862  1.00  0.00     0.250 C 
BRANCH  29  30
HETATM   30  O8  UNL     1      14.234  13.962  38.820  1.00  0.00    -0.375 OA
ATOM     31  H8  UNL     1      13.772  13.180  38.542  1.00  0.00     0.212 HD
ENDBRANCH  29  30
BRANCH  29  32
HETATM   32  C18 UNL     1      14.749  13.833  36.556  1.00  0.00     0.255 C 
BRANCH  32  33
HETATM   33  N8  UNL     1      14.839  12.417  36.665  1.00  0.00    -0.069 N 
ATOM     34  H83 UNL     1      15.612  12.153  37.276  1.00  0.00     0.275 HD
ATOM     35  H82 UNL     1      14.057  12.048  37.207  1.00  0.00     0.275 HD
ATOM     36  H81 UNL     1      14.912  11.937  35.767  1.00  0.00     0.275 HD
ENDBRANCH  32  33
BRANCH  32  37
HETATM   37  C19 UNL     1      13.458  14.295  35.901  1.00  0.00     0.201 C 
BRANCH  37  38
HETATM   38  O9  UNL     1      12.415  14.340  36.820  1.00  0.00    -0.399 OA
ATOM     39  H9  UNL     1      11.596  14.573  36.399  1.00  0.00     0.209 HD
ENDBRANCH  37  38
ENDBRANCH  32  37
ENDBRANCH  29  32
ENDBRANCH  27  29
ENDBRANCH  26  27
ENDBRANCH  23  26
ENDBRANCH  18  20
BRANCH  17  40
HETATM   40  O5  UNL     1       7.911  16.471  39.671  1.00  0.00    -0.390 OA
ATOM     41  H5  UNL     1       7.277  16.310  40.361  1.00  0.00     0.210 HD
ENDBRANCH  17  40
BRANCH  16  42
HETATM   42  O4  UNL     1       7.881  16.053  37.140  1.00  0.00    -0.391 OA
ATOM     43  H4  UNL     1       7.598  16.847  37.578  1.00  0.00     0.210 HD
ENDBRANCH  16  42
BRANCH   7  44
HETATM   44  C2  UNL     1      10.705  16.408  43.769  1.00  0.00     0.275 C 
HETATM   45  O1  UNL     1      10.823  17.529  42.951  1.00  0.00    -0.362 OA
HETATM   46  C3  UNL     1      12.137  17.714  42.622  1.00  0.00     0.173 C 
HETATM   47  C4  UNL     1      12.905  16.494  43.020  1.00  0.00     0.062 C 
HETATM   48  C5  UNL     1      11.757  15.501  43.274  1.00  0.00     0.170 C 
BRANCH  48  49
HETATM   49  O2  UNL     1      12.185  14.561  44.213  1.00  0.00    -0.391 OA
ATOM     50  H2  UNL     1      12.593  13.793  43.833  1.00  0.00     0.210 HD
ENDBRANCH  48  49
ENDBRANCH   7  44
BRANCH  14  51
HETATM   51  O3  UNL     1       4.097  15.936  38.155  1.00  0.00    -0.374 OA
ATOM     52  H3  UNL     1       3.543  16.699  38.260  1.00  0.00     0.212 HD
ENDBRANCH  14  51
TORSDOF 14
ENDMDL
MODEL 5
REMARK VINA RESULT: -8.386899742      2.464      7.548
REMARK  14 active torsions:
REMARK  status: ('A' for Active; 'I' for Inactive)
REMARK    1  A    between atoms: N3_7  and  C2_8 
REMARK    2  A    between atoms: C5_12  and  O2_13 
REMARK    3  A    between atoms: C9_21  and  O3_22 
REMARK    4  A    between atoms: C11_25  and  O4_26 
REMARK    5  A    between atoms: C12_28  and  O5_29 
REMARK    6  A    between atoms: C13_31  and  C14_32 
REMARK       I    between atoms: C14_32  and  N6_34 
REMARK       I    between atoms: N6_34  and  C15_36 
REMARK    7  A    between atoms: C15_36  and  C16_38 
REMARK    8  A    between atoms: C16_38  and  N7_39 
REMARK    9  A    between atoms: N7_39  and  C17_41 
REMARK   10  A    between atoms: C17_41  and  O8_42 
REMARK   11  A    between atoms: C17_41  and  C18_44 
REMARK   12  A    between atoms: C18_44  and  N8_45 
REMARK   13  A    between atoms: C18_44  and  C19_49 
REMARK   14  A    between atoms: C19_49  and  O9_50 
ROOT
HETATM    1  N1  UNL     1      16.607  14.379  40.859  1.00  0.00    -0.382 N 
ATOM      2  H11 UNL     1      16.473  14.472  41.866  1.00  0.00     0.157 HD
ATOM      3  H12 UNL     1      17.562  14.073  40.671  1.00  0.00     0.157 HD
HETATM    4  C1  UNL     1      15.635  14.638  40.029  1.00  0.00     0.145 A 
HETATM    5  N2  UNL     1      15.808  14.517  38.732  1.00  0.00    -0.277 N 
ATOM      6  H2  UNL     1      16.666  14.228  38.262  1.00  0.00     0.189 HD
HETATM    7  N3  UNL     1      14.680  14.836  38.154  1.00  0.00    -0.235 N 
HETATM    8  C6  UNL     1      13.720  15.181  39.062  1.00  0.00     0.194 A 
HETATM    9  C7  UNL     1      14.314  15.062  40.289  1.00  0.00     0.131 A 
HETATM   10  N4  UNL     1      13.858  15.259  41.587  1.00  0.00    -0.346 N 
ATOM     11  H4  UNL     1      14.420  14.620  42.151  1.00  0.00     0.167 HD
HETATM   12  C8  UNL     1      13.133  15.804  42.389  1.00  0.00     0.181 C 
HETATM   13  N5  UNL     1      12.115  16.772  42.401  1.00  0.00    -0.337 N 
HETATM   14  C9  UNL     1      11.627  18.179  42.519  1.00  0.00     0.247 A 
HETATM   15  C10 UNL     1      10.787  17.073  42.313  1.00  0.00     0.167 A 
HETATM   16  C11 UNL     1      10.026  16.818  40.987  1.00  0.00     0.177 C 
HETATM   17  C12 UNL     1      11.018  16.323  40.102  1.00  0.00     0.187 C 
HETATM   18  C13 UNL     1      11.148  15.603  38.848  1.00  0.00     0.254 C 
HETATM   19  O10 UNL     1      12.508  15.533  38.623  1.00  0.00    -0.315 OA
ENDROOT
BRANCH  18  20
HETATM   20  C14 UNL     1      10.575  16.443  37.723  1.00  0.00     0.256 C 
HETATM   21  O6  UNL     1      11.236  17.320  37.127  1.00  0.00    -0.270 OA
HETATM   22  N6  UNL     1       9.230  16.223  37.334  1.00  0.00    -0.291 N 
HETATM   23  C15 UNL     1       8.615  17.007  36.298  1.00  0.00     0.263 C 
ATOM     24  H6  UNL     1       8.688  15.493  37.797  1.00  0.00     0.172 HD
HETATM   25  O7  UNL     1       9.288  17.872  35.733  1.00  0.00    -0.267 OA
BRANCH  23  26
HETATM   26  C16 UNL     1       7.208  16.758  35.946  1.00  0.00     0.160 C 
BRANCH  26  27
HETATM   27  N7  UNL     1       6.244  16.762  36.934  1.00  0.00    -0.367 N 
ATOM     28  H7  UNL     1       5.891  17.655  37.278  1.00  0.00     0.161 HD
BRANCH  27  29
HETATM   29  C17 UNL     1       5.740  15.584  37.473  1.00  0.00     0.250 C 
BRANCH  29  30
HETATM   30  O8  UNL     1       6.643  14.560  37.607  1.00  0.00    -0.375 OA
ATOM     31  H8  UNL     1       6.430  13.762  37.137  1.00  0.00     0.212 HD
ENDBRANCH  29  30
BRANCH  29  32
HETATM   32  C18 UNL     1       5.021  15.718  38.806  1.00  0.00     0.255 C 
BRANCH  32  33
HETATM   33  N8  UNL     1       4.046  14.708  39.038  1.00  0.00    -0.069 N 
ATOM     34  H83 UNL     1       4.223  13.896  38.447  1.00  0.00     0.275 HD
ATOM     35  H82 UNL     1       4.179  14.285  39.957  1.00  0.00     0.275 HD
ATOM     36  H81 UNL     1       3.084  15.029  38.927  1.00  0.00     0.275 HD
ENDBRANCH  32  33
BRANCH  32  37
HETATM   37  C19 UNL     1       6.002  15.869  39.956  1.00  0.00     0.201 C 
BRANCH  37  38
HETATM   38  O9  UNL     1       7.029  16.749  39.630  1.00  0.00    -0.399 OA
ATOM     39  H9  UNL     1       7.305  17.251  40.387  1.00  0.00     0.209 HD
ENDBRANCH  37  38
ENDBRANCH  32  37
ENDBRANCH  29  32
ENDBRANCH  27  29
ENDBRANCH  26  27
ENDBRANCH  23  26
ENDBRANCH  18  20
BRANCH  17  40
HETATM   40  O5  UNL     1      11.852  17.393  39.879  1.00  0.00    -0.390 OA
ATOM     41  H5  UNL     1      12.092  17.324  38.962  1.00  0.00     0.210 HD
ENDBRANCH  17  40
BRANCH  16  42
HETATM   42  O4  UNL     1       9.467  18.047  40.563  1.00  0.00    -0.391 OA
ATOM     43  H4  UNL     1       8.543  17.905  40.393  1.00  0.00     0.210 HD
ENDBRANCH  16  42
BRANCH   7  44
HETATM   44  C2  UNL     1      14.587  14.785  36.666  1.00  0.00     0.275 C 
HETATM   45  O1  UNL     1      15.644  14.004  36.208  1.00  0.00    -0.362 OA
HETATM   46  C3  UNL     1      15.992  14.405  34.948  1.00  0.00     0.173 C 
HETATM   47  C4  UNL     1      15.307  15.702  34.654  1.00  0.00     0.062 C 
HETATM   48  C5  UNL     1      14.840  16.107  36.064  1.00  0.00     0.170 C 
BRANCH  48  49
HETATM   49  O2  UNL     1      13.701  16.903  35.940  1.00  0.00    -0.391 OA
ATOM     50  H2  UNL     1      13.869  17.768  35.585  1.00  0.00     0.210 HD
ENDBRANCH  48  49
ENDBRANCH   7  44
BRANCH  14  51
HETATM   51  O3  UNL     1      11.604  18.808  43.760  1.00  0.00    -0.374 OA
ATOM     52  H3  UNL     1      10.775  18.992  44.185  1.00  0.00     0.212 HD
ENDBRANCH  14  51
TORSDOF 14
ENDMDL
