MODEL 1
REMARK VINA RESULT: -8.110165032      0.000      0.000
REMARK  14 active torsions:
REMARK  status: ('A' for Active; 'I' for Inactive)
REMARK    1  A    between atoms: C2_2  and  O2_4 
REMARK    2  A    between atoms: O2_4  and  C3_5 
REMARK    3  A    between atoms: C4_6  and  O3_7 
REMARK    4  A    between atoms: O3_7  and  C5_8 
REMARK    5  A    between atoms: C6_9  and  O4_10 
REMARK    6  A    between atoms: C7_12  and  O5_13 
REMARK    7  A    between atoms: C8_15  and  O6_16 
REMARK    8  A    between atoms: C9_18  and  C10_19 
REMARK    9  A    between atoms: C10_19  and  O7_20 
REMARK   10  A    between atoms: C11_22  and  C12_23 
REMARK   11  A    between atoms: C12_23  and  C13_24 
REMARK   12  A    between atoms: C13_24  and  C14_25 
REMARK   13  A    between atoms: C15_26  and  C16_27 
REMARK   14  A    between atoms: C20_33  and  O9_34 
ROOT
HETATM    1  C5  UNL     1      -1.821   0.640  15.048  1.00  0.00     0.158 C 
HETATM    2  C6  UNL     1      -0.700   1.532  14.637  1.00  0.00     0.178 C 
HETATM    3  C7  UNL     1      -1.072   2.991  14.494  1.00  0.00     0.178 C 
HETATM    4  C8  UNL     1      -2.033   3.273  15.612  1.00  0.00     0.156 C 
HETATM    5  C9  UNL     1      -3.350   2.603  15.271  1.00  0.00     0.047 C 
HETATM    6  C11 UNL     1      -3.193   1.223  14.732  1.00  0.00     0.026 C 
ENDROOT
BRANCH   1   7
HETATM    7  O3  UNL     1      -1.710   0.352  16.405  1.00  0.00    -0.373 OA
BRANCH   7   8
HETATM    8  C4  UNL     1      -2.408  -0.795  16.761  1.00  0.00     0.178 C 
HETATM    9  C3  UNL     1      -2.729  -0.838  18.243  1.00  0.00     0.194 C 
HETATM   10  C20 UNL     1      -1.524  -1.485  18.929  1.00  0.00     0.178 C 
HETATM   11  C18 UNL     1      -1.495  -2.921  18.477  1.00  0.00     0.148 C 
HETATM   12  O8  UNL     1      -2.116  -3.063  17.243  1.00  0.00    -0.381 OA
HETATM   13  C19 UNL     1      -0.088  -3.458  18.356  1.00  0.00     0.042 C 
HETATM   14  C17 UNL     1      -1.720  -2.063  16.344  1.00  0.00     0.203 C 
BRANCH   9  15
HETATM   15  O2  UNL     1      -3.859  -1.705  18.380  1.00  0.00    -0.311 OA
BRANCH  15  16
HETATM   16  C2  UNL     1      -4.886  -1.446  19.259  1.00  0.00     0.255 C 
HETATM   17  C1  UNL     1      -4.827  -2.038  20.627  1.00  0.00     0.126 C 
HETATM   18  O1  UNL     1      -5.845  -0.719  18.886  1.00  0.00    -0.266 OA
ENDBRANCH  15  16
ENDBRANCH   9  15
BRANCH  10  19
HETATM   19  O9  UNL     1      -0.363  -0.821  18.533  1.00  0.00    -0.390 OA
ATOM     20  H9  UNL     1       0.208  -1.436  18.086  1.00  0.00     0.210 HD
ENDBRANCH  10  19
ENDBRANCH   7   8
ENDBRANCH   1   7
BRANCH   2  21
HETATM   21  O4  UNL     1      -0.084   1.127  13.450  1.00  0.00    -0.390 OA
ATOM     22  H4  UNL     1       0.843   0.952  13.552  1.00  0.00     0.210 HD
ENDBRANCH   2  21
BRANCH   6  23
HETATM   23  C12 UNL     1      -3.366   1.073  13.248  1.00  0.00     0.011 C 
BRANCH  23  24
HETATM   24  C13 UNL     1      -4.316   0.041  12.762  1.00  0.00     0.027 C 
BRANCH  24  25
HETATM   25  C14 UNL     1      -5.513   0.535  12.071  1.00  0.00    -0.030 C 
HETATM   26  C15 UNL     1      -6.531   1.202  12.570  1.00  0.00    -0.020 C 
BRANCH  26  27
HETATM   27  C16 UNL     1      -6.673   1.598  13.974  1.00  0.00     0.112 C 
HETATM   28  S1  UNL     1      -7.438   0.255  14.936  1.00  0.00    -0.094 SA
ENDBRANCH  26  27
ENDBRANCH  24  25
ENDBRANCH  23  24
ENDBRANCH   6  23
BRANCH   3  29
HETATM   29  O5  UNL     1       0.112   3.741  14.666  1.00  0.00    -0.390 OA
ATOM     30  H5  UNL     1       0.160   4.356  13.944  1.00  0.00     0.210 HD
ENDBRANCH   3  29
BRANCH   5  31
HETATM   31  C10 UNL     1      -4.152   2.694  16.555  1.00  0.00     0.172 C 
BRANCH  31  32
HETATM   32  O7  UNL     1      -4.721   1.553  17.002  1.00  0.00    -0.400 OA
ATOM     33  H7  UNL     1      -5.656   1.575  17.168  1.00  0.00     0.209 HD
ENDBRANCH  31  32
ENDBRANCH   5  31
BRANCH   4  34
HETATM   34  O6  UNL     1      -2.300   4.634  15.746  1.00  0.00    -0.392 OA
ATOM     35  H6  UNL     1      -3.231   4.813  15.804  1.00  0.00     0.210 HD
ENDBRANCH   4  34
TORSDOF 14
ENDMDL
MODEL 2
REMARK VINA RESULT: -8.077706271      0.831      1.013
REMARK  14 active torsions:
REMARK  status: ('A' for Active; 'I' for Inactive)
REMARK    1  A    between atoms: C2_2  and  O2_4 
REMARK    2  A    between atoms: O2_4  and  C3_5 
REMARK    3  A    between atoms: C4_6  and  O3_7 
REMARK    4  A    between atoms: O3_7  and  C5_8 
REMARK    5  A    between atoms: C6_9  and  O4_10 
REMARK    6  A    between atoms: C7_12  and  O5_13 
REMARK    7  A    between atoms: C8_15  and  O6_16 
REMARK    8  A    between atoms: C9_18  and  C10_19 
REMARK    9  A    between atoms: C10_19  and  O7_20 
REMARK   10  A    between atoms: C11_22  and  C12_23 
REMARK   11  A    between atoms: C12_23  and  C13_24 
REMARK   12  A    between atoms: C13_24  and  C14_25 
REMARK   13  A    between atoms: C15_26  and  C16_27 
REMARK   14  A    between atoms: C20_33  and  O9_34 
ROOT
HETATM    1  C5  UNL     1      -1.833   0.589  15.105  1.00  0.00     0.158 C 
HETATM    2  C6  UNL     1      -0.703   1.500  14.765  1.00  0.00     0.178 C 
HETATM    3  C7  UNL     1      -1.112   2.917  14.429  1.00  0.00     0.178 C 
HETATM    4  C8  UNL     1      -2.231   3.247  15.374  1.00  0.00     0.156 C 
HETATM    5  C9  UNL     1      -3.459   2.477  14.924  1.00  0.00     0.047 C 
HETATM    6  C11 UNL     1      -3.170   1.064  14.550  1.00  0.00     0.026 C 
ENDROOT
BRANCH   1   7
HETATM    7  O3  UNL     1      -1.902   0.432  16.485  1.00  0.00    -0.373 OA
BRANCH   7   8
HETATM    8  C4  UNL     1      -2.664  -0.667  16.856  1.00  0.00     0.178 C 
HETATM    9  C3  UNL     1      -3.017  -0.654  18.332  1.00  0.00     0.194 C 
HETATM   10  C20 UNL     1      -1.862  -1.343  19.060  1.00  0.00     0.178 C 
HETATM   11  C18 UNL     1      -1.897  -2.791  18.646  1.00  0.00     0.148 C 
HETATM   12  O8  UNL     1      -2.499  -2.934  17.403  1.00  0.00    -0.381 OA
HETATM   13  C19 UNL     1      -0.517  -3.401  18.570  1.00  0.00     0.042 C 
HETATM   14  C17 UNL     1      -2.034  -1.980  16.488  1.00  0.00     0.203 C 
BRANCH   9  15
HETATM   15  O2  UNL     1      -4.193  -1.459  18.466  1.00  0.00    -0.311 OA
BRANCH  15  16
HETATM   16  C2  UNL     1      -5.453  -0.976  18.191  1.00  0.00     0.255 C 
HETATM   17  C1  UNL     1      -5.810  -0.664  16.778  1.00  0.00     0.126 C 
HETATM   18  O1  UNL     1      -6.266  -0.811  19.139  1.00  0.00    -0.266 OA
ENDBRANCH  15  16
ENDBRANCH   9  15
BRANCH  10  19
HETATM   19  O9  UNL     1      -0.660  -0.750  18.672  1.00  0.00    -0.390 OA
ATOM     20  H9  UNL     1      -0.193  -1.344  18.095  1.00  0.00     0.210 HD
ENDBRANCH  10  19
ENDBRANCH   7   8
ENDBRANCH   1   7
BRANCH   2  21
HETATM   21  O4  UNL     1       0.090   1.022  13.717  1.00  0.00    -0.390 OA
ATOM     22  H4  UNL     1       0.940   1.442  13.673  1.00  0.00     0.210 HD
ENDBRANCH   2  21
BRANCH   6  23
HETATM   23  C12 UNL     1      -3.126   0.770  13.077  1.00  0.00     0.011 C 
BRANCH  23  24
HETATM   24  C13 UNL     1      -4.064  -0.251  12.547  1.00  0.00     0.027 C 
BRANCH  24  25
HETATM   25  C14 UNL     1      -5.168   0.249  11.720  1.00  0.00    -0.030 C 
HETATM   26  C15 UNL     1      -6.289   0.818  12.106  1.00  0.00    -0.020 C 
BRANCH  26  27
HETATM   27  C16 UNL     1      -6.670   1.073  13.498  1.00  0.00     0.112 C 
HETATM   28  S1  UNL     1      -8.327   1.824  13.573  1.00  0.00    -0.094 SA
ENDBRANCH  26  27
ENDBRANCH  24  25
ENDBRANCH  23  24
ENDBRANCH   6  23
BRANCH   3  29
HETATM   29  O5  UNL     1       0.004   3.743  14.686  1.00  0.00    -0.390 OA
ATOM     30  H5  UNL     1      -0.304   4.474  15.210  1.00  0.00     0.210 HD
ENDBRANCH   3  29
BRANCH   5  31
HETATM   31  C10 UNL     1      -4.435   2.640  16.072  1.00  0.00     0.172 C 
BRANCH  31  32
HETATM   32  O7  UNL     1      -3.917   2.646  17.320  1.00  0.00    -0.400 OA
ATOM     33  H7  UNL     1      -3.740   1.802  17.717  1.00  0.00     0.209 HD
ENDBRANCH  31  32
ENDBRANCH   5  31
BRANCH   4  34
HETATM   34  O6  UNL     1      -2.571   4.597  15.336  1.00  0.00    -0.392 OA
ATOM     35  H6  UNL     1      -3.471   4.748  15.601  1.00  0.00     0.210 HD
ENDBRANCH   4  34
TORSDOF 14
ENDMDL
MODEL 3
REMARK VINA RESULT: -8.028029759      1.155      2.525
REMARK  14 active torsions:
REMARK  status: ('A' for Active; 'I' for Inactive)
REMARK    1  A    between atoms: C2_2  and  O2_4 
REMARK    2  A    between atoms: O2_4  and  C3_5 
REMARK    3  A    between atoms: C4_6  and  O3_7 
REMARK    4  A    between atoms: O3_7  and  C5_8 
REMARK    5  A    between atoms: C6_9  and  O4_10 
REMARK    6  A    between atoms: C7_12  and  O5_13 
REMARK    7  A    between atoms: C8_15  and  O6_16 
REMARK    8  A    between atoms: C9_18  and  C10_19 
REMARK    9  A    between atoms: C10_19  and  O7_20 
REMARK   10  A    between atoms: C11_22  and  C12_23 
REMARK   11  A    between atoms: C12_23  and  C13_24 
REMARK   12  A    between atoms: C13_24  and  C14_25 
REMARK   13  A    between atoms: C15_26  and  C16_27 
REMARK   14  A    between atoms: C20_33  and  O9_34 
ROOT
HETATM    1  C5  UNL     1      -1.722   1.176  15.451  1.00  0.00     0.158 C 
HETATM    2  C6  UNL     1      -0.537   1.915  14.932  1.00  0.00     0.178 C 
HETATM    3  C7  UNL     1      -0.867   3.128  14.090  1.00  0.00     0.178 C 
HETATM    4  C8  UNL     1      -2.058   3.762  14.746  1.00  0.00     0.156 C 
HETATM    5  C9  UNL     1      -3.262   2.881  14.469  1.00  0.00     0.047 C 
HETATM    6  C11 UNL     1      -2.986   1.427  14.636  1.00  0.00     0.026 C 
ENDROOT
BRANCH   1   7
HETATM    7  O3  UNL     1      -1.926   1.507  16.787  1.00  0.00    -0.373 OA
BRANCH   7   8
HETATM    8  C4  UNL     1      -1.418   0.548  17.653  1.00  0.00     0.178 C 
HETATM    9  C3  UNL     1      -1.834  -0.859  17.266  1.00  0.00     0.194 C 
HETATM   10  C20 UNL     1      -3.182  -1.114  17.943  1.00  0.00     0.178 C 
HETATM   11  C18 UNL     1      -2.914  -1.162  19.424  1.00  0.00     0.148 C 
HETATM   12  O8  UNL     1      -1.777  -0.432  19.745  1.00  0.00    -0.381 OA
HETATM   13  C19 UNL     1      -4.065  -0.612  20.235  1.00  0.00     0.042 C 
HETATM   14  C17 UNL     1      -1.756   0.809  19.093  1.00  0.00     0.203 C 
BRANCH   9  15
HETATM   15  O2  UNL     1      -0.857  -1.733  17.838  1.00  0.00    -0.311 OA
BRANCH  15  16
HETATM   16  C2  UNL     1      -0.961  -3.104  17.766  1.00  0.00     0.255 C 
HETATM   17  C1  UNL     1      -0.355  -3.928  18.851  1.00  0.00     0.126 C 
HETATM   18  O1  UNL     1      -1.562  -3.623  16.788  1.00  0.00    -0.266 OA
ENDBRANCH  15  16
ENDBRANCH   9  15
BRANCH  10  19
HETATM   19  O9  UNL     1      -4.052  -0.068  17.634  1.00  0.00    -0.390 OA
ATOM     20  H9  UNL     1      -4.252   0.414  18.429  1.00  0.00     0.210 HD
ENDBRANCH  10  19
ENDBRANCH   7   8
ENDBRANCH   1   7
BRANCH   2  21
HETATM   21  O4  UNL     1       0.335   1.106  14.197  1.00  0.00    -0.390 OA
ATOM     22  H4  UNL     1       0.815   0.490  14.737  1.00  0.00     0.210 HD
ENDBRANCH   2  21
BRANCH   6  23
HETATM   23  C12 UNL     1      -2.813   0.641  13.367  1.00  0.00     0.011 C 
BRANCH  23  24
HETATM   24  C13 UNL     1      -3.920  -0.257  12.954  1.00  0.00     0.027 C 
BRANCH  24  25
HETATM   25  C14 UNL     1      -4.974   0.349  12.131  1.00  0.00    -0.030 C 
HETATM   26  C15 UNL     1      -6.141   0.819  12.510  1.00  0.00    -0.020 C 
BRANCH  26  27
HETATM   27  C16 UNL     1      -6.639   0.830  13.889  1.00  0.00     0.112 C 
HETATM   28  S1  UNL     1      -8.271   1.635  13.966  1.00  0.00    -0.094 SA
ENDBRANCH  26  27
ENDBRANCH  24  25
ENDBRANCH  23  24
ENDBRANCH   6  23
BRANCH   3  29
HETATM   29  O5  UNL     1       0.246   3.995  14.156  1.00  0.00    -0.390 OA
ATOM     30  H5  UNL     1       0.471   4.230  13.263  1.00  0.00     0.210 HD
ENDBRANCH   3  29
BRANCH   5  31
HETATM   31  C10 UNL     1      -4.337   3.430  15.388  1.00  0.00     0.172 C 
BRANCH  31  32
HETATM   32  O7  UNL     1      -4.686   2.665  16.446  1.00  0.00    -0.400 OA
ATOM     33  H7  UNL     1      -5.208   3.079  17.122  1.00  0.00     0.209 HD
ENDBRANCH  31  32
ENDBRANCH   5  31
BRANCH   4  34
HETATM   34  O6  UNL     1      -2.350   5.015  14.212  1.00  0.00    -0.392 OA
ATOM     35  H6  UNL     1      -3.258   5.260  14.344  1.00  0.00     0.210 HD
ENDBRANCH   4  34
TORSDOF 14
ENDMDL
MODEL 4
REMARK VINA RESULT: -7.993164469      2.832      3.566
REMARK  14 active torsions:
REMARK  status: ('A' for Active; 'I' for Inactive)
REMARK    1  A    between atoms: C2_2  and  O2_4 
REMARK    2  A    between atoms: O2_4  and  C3_5 
REMARK    3  A    between atoms: C4_6  and  O3_7 
REMARK    4  A    between atoms: O3_7  and  C5_8 
REMARK    5  A    between atoms: C6_9  and  O4_10 
REMARK    6  A    between atoms: C7_12  and  O5_13 
REMARK    7  A    between atoms: C8_15  and  O6_16 
REMARK    8  A    between atoms: C9_18  and  C10_19 
REMARK    9  A    between atoms: C10_19  and  O7_20 
REMARK   10  A    between atoms: C11_22  and  C12_23 
REMARK   11  A    between atoms: C12_23  and  C13_24 
REMARK   12  A    between atoms: C13_24  and  C14_25 
REMARK   13  A    between atoms: C15_26  and  C16_27 
REMARK   14  A    between atoms: C20_33  and  O9_34 
ROOT
HETATM    1  C5  UNL     1      -2.844  -0.314  17.048  1.00  0.00     0.158 C 
HETATM    2  C6  UNL     1      -2.002  -0.306  15.818  1.00  0.00     0.178 C 
HETATM    3  C7  UNL     1      -1.151   0.933  15.642  1.00  0.00     0.178 C 
HETATM    4  C8  UNL     1      -0.670   1.289  17.019  1.00  0.00     0.156 C 
HETATM    5  C9  UNL     1      -1.849   1.854  17.789  1.00  0.00     0.047 C 
HETATM    6  C11 UNL     1      -3.108   1.081  17.599  1.00  0.00     0.026 C 
ENDROOT
BRANCH   1   7
HETATM    7  O3  UNL     1      -2.245  -1.118  18.013  1.00  0.00    -0.373 OA
BRANCH   7   8
HETATM    8  C4  UNL     1      -2.962  -2.283  18.250  1.00  0.00     0.178 C 
HETATM    9  C3  UNL     1      -3.259  -2.489  19.724  1.00  0.00     0.194 C 
HETATM   10  C20 UNL     1      -2.058  -3.234  20.308  1.00  0.00     0.178 C 
HETATM   11  C18 UNL     1      -2.069  -4.610  19.696  1.00  0.00     0.148 C 
HETATM   12  O8  UNL     1      -2.714  -4.598  18.466  1.00  0.00    -0.381 OA
HETATM   13  C19 UNL     1      -0.677  -5.158  19.487  1.00  0.00     0.042 C 
HETATM   14  C17 UNL     1      -2.311  -3.510  17.679  1.00  0.00     0.203 C 
BRANCH   9  15
HETATM   15  O2  UNL     1      -4.406  -3.342  19.783  1.00  0.00    -0.311 OA
BRANCH  15  16
HETATM   16  C2  UNL     1      -4.976  -3.730  20.975  1.00  0.00     0.255 C 
HETATM   17  C1  UNL     1      -5.578  -5.090  21.074  1.00  0.00     0.126 C 
HETATM   18  O1  UNL     1      -4.974  -2.927  21.946  1.00  0.00    -0.266 OA
ENDBRANCH  15  16
ENDBRANCH   9  15
BRANCH  10  19
HETATM   19  O9  UNL     1      -0.889  -2.554  19.967  1.00  0.00    -0.390 OA
ATOM     20  H9  UNL     1      -0.228  -3.185  19.705  1.00  0.00     0.210 HD
ENDBRANCH  10  19
ENDBRANCH   7   8
ENDBRANCH   1   7
BRANCH   2  21
HETATM   21  O4  UNL     1      -2.742  -0.489  14.646  1.00  0.00    -0.390 OA
ATOM     22  H4  UNL     1      -3.162  -1.339  14.600  1.00  0.00     0.210 HD
ENDBRANCH   2  21
BRANCH   6  23
HETATM   23  C12 UNL     1      -4.124   1.696  16.679  1.00  0.00     0.011 C 
BRANCH  23  24
HETATM   24  C13 UNL     1      -3.910   3.101  16.252  1.00  0.00     0.027 C 
BRANCH  24  25
HETATM   25  C14 UNL     1      -3.702   3.318  14.815  1.00  0.00    -0.030 C 
HETATM   26  C15 UNL     1      -2.682   3.886  14.210  1.00  0.00    -0.020 C 
BRANCH  26  27
HETATM   27  C16 UNL     1      -1.503   4.438  14.883  1.00  0.00     0.112 C 
HETATM   28  S1  UNL     1      -0.016   4.185  13.863  1.00  0.00    -0.094 SA
ENDBRANCH  26  27
ENDBRANCH  24  25
ENDBRANCH  23  24
ENDBRANCH   6  23
BRANCH   3  29
HETATM   29  O5  UNL     1      -0.060   0.575  14.821  1.00  0.00    -0.390 OA
ATOM     30  H5  UNL     1      -0.419   0.278  13.993  1.00  0.00     0.210 HD
ENDBRANCH   3  29
BRANCH   5  31
HETATM   31  C10 UNL     1      -1.355   1.917  19.221  1.00  0.00     0.172 C 
BRANCH  31  32
HETATM   32  O7  UNL     1      -1.190   0.739  19.864  1.00  0.00    -0.400 OA
ATOM     33  H7  UNL     1      -1.380   0.727  20.794  1.00  0.00     0.209 HD
ENDBRANCH  31  32
ENDBRANCH   5  31
BRANCH   4  34
HETATM   34  O6  UNL     1       0.304   2.284  16.995  1.00  0.00    -0.392 OA
ATOM     35  H6  UNL     1      -0.065   3.152  17.112  1.00  0.00     0.210 HD
ENDBRANCH   4  34
TORSDOF 14
ENDMDL
MODEL 5
REMARK VINA RESULT: -7.969587407      1.301      1.518
REMARK  14 active torsions:
REMARK  status: ('A' for Active; 'I' for Inactive)
REMARK    1  A    between atoms: C2_2  and  O2_4 
REMARK    2  A    between atoms: O2_4  and  C3_5 
REMARK    3  A    between atoms: C4_6  and  O3_7 
REMARK    4  A    between atoms: O3_7  and  C5_8 
REMARK    5  A    between atoms: C6_9  and  O4_10 
REMARK    6  A    between atoms: C7_12  and  O5_13 
REMARK    7  A    between atoms: C8_15  and  O6_16 
REMARK    8  A    between atoms: C9_18  and  C10_19 
REMARK    9  A    between atoms: C10_19  and  O7_20 
REMARK   10  A    between atoms: C11_22  and  C12_23 
REMARK   11  A    between atoms: C12_23  and  C13_24 
REMARK   12  A    between atoms: C13_24  and  C14_25 
REMARK   13  A    between atoms: C15_26  and  C16_27 
REMARK   14  A    between atoms: C20_33  and  O9_34 
ROOT
HETATM    1  C5  UNL     1      -2.019   0.883  14.838  1.00  0.00     0.158 C 
HETATM    2  C6  UNL     1      -0.866   1.689  14.347  1.00  0.00     0.178 C 
HETATM    3  C7  UNL     1      -1.071   3.187  14.403  1.00  0.00     0.178 C 
HETATM    4  C8  UNL     1      -1.820   3.443  15.678  1.00  0.00     0.156 C 
HETATM    5  C9  UNL     1      -3.246   2.963  15.481  1.00  0.00     0.047 C 
HETATM    6  C11 UNL     1      -3.340   1.643  14.795  1.00  0.00     0.026 C 
ENDROOT
BRANCH   1   7
HETATM    7  O3  UNL     1      -1.754   0.433  16.128  1.00  0.00    -0.373 OA
BRANCH   7   8
HETATM    8  C4  UNL     1      -2.539  -0.656  16.481  1.00  0.00     0.178 C 
HETATM    9  C3  UNL     1      -3.062  -0.555  17.902  1.00  0.00     0.194 C 
HETATM   10  C20 UNL     1      -1.990  -1.170  18.803  1.00  0.00     0.178 C 
HETATM   11  C18 UNL     1      -1.957  -2.642  18.485  1.00  0.00     0.148 C 
HETATM   12  O8  UNL     1      -2.408  -2.878  17.193  1.00  0.00    -0.381 OA
HETATM   13  C19 UNL     1      -0.569  -3.226  18.609  1.00  0.00     0.042 C 
HETATM   14  C17 UNL     1      -1.852  -1.976  16.276  1.00  0.00     0.203 C 
BRANCH   9  15
HETATM   15  O2  UNL     1      -4.234  -1.374  17.952  1.00  0.00    -0.311 OA
BRANCH  15  16
HETATM   16  C2  UNL     1      -5.499  -0.865  17.761  1.00  0.00     0.255 C 
HETATM   17  C1  UNL     1      -5.905  -0.449  16.387  1.00  0.00     0.126 C 
HETATM   18  O1  UNL     1      -6.276  -0.764  18.747  1.00  0.00    -0.266 OA
ENDBRANCH  15  16
ENDBRANCH   9  15
BRANCH  10  19
HETATM   19  O9  UNL     1      -0.759  -0.578  18.517  1.00  0.00    -0.390 OA
ATOM     20  H9  UNL     1      -0.074  -1.050  18.976  1.00  0.00     0.210 HD
ENDBRANCH  10  19
ENDBRANCH   7   8
ENDBRANCH   1   7
BRANCH   2  21
HETATM   21  O4  UNL     1      -0.481   1.357  13.045  1.00  0.00    -0.390 OA
ATOM     22  H4  UNL     1      -0.219   2.111  12.530  1.00  0.00     0.210 HD
ENDBRANCH   2  21
BRANCH   6  23
HETATM   23  C12 UNL     1      -3.739   1.682  13.348  1.00  0.00     0.011 C 
BRANCH  23  24
HETATM   24  C13 UNL     1      -5.107   2.156  13.020  1.00  0.00     0.027 C 
BRANCH  24  25
HETATM   25  C14 UNL     1      -5.996   1.179  12.381  1.00  0.00    -0.030 C 
HETATM   26  C15 UNL     1      -7.073   1.399  11.660  1.00  0.00    -0.020 C 
BRANCH  26  27
HETATM   27  C16 UNL     1      -7.620   2.721  11.342  1.00  0.00     0.112 C 
HETATM   28  S1  UNL     1      -8.903   3.183  12.549  1.00  0.00    -0.094 SA
ENDBRANCH  26  27
ENDBRANCH  24  25
ENDBRANCH  23  24
ENDBRANCH   6  23
BRANCH   3  29
HETATM   29  O5  UNL     1       0.209   3.780  14.461  1.00  0.00    -0.390 OA
ATOM     30  H5  UNL     1       0.515   3.698  15.356  1.00  0.00     0.210 HD
ENDBRANCH   3  29
BRANCH   5  31
HETATM   31  C10 UNL     1      -3.839   2.994  16.876  1.00  0.00     0.172 C 
BRANCH  31  32
HETATM   32  O7  UNL     1      -4.316   4.181  17.312  1.00  0.00    -0.400 OA
ATOM     33  H7  UNL     1      -3.881   4.962  16.993  1.00  0.00     0.209 HD
ENDBRANCH  31  32
ENDBRANCH   5  31
BRANCH   4  34
HETATM   34  O6  UNL     1      -1.895   4.801  15.981  1.00  0.00    -0.392 OA
ATOM     35  H6  UNL     1      -2.233   4.955  16.855  1.00  0.00     0.210 HD
ENDBRANCH   4  34
TORSDOF 14
ENDMDL
