MODEL 1
REMARK VINA RESULT: -9.559236401      0.000      0.000
REMARK  4 active torsions:
REMARK  status: ('A' for Active; 'I' for Inactive)
REMARK    1  A    between atoms: C5_5  and  C6_6 
REMARK    2  A    between atoms: C7_9  and  C8_10 
REMARK    3  A    between atoms: C9_12  and  N2_13 
REMARK       I    between atoms: N2_13  and  C10_15 
REMARK       I    between atoms: C10_15  and  N3_17 
REMARK    4  A    between atoms: N3_17  and  N4_19 
ROOT
HETATM    1  C6  UNL     1      28.684  12.670   0.519  1.00  0.00     0.057 A 
HETATM    2  N1  UNL     1      28.065  11.688  -0.068  1.00  0.00    -0.349 N 
ATOM      3  H1  UNL     1      27.353  11.894  -0.769  1.00  0.00     0.166 HD
HETATM    4  C7  UNL     1      28.338  10.443   0.222  1.00  0.00     0.105 A 
HETATM    5  C9  UNL     1      29.300  10.220   1.166  1.00  0.00     0.110 A 
HETATM    6  S1  UNL     1      29.746  11.844   1.572  1.00  0.00    -0.056 SA
ENDROOT
BRANCH   5   7
HETATM    7  N2  UNL     1      29.837   9.008   1.714  1.00  0.00    -0.299 N 
HETATM    8  C10 UNL     1      29.264   8.587   2.978  1.00  0.00     0.340 C 
HETATM    9  O2  UNL     1      28.366   9.257   3.522  1.00  0.00    -0.245 OA
HETATM   10  N3  UNL     1      29.757   7.397   3.566  1.00  0.00    -0.243 N 
ATOM     11  H3  UNL     1      30.491   6.899   3.065  1.00  0.00     0.192 HD
ATOM     12  H2  UNL     1      30.573   8.479   1.246  1.00  0.00     0.171 HD
BRANCH  10  13
HETATM   13  N4  UNL     1      29.321   6.849   4.773  1.00  0.00    -0.241 N 
HETATM   14  C11 UNL     1      29.918   6.857   5.976  1.00  0.00     0.224 A 
HETATM   15  N5  UNL     1      29.132   6.205   6.862  1.00  0.00    -0.293 N 
HETATM   16  N6  UNL     1      28.075   5.801   6.231  1.00  0.00    -0.293 N 
ATOM     17  H5  UNL     1      29.335   6.057   7.851  1.00  0.00     0.187 HD
HETATM   18  C12 UNL     1      28.155   6.176   4.956  1.00  0.00     0.224 A 
ATOM     19  H6  UNL     1      27.303   5.278   6.646  1.00  0.00     0.187 HD
ENDBRANCH  10  13
ENDBRANCH   5   7
BRANCH   4  20
HETATM   20  C8  UNL     1      27.620   9.332  -0.460  1.00  0.00     0.290 C 
HETATM   21  O1  UNL     1      27.084   8.430   0.193  1.00  0.00    -0.300 OA
ENDBRANCH   4  20
BRANCH   1  22
HETATM   22  C5  UNL     1      28.526  14.166   0.337  1.00  0.00     0.043 C 
HETATM   23  C4  UNL     1      28.672  14.810   1.682  1.00  0.00     0.011 C 
HETATM   24  C3  UNL     1      28.766  16.311   1.407  1.00  0.00     0.005 C 
HETATM   25  C2  UNL     1      30.177  16.500   0.873  1.00  0.00    -0.019 C 
HETATM   26  C1  UNL     1      30.451  17.973   0.640  1.00  0.00     0.010 C 
HETATM   27  C14 UNL     1      30.461  15.649  -0.316  1.00  0.00     0.005 C 
HETATM   28  C13 UNL     1      29.408  14.699  -0.718  1.00  0.00     0.011 C 
ENDBRANCH   1  22
TORSDOF 4
ENDMDL
MODEL 2
REMARK VINA RESULT: -9.038221036      2.563      3.767
REMARK  4 active torsions:
REMARK  status: ('A' for Active; 'I' for Inactive)
REMARK    1  A    between atoms: C5_5  and  C6_6 
REMARK    2  A    between atoms: C7_9  and  C8_10 
REMARK    3  A    between atoms: C9_12  and  N2_13 
REMARK       I    between atoms: N2_13  and  C10_15 
REMARK       I    between atoms: C10_15  and  N3_17 
REMARK    4  A    between atoms: N3_17  and  N4_19 
ROOT
HETATM    1  C6  UNL     1      29.631  12.547  -0.074  1.00  0.00     0.057 A 
HETATM    2  N1  UNL     1      30.809  12.014   0.064  1.00  0.00    -0.349 N 
ATOM      3  H1  UNL     1      31.466  12.045  -0.716  1.00  0.00     0.166 HD
HETATM    4  C7  UNL     1      31.168  11.441   1.183  1.00  0.00     0.105 A 
HETATM    5  C9  UNL     1      30.253  11.427   2.197  1.00  0.00     0.110 A 
HETATM    6  S1  UNL     1      28.924  12.253   1.453  1.00  0.00    -0.056 SA
ENDROOT
BRANCH   5   7
HETATM    7  N2  UNL     1      30.310  10.896   3.528  1.00  0.00    -0.299 N 
HETATM    8  C10 UNL     1      29.723   9.580   3.700  1.00  0.00     0.340 C 
HETATM    9  O2  UNL     1      29.213   8.981   2.734  1.00  0.00    -0.245 OA
HETATM   10  N3  UNL     1      29.751   9.005   4.994  1.00  0.00    -0.243 N 
ATOM     11  H3  UNL     1      30.186   9.551   5.737  1.00  0.00     0.192 HD
ATOM     12  H2  UNL     1      30.735  11.408   4.300  1.00  0.00     0.171 HD
BRANCH  10  13
HETATM   13  N4  UNL     1      29.235   7.755   5.337  1.00  0.00    -0.241 N 
HETATM   14  C11 UNL     1      28.405   6.959   4.644  1.00  0.00     0.224 A 
HETATM   15  N5  UNL     1      28.169   5.837   5.364  1.00  0.00    -0.293 N 
HETATM   16  N6  UNL     1      28.833   5.931   6.472  1.00  0.00    -0.293 N 
ATOM     17  H5  UNL     1      27.575   5.057   5.083  1.00  0.00     0.187 HD
HETATM   18  C12 UNL     1      29.495   7.087   6.491  1.00  0.00     0.224 A 
ATOM     19  H6  UNL     1      28.847   5.230   7.213  1.00  0.00     0.187 HD
ENDBRANCH  10  13
ENDBRANCH   5   7
BRANCH   4  20
HETATM   20  C8  UNL     1      32.520  10.836   1.324  1.00  0.00     0.290 C 
HETATM   21  O1  UNL     1      32.655   9.670   1.710  1.00  0.00    -0.300 OA
ENDBRANCH   4  20
BRANCH   1  22
HETATM   22  C5  UNL     1      29.017  13.253  -1.267  1.00  0.00     0.043 C 
HETATM   23  C4  UNL     1      29.809  12.874  -2.482  1.00  0.00     0.011 C 
HETATM   24  C3  UNL     1      29.001  13.392  -3.672  1.00  0.00     0.005 C 
HETATM   25  C2  UNL     1      27.849  12.407  -3.794  1.00  0.00    -0.019 C 
HETATM   26  C1  UNL     1      27.003  12.744  -5.005  1.00  0.00     0.010 C 
HETATM   27  C14 UNL     1      27.061  12.285  -2.535  1.00  0.00     0.005 C 
HETATM   28  C13 UNL     1      27.563  13.026  -1.364  1.00  0.00     0.011 C 
ENDBRANCH   1  22
TORSDOF 4
ENDMDL
MODEL 3
REMARK VINA RESULT: -8.810651471      3.668      8.490
REMARK  4 active torsions:
REMARK  status: ('A' for Active; 'I' for Inactive)
REMARK    1  A    between atoms: C5_5  and  C6_6 
REMARK    2  A    between atoms: C7_9  and  C8_10 
REMARK    3  A    between atoms: C9_12  and  N2_13 
REMARK       I    between atoms: N2_13  and  C10_15 
REMARK       I    between atoms: C10_15  and  N3_17 
REMARK    4  A    between atoms: N3_17  and  N4_19 
ROOT
HETATM    1  C6  UNL     1      30.776   9.805   3.451  1.00  0.00     0.057 A 
HETATM    2  N1  UNL     1      31.717  10.601   3.037  1.00  0.00    -0.349 N 
ATOM      3  H1  UNL     1      32.678  10.436   3.335  1.00  0.00     0.166 HD
HETATM    4  C7  UNL     1      31.455  11.609   2.247  1.00  0.00     0.105 A 
HETATM    5  C9  UNL     1      30.152  11.787   1.876  1.00  0.00     0.110 A 
HETATM    6  S1  UNL     1      29.390  10.471   2.706  1.00  0.00    -0.056 SA
ENDROOT
BRANCH   5   7
HETATM    7  N2  UNL     1      29.523  12.767   1.039  1.00  0.00    -0.299 N 
HETATM    8  C10 UNL     1      29.277  12.354  -0.330  1.00  0.00     0.340 C 
HETATM    9  O2  UNL     1      29.603  11.216  -0.718  1.00  0.00    -0.245 OA
HETATM   10  N3  UNL     1      28.658  13.282  -1.202  1.00  0.00    -0.243 N 
ATOM     11  H3  UNL     1      28.417  14.195  -0.817  1.00  0.00     0.192 HD
ATOM     12  H2  UNL     1      29.266  13.692   1.383  1.00  0.00     0.171 HD
BRANCH  10  13
HETATM   13  N4  UNL     1      28.350  13.052  -2.543  1.00  0.00    -0.241 N 
HETATM   14  C11 UNL     1      27.294  12.416  -3.076  1.00  0.00     0.224 A 
HETATM   15  N5  UNL     1      27.406  12.432  -4.425  1.00  0.00    -0.293 N 
HETATM   16  N6  UNL     1      28.499  13.060  -4.724  1.00  0.00    -0.293 N 
ATOM     17  H5  UNL     1      26.747  12.023  -5.087  1.00  0.00     0.187 HD
HETATM   18  C12 UNL     1      29.101  13.453  -3.602  1.00  0.00     0.224 A 
ATOM     19  H6  UNL     1      28.844  13.227  -5.669  1.00  0.00     0.187 HD
ENDBRANCH  10  13
ENDBRANCH   5   7
BRANCH   4  20
HETATM   20  C8  UNL     1      32.544  12.510   1.783  1.00  0.00     0.290 C 
HETATM   21  O1  UNL     1      32.537  13.713   2.069  1.00  0.00    -0.300 OA
ENDBRANCH   4  20
BRANCH   1  22
HETATM   22  C5  UNL     1      30.857   8.594   4.359  1.00  0.00     0.043 C 
HETATM   23  C4  UNL     1      30.502   9.035   5.746  1.00  0.00     0.011 C 
HETATM   24  C3  UNL     1      30.345   7.747   6.555  1.00  0.00     0.005 C 
HETATM   25  C2  UNL     1      29.002   7.192   6.107  1.00  0.00    -0.019 C 
HETATM   26  C1  UNL     1      28.663   5.947   6.903  1.00  0.00     0.010 C 
HETATM   27  C14 UNL     1      28.925   6.993   4.633  1.00  0.00     0.005 C 
HETATM   28  C13 UNL     1      30.080   7.452   3.840  1.00  0.00     0.011 C 
ENDBRANCH   1  22
TORSDOF 4
ENDMDL
MODEL 4
REMARK VINA RESULT: -8.808961408      2.735      3.915
REMARK  4 active torsions:
REMARK  status: ('A' for Active; 'I' for Inactive)
REMARK    1  A    between atoms: C5_5  and  C6_6 
REMARK    2  A    between atoms: C7_9  and  C8_10 
REMARK    3  A    between atoms: C9_12  and  N2_13 
REMARK       I    between atoms: N2_13  and  C10_15 
REMARK       I    between atoms: C10_15  and  N3_17 
REMARK    4  A    between atoms: N3_17  and  N4_19 
ROOT
HETATM    1  C6  UNL     1      29.971  12.121  -0.535  1.00  0.00     0.057 A 
HETATM    2  N1  UNL     1      30.982  12.414   0.228  1.00  0.00    -0.349 N 
ATOM      3  H1  UNL     1      31.397  13.344   0.172  1.00  0.00     0.166 HD
HETATM    4  C7  UNL     1      31.478  11.540   1.065  1.00  0.00     0.105 A 
HETATM    5  C9  UNL     1      30.886  10.309   1.102  1.00  0.00     0.110 A 
HETATM    6  S1  UNL     1      29.642  10.505  -0.088  1.00  0.00    -0.056 SA
ENDROOT
BRANCH   5   7
HETATM    7  N2  UNL     1      31.165   9.139   1.882  1.00  0.00    -0.299 N 
HETATM    8  C10 UNL     1      30.294   8.927   3.024  1.00  0.00     0.340 C 
HETATM    9  O2  UNL     1      29.375   9.728   3.278  1.00  0.00    -0.245 OA
HETATM   10  N3  UNL     1      30.524   7.787   3.830  1.00  0.00    -0.243 N 
ATOM     11  H3  UNL     1      31.293   7.173   3.562  1.00  0.00     0.192 HD
ATOM     12  H2  UNL     1      31.925   8.499   1.650  1.00  0.00     0.171 HD
BRANCH  10  13
HETATM   13  N4  UNL     1      29.787   7.431   4.960  1.00  0.00    -0.241 N 
HETATM   14  C11 UNL     1      29.985   7.766   6.245  1.00  0.00     0.224 A 
HETATM   15  N5  UNL     1      29.021   7.194   7.003  1.00  0.00    -0.293 N 
HETATM   16  N6  UNL     1      28.244   6.523   6.214  1.00  0.00    -0.293 N 
ATOM     17  H5  UNL     1      28.924   7.277   8.015  1.00  0.00     0.187 HD
HETATM   18  C12 UNL     1      28.679   6.644   4.961  1.00  0.00     0.224 A 
ATOM     19  H6  UNL     1      27.427   5.985   6.506  1.00  0.00     0.187 HD
ENDBRANCH  10  13
ENDBRANCH   5   7
BRANCH   4  20
HETATM   20  C8  UNL     1      32.636  11.892   1.930  1.00  0.00     0.290 C 
HETATM   21  O1  UNL     1      33.600  11.127   2.040  1.00  0.00    -0.300 OA
ENDBRANCH   4  20
BRANCH   1  22
HETATM   22  C5  UNL     1      29.249  12.971  -1.562  1.00  0.00     0.043 C 
HETATM   23  C4  UNL     1      29.885  12.719  -2.895  1.00  0.00     0.011 C 
HETATM   24  C3  UNL     1      28.965  13.387  -3.917  1.00  0.00     0.005 C 
HETATM   25  C2  UNL     1      27.775  12.446  -4.014  1.00  0.00    -0.019 C 
HETATM   26  C1  UNL     1      26.809  12.936  -5.073  1.00  0.00     0.010 C 
HETATM   27  C14 UNL     1      27.132  12.196  -2.694  1.00  0.00     0.005 C 
HETATM   28  C13 UNL     1      27.786  12.787  -1.513  1.00  0.00     0.011 C 
ENDBRANCH   1  22
TORSDOF 4
ENDMDL
MODEL 5
REMARK VINA RESULT: -8.746057034      1.105      1.198
REMARK  4 active torsions:
REMARK  status: ('A' for Active; 'I' for Inactive)
REMARK    1  A    between atoms: C5_5  and  C6_6 
REMARK    2  A    between atoms: C7_9  and  C8_10 
REMARK    3  A    between atoms: C9_12  and  N2_13 
REMARK       I    between atoms: N2_13  and  C10_15 
REMARK       I    between atoms: C10_15  and  N3_17 
REMARK    4  A    between atoms: N3_17  and  N4_19 
ROOT
HETATM    1  C6  UNL     1      29.449  13.307  -0.071  1.00  0.00     0.057 A 
HETATM    2  N1  UNL     1      28.567  12.488  -0.562  1.00  0.00    -0.349 N 
ATOM      3  H1  UNL     1      27.819  12.854  -1.151  1.00  0.00     0.166 HD
HETATM    4  C7  UNL     1      28.619  11.205  -0.316  1.00  0.00     0.105 A 
HETATM    5  C9  UNL     1      29.641  10.765   0.477  1.00  0.00     0.110 A 
HETATM    6  S1  UNL     1      30.461  12.253   0.816  1.00  0.00    -0.056 SA
ENDROOT
BRANCH   5   7
HETATM    7  N2  UNL     1      29.993   9.454   0.940  1.00  0.00    -0.299 N 
HETATM    8  C10 UNL     1      29.661   9.170   2.324  1.00  0.00     0.340 C 
HETATM    9  O2  UNL     1      29.106  10.031   3.033  1.00  0.00    -0.245 OA
HETATM   10  N3  UNL     1      29.986   7.891   2.835  1.00  0.00    -0.243 N 
ATOM     11  H3  UNL     1      30.438   7.235   2.198  1.00  0.00     0.192 HD
ATOM     12  H2  UNL     1      30.446   8.768   0.337  1.00  0.00     0.171 HD
BRANCH  10  13
HETATM   13  N4  UNL     1      29.740   7.451   4.136  1.00  0.00    -0.241 N 
HETATM   14  C11 UNL     1      30.516   7.549   5.228  1.00  0.00     0.224 A 
HETATM   15  N5  UNL     1      29.873   6.985   6.276  1.00  0.00    -0.293 N 
HETATM   16  N6  UNL     1      28.730   6.548   5.851  1.00  0.00    -0.293 N 
ATOM     17  H5  UNL     1      30.226   6.915   7.231  1.00  0.00     0.187 HD
HETATM   18  C12 UNL     1      28.614   6.815   4.551  1.00  0.00     0.224 A 
ATOM     19  H6  UNL     1      28.030   6.074   6.422  1.00  0.00     0.187 HD
ENDBRANCH  10  13
ENDBRANCH   5   7
BRANCH   4  20
HETATM   20  C8  UNL     1      27.601  10.283  -0.886  1.00  0.00     0.290 C 
HETATM   21  O1  UNL     1      27.940   9.298  -1.553  1.00  0.00    -0.300 OA
ENDBRANCH   4  20
BRANCH   1  22
HETATM   22  C5  UNL     1      29.574  14.810  -0.226  1.00  0.00     0.043 C 
HETATM   23  C4  UNL     1      29.364  15.429   1.121  1.00  0.00     0.011 C 
HETATM   24  C3  UNL     1      29.756  16.898   0.959  1.00  0.00     0.005 C 
HETATM   25  C2  UNL     1      31.276  16.873   0.918  1.00  0.00    -0.019 C 
HETATM   26  C1  UNL     1      31.818  18.286   0.853  1.00  0.00     0.010 C 
HETATM   27  C14 UNL     1      31.807  15.983  -0.152  1.00  0.00     0.005 C 
HETATM   28  C13 UNL     1      30.819  15.200  -0.915  1.00  0.00     0.011 C 
ENDBRANCH   1  22
TORSDOF 4
ENDMDL
