MODEL 1
REMARK VINA RESULT: -8.193502813      0.000      0.000
REMARK  15 active torsions:
REMARK  status: ('A' for Active; 'I' for Inactive)
REMARK    1  A    between atoms: C3_4  and  O2_5 
REMARK    2  A    between atoms: O2_5  and  C4_6 
REMARK    3  A    between atoms: C4_6  and  C5_7 
REMARK    4  A    between atoms: C5_7  and  O3_8 
REMARK    5  A    between atoms: O3_8  and  C6_9 
REMARK    6  A    between atoms: C6_9  and  C7_10 
REMARK    7  A    between atoms: C7_10  and  O4_11 
REMARK    8  A    between atoms: O4_11  and  C8_12 
REMARK    9  A    between atoms: C8_12  and  N1_13 
REMARK   10  A    between atoms: C9_14  and  O5_15 
REMARK   11  A    between atoms: C10_17  and  C11_18 
REMARK   12  A    between atoms: C12_19  and  C13_20 
REMARK   13  A    between atoms: C18_28  and  O6_29 
REMARK   14  A    between atoms: C19_31  and  O7_32 
REMARK   15  A    between atoms: C20_34  and  O8_35 
ROOT
HETATM    1  C6  UNL     1      27.451  11.563  -1.450  1.00  0.00     0.193 C 
ENDROOT
BRANCH   1   2
HETATM    2  O3  UNL     1      27.456  10.446  -0.723  1.00  0.00    -0.387 OA
BRANCH   2   3
HETATM    3  C5  UNL     1      28.244   9.396  -1.045  1.00  0.00     0.194 C 
BRANCH   3   4
HETATM    4  C4  UNL     1      29.499   9.422  -0.120  1.00  0.00     0.197 C 
BRANCH   4   5
HETATM    5  O2  UNL     1      29.231   8.663   0.985  1.00  0.00    -0.356 OA
BRANCH   5   6
HETATM    6  C3  UNL     1      30.134   8.720   2.010  1.00  0.00     0.291 C 
HETATM    7  O1  UNL     1      31.055   9.745   1.695  1.00  0.00    -0.351 OA
HETATM    8  C2  UNL     1      32.212   9.512   2.405  1.00  0.00     0.152 C 
HETATM    9  C1  UNL     1      33.030  10.810   2.347  1.00  0.00     0.042 C 
HETATM   10  C20 UNL     1      31.975   9.094   3.830  1.00  0.00     0.178 C 
HETATM   11  C19 UNL     1      30.610   9.611   4.236  1.00  0.00     0.183 C 
HETATM   12  C18 UNL     1      29.519   9.107   3.334  1.00  0.00     0.204 C 
BRANCH  10  13
HETATM   13  O8  UNL     1      32.917   9.733   4.635  1.00  0.00    -0.390 OA
ATOM     14  H8  UNL     1      32.471  10.402   5.141  1.00  0.00     0.210 HD
ENDBRANCH  10  13
BRANCH  11  15
HETATM   15  O7  UNL     1      30.334   9.317   5.566  1.00  0.00    -0.390 OA
ATOM     16  H7  UNL     1      31.028   8.796   5.952  1.00  0.00     0.210 HD
ENDBRANCH  11  15
BRANCH  12  17
HETATM   17  O6  UNL     1      28.568  10.117   3.207  1.00  0.00    -0.388 OA
ATOM     18  H6  UNL     1      28.432  10.593   4.017  1.00  0.00     0.210 HD
ENDBRANCH  12  17
ENDBRANCH   5   6
ENDBRANCH   4   5
ENDBRANCH   3   4
ENDBRANCH   2   3
ENDBRANCH   1   2
BRANCH   1  19
HETATM   19  C7  UNL     1      27.978  12.778  -0.755  1.00  0.00     0.196 C 
BRANCH  19  20
HETATM   20  O4  UNL     1      29.316  12.936  -0.953  1.00  0.00    -0.369 OA
BRANCH  20  21
HETATM   21  C8  UNL     1      30.059  13.184   0.178  1.00  0.00     0.303 C 
BRANCH  21  22
HETATM   22  N1  UNL     1      30.474  14.544   0.297  1.00  0.00    -0.280 N 
HETATM   23  C9  UNL     1      30.410  15.590  -0.561  1.00  0.00     0.182 A 
HETATM   24  C10 UNL     1      30.927  16.721   0.007  1.00  0.00     0.140 A 
HETATM   25  N2  UNL     1      31.313  16.350   1.241  1.00  0.00    -0.322 N 
HETATM   26  C17 UNL     1      31.047  15.046   1.429  1.00  0.00     0.182 A 
ATOM     27  H2  UNL     1      31.743  16.966   1.931  1.00  0.00     0.169 HD
HETATM   28  S1  UNL     1      31.357  14.183   2.794  1.00  0.00    -0.040 SA
BRANCH  23  29
HETATM   29  O5  UNL     1      29.890  15.509  -1.838  1.00  0.00    -0.344 OA
ATOM     30  H5  UNL     1      30.184  14.885  -2.491  1.00  0.00     0.219 HD
ENDBRANCH  23  29
BRANCH  24  31
HETATM   31  C11 UNL     1      31.028  18.031  -0.605  1.00  0.00    -0.043 C 
HETATM   32  C12 UNL     1      31.132  19.115  -1.120  1.00  0.00    -0.090 C 
BRANCH  32  33
HETATM   33  C13 UNL     1      31.278  20.435  -1.767  1.00  0.00     0.013 C 
HETATM   34  C14 UNL     1      31.334  20.251  -3.281  1.00  0.00     0.028 C 
HETATM   35  C15 UNL     1      30.068  21.272  -1.459  1.00  0.00     0.028 C 
HETATM   36  C16 UNL     1      32.550  21.126  -1.332  1.00  0.00     0.028 C 
ENDBRANCH  32  33
ENDBRANCH  24  31
ENDBRANCH  21  22
ENDBRANCH  20  21
ENDBRANCH  19  20
ENDBRANCH   1  19
TORSDOF 15
ENDMDL
MODEL 2
REMARK VINA RESULT: -7.973261485      3.297      6.062
REMARK  15 active torsions:
REMARK  status: ('A' for Active; 'I' for Inactive)
REMARK    1  A    between atoms: C3_4  and  O2_5 
REMARK    2  A    between atoms: O2_5  and  C4_6 
REMARK    3  A    between atoms: C4_6  and  C5_7 
REMARK    4  A    between atoms: C5_7  and  O3_8 
REMARK    5  A    between atoms: O3_8  and  C6_9 
REMARK    6  A    between atoms: C6_9  and  C7_10 
REMARK    7  A    between atoms: C7_10  and  O4_11 
REMARK    8  A    between atoms: O4_11  and  C8_12 
REMARK    9  A    between atoms: C8_12  and  N1_13 
REMARK   10  A    between atoms: C9_14  and  O5_15 
REMARK   11  A    between atoms: C10_17  and  C11_18 
REMARK   12  A    between atoms: C12_19  and  C13_20 
REMARK   13  A    between atoms: C18_28  and  O6_29 
REMARK   14  A    between atoms: C19_31  and  O7_32 
REMARK   15  A    between atoms: C20_34  and  O8_35 
ROOT
HETATM    1  C6  UNL     1      30.394   9.998   1.316  1.00  0.00     0.193 C 
ENDROOT
BRANCH   1   2
HETATM    2  O3  UNL     1      29.491   9.023   1.223  1.00  0.00    -0.387 OA
BRANCH   2   3
HETATM    3  C5  UNL     1      28.197   9.281   0.931  1.00  0.00     0.194 C 
BRANCH   3   4
HETATM    4  C4  UNL     1      28.039   9.304  -0.620  1.00  0.00     0.197 C 
BRANCH   4   5
HETATM    5  O2  UNL     1      27.449  10.486  -0.971  1.00  0.00    -0.356 OA
BRANCH   5   6
HETATM    6  C3  UNL     1      28.203  11.364  -1.698  1.00  0.00     0.291 C 
HETATM    7  O1  UNL     1      27.399  11.814  -2.770  1.00  0.00    -0.351 OA
HETATM    8  C2  UNL     1      28.232  12.278  -3.764  1.00  0.00     0.152 C 
HETATM    9  C1  UNL     1      27.356  13.093  -4.725  1.00  0.00     0.042 C 
HETATM   10  C20 UNL     1      29.379  13.107  -3.255  1.00  0.00     0.178 C 
HETATM   11  C19 UNL     1      28.970  13.675  -1.912  1.00  0.00     0.183 C 
HETATM   12  C18 UNL     1      28.599  12.602  -0.928  1.00  0.00     0.204 C 
BRANCH  10  13
HETATM   13  O8  UNL     1      29.559  14.183  -4.124  1.00  0.00    -0.390 OA
ATOM     14  H8  UNL     1      28.764  14.701  -4.124  1.00  0.00     0.210 HD
ENDBRANCH  10  13
BRANCH  11  15
HETATM   15  O7  UNL     1      29.956  14.507  -1.394  1.00  0.00    -0.390 OA
ATOM     16  H7  UNL     1      29.740  14.783  -0.511  1.00  0.00     0.210 HD
ENDBRANCH  11  15
BRANCH  12  17
HETATM   17  O6  UNL     1      27.563  13.089  -0.133  1.00  0.00    -0.388 OA
ATOM     18  H6  UNL     1      27.234  12.439   0.475  1.00  0.00     0.210 HD
ENDBRANCH  12  17
ENDBRANCH   5   6
ENDBRANCH   4   5
ENDBRANCH   3   4
ENDBRANCH   2   3
ENDBRANCH   1   2
BRANCH   1  19
HETATM   19  C7  UNL     1      31.375   9.853   2.435  1.00  0.00     0.196 C 
BRANCH  19  20
HETATM   20  O4  UNL     1      31.751  11.061   2.941  1.00  0.00    -0.369 OA
BRANCH  20  21
HETATM   21  C8  UNL     1      31.076  12.150   2.441  1.00  0.00     0.303 C 
BRANCH  21  22
HETATM   22  N1  UNL     1      31.937  13.205   2.015  1.00  0.00    -0.280 N 
HETATM   23  C9  UNL     1      33.263  13.239   1.742  1.00  0.00     0.182 A 
HETATM   24  C10 UNL     1      33.649  14.490   1.347  1.00  0.00     0.140 A 
HETATM   25  N2  UNL     1      32.528  15.232   1.382  1.00  0.00    -0.322 N 
HETATM   26  C17 UNL     1      31.492  14.474   1.782  1.00  0.00     0.182 A 
ATOM     27  H2  UNL     1      32.472  16.222   1.142  1.00  0.00     0.169 HD
HETATM   28  S1  UNL     1      29.938  14.979   1.964  1.00  0.00    -0.040 SA
BRANCH  23  29
HETATM   29  O5  UNL     1      34.101  12.147   1.853  1.00  0.00    -0.344 OA
ATOM     30  H5  UNL     1      34.109  11.420   1.241  1.00  0.00     0.219 HD
ENDBRANCH  23  29
BRANCH  24  31
HETATM   31  C11 UNL     1      34.986  14.907   0.975  1.00  0.00    -0.043 C 
HETATM   32  C12 UNL     1      36.101  15.235   0.658  1.00  0.00    -0.090 C 
BRANCH  32  33
HETATM   33  C13 UNL     1      37.469  15.617   0.252  1.00  0.00     0.013 C 
HETATM   34  C14 UNL     1      38.040  14.542  -0.669  1.00  0.00     0.028 C 
HETATM   35  C15 UNL     1      37.411  16.898  -0.532  1.00  0.00     0.028 C 
HETATM   36  C16 UNL     1      38.385  15.744   1.447  1.00  0.00     0.028 C 
ENDBRANCH  32  33
ENDBRANCH  24  31
ENDBRANCH  21  22
ENDBRANCH  20  21
ENDBRANCH  19  20
ENDBRANCH   1  19
TORSDOF 15
ENDMDL
MODEL 3
REMARK VINA RESULT: -7.944545587      0.944      1.850
REMARK  15 active torsions:
REMARK  status: ('A' for Active; 'I' for Inactive)
REMARK    1  A    between atoms: C3_4  and  O2_5 
REMARK    2  A    between atoms: O2_5  and  C4_6 
REMARK    3  A    between atoms: C4_6  and  C5_7 
REMARK    4  A    between atoms: C5_7  and  O3_8 
REMARK    5  A    between atoms: O3_8  and  C6_9 
REMARK    6  A    between atoms: C6_9  and  C7_10 
REMARK    7  A    between atoms: C7_10  and  O4_11 
REMARK    8  A    between atoms: O4_11  and  C8_12 
REMARK    9  A    between atoms: C8_12  and  N1_13 
REMARK   10  A    between atoms: C9_14  and  O5_15 
REMARK   11  A    between atoms: C10_17  and  C11_18 
REMARK   12  A    between atoms: C12_19  and  C13_20 
REMARK   13  A    between atoms: C18_28  and  O6_29 
REMARK   14  A    between atoms: C19_31  and  O7_32 
REMARK   15  A    between atoms: C20_34  and  O8_35 
ROOT
HETATM    1  C6  UNL     1      28.402  11.480  -1.350  1.00  0.00     0.193 C 
ENDROOT
BRANCH   1   2
HETATM    2  O3  UNL     1      28.191  10.179  -1.546  1.00  0.00    -0.387 OA
BRANCH   2   3
HETATM    3  C5  UNL     1      29.075   9.247  -1.127  1.00  0.00     0.194 C 
BRANCH   3   4
HETATM    4  C4  UNL     1      29.065   9.226   0.432  1.00  0.00     0.197 C 
BRANCH   4   5
HETATM    5  O2  UNL     1      30.316   9.558   0.871  1.00  0.00    -0.356 OA
BRANCH   5   6
HETATM    6  C3  UNL     1      30.495   9.647   2.224  1.00  0.00     0.291 C 
HETATM    7  O1  UNL     1      29.951   8.472   2.792  1.00  0.00    -0.351 OA
HETATM    8  C2  UNL     1      29.663   8.732   4.114  1.00  0.00     0.152 C 
HETATM    9  C1  UNL     1      29.442   7.371   4.789  1.00  0.00     0.042 C 
HETATM   10  C20 UNL     1      30.733   9.513   4.825  1.00  0.00     0.178 C 
HETATM   11  C19 UNL     1      32.035   9.281   4.087  1.00  0.00     0.183 C 
HETATM   12  C18 UNL     1      31.947   9.675   2.640  1.00  0.00     0.204 C 
BRANCH  10  13
HETATM   13  O8  UNL     1      30.881   8.983   6.107  1.00  0.00    -0.390 OA
ATOM     14  H8  UNL     1      31.416   8.200   6.044  1.00  0.00     0.210 HD
ENDBRANCH  10  13
BRANCH  11  15
HETATM   15  O7  UNL     1      33.094   9.924   4.716  1.00  0.00    -0.390 OA
ATOM     16  H7  UNL     1      32.783  10.613   5.290  1.00  0.00     0.210 HD
ENDBRANCH  11  15
BRANCH  12  17
HETATM   17  O6  UNL     1      32.730   8.787   1.906  1.00  0.00    -0.388 OA
ATOM     18  H6  UNL     1      33.647   8.820   2.153  1.00  0.00     0.210 HD
ENDBRANCH  12  17
ENDBRANCH   5   6
ENDBRANCH   4   5
ENDBRANCH   3   4
ENDBRANCH   2   3
ENDBRANCH   1   2
BRANCH   1  19
HETATM   19  C7  UNL     1      29.624  12.033  -2.010  1.00  0.00     0.196 C 
BRANCH  19  20
HETATM   20  O4  UNL     1      30.542  12.465  -1.100  1.00  0.00    -0.369 OA
BRANCH  20  21
HETATM   21  C8  UNL     1      30.025  13.068   0.023  1.00  0.00     0.303 C 
BRANCH  21  22
HETATM   22  N1  UNL     1      30.464  14.415   0.196  1.00  0.00    -0.280 N 
HETATM   23  C9  UNL     1      30.405  15.499  -0.613  1.00  0.00     0.182 A 
HETATM   24  C10 UNL     1      30.948  16.596  -0.004  1.00  0.00     0.140 A 
HETATM   25  N2  UNL     1      31.346  16.164   1.206  1.00  0.00    -0.322 N 
HETATM   26  C17 UNL     1      31.061  14.857   1.340  1.00  0.00     0.182 A 
ATOM     27  H2  UNL     1      31.796  16.742   1.916  1.00  0.00     0.169 HD
HETATM   28  S1  UNL     1      31.377  13.929   2.660  1.00  0.00    -0.040 SA
BRANCH  23  29
HETATM   29  O5  UNL     1      29.865  15.483  -1.886  1.00  0.00    -0.344 OA
ATOM     30  H5  UNL     1      29.239  14.836  -2.187  1.00  0.00     0.219 HD
ENDBRANCH  23  29
BRANCH  24  31
HETATM   31  C11 UNL     1      31.062  17.929  -0.559  1.00  0.00    -0.043 C 
HETATM   32  C12 UNL     1      31.155  19.030  -1.039  1.00  0.00    -0.090 C 
BRANCH  32  33
HETATM   33  C13 UNL     1      31.258  20.371  -1.651  1.00  0.00     0.013 C 
HETATM   34  C14 UNL     1      31.378  20.227  -3.166  1.00  0.00     0.028 C 
HETATM   35  C15 UNL     1      29.996  21.139  -1.370  1.00  0.00     0.028 C 
HETATM   36  C16 UNL     1      32.476  21.114  -1.153  1.00  0.00     0.028 C 
ENDBRANCH  32  33
ENDBRANCH  24  31
ENDBRANCH  21  22
ENDBRANCH  20  21
ENDBRANCH  19  20
ENDBRANCH   1  19
TORSDOF 15
ENDMDL
MODEL 4
REMARK VINA RESULT: -7.805379685      1.440      1.940
REMARK  15 active torsions:
REMARK  status: ('A' for Active; 'I' for Inactive)
REMARK    1  A    between atoms: C3_4  and  O2_5 
REMARK    2  A    between atoms: O2_5  and  C4_6 
REMARK    3  A    between atoms: C4_6  and  C5_7 
REMARK    4  A    between atoms: C5_7  and  O3_8 
REMARK    5  A    between atoms: O3_8  and  C6_9 
REMARK    6  A    between atoms: C6_9  and  C7_10 
REMARK    7  A    between atoms: C7_10  and  O4_11 
REMARK    8  A    between atoms: O4_11  and  C8_12 
REMARK    9  A    between atoms: C8_12  and  N1_13 
REMARK   10  A    between atoms: C9_14  and  O5_15 
REMARK   11  A    between atoms: C10_17  and  C11_18 
REMARK   12  A    between atoms: C12_19  and  C13_20 
REMARK   13  A    between atoms: C18_28  and  O6_29 
REMARK   14  A    between atoms: C19_31  and  O7_32 
REMARK   15  A    between atoms: C20_34  and  O8_35 
ROOT
HETATM    1  C6  UNL     1      29.222  12.407   0.082  1.00  0.00     0.193 C 
ENDROOT
BRANCH   1   2
HETATM    2  O3  UNL     1      28.330  11.441   0.301  1.00  0.00    -0.387 OA
BRANCH   2   3
HETATM    3  C5  UNL     1      28.274  10.338  -0.478  1.00  0.00     0.194 C 
BRANCH   3   4
HETATM    4  C4  UNL     1      29.532   9.464  -0.181  1.00  0.00     0.197 C 
BRANCH   4   5
HETATM    5  O2  UNL     1      29.263   8.688   0.912  1.00  0.00    -0.356 OA
BRANCH   5   6
HETATM    6  C3  UNL     1      30.156   8.743   1.945  1.00  0.00     0.291 C 
HETATM    7  O1  UNL     1      31.083   9.765   1.639  1.00  0.00    -0.351 OA
HETATM    8  C2  UNL     1      32.233   9.529   2.360  1.00  0.00     0.152 C 
HETATM    9  C1  UNL     1      33.054  10.824   2.309  1.00  0.00     0.042 C 
HETATM   10  C20 UNL     1      31.981   9.113   3.783  1.00  0.00     0.178 C 
HETATM   11  C19 UNL     1      30.614   9.633   4.176  1.00  0.00     0.183 C 
HETATM   12  C18 UNL     1      29.530   9.132   3.264  1.00  0.00     0.204 C 
BRANCH  10  13
HETATM   13  O8  UNL     1      32.917   9.750   4.596  1.00  0.00    -0.390 OA
ATOM     14  H8  UNL     1      32.564  10.593   4.852  1.00  0.00     0.210 HD
ENDBRANCH  10  13
BRANCH  11  15
HETATM   15  O7  UNL     1      30.324   9.341   5.503  1.00  0.00    -0.390 OA
ATOM     16  H7  UNL     1      30.073  10.125   5.977  1.00  0.00     0.210 HD
ENDBRANCH  11  15
BRANCH  12  17
HETATM   17  O6  UNL     1      28.583  10.145   3.127  1.00  0.00    -0.388 OA
ATOM     18  H6  UNL     1      28.751  10.702   2.376  1.00  0.00     0.210 HD
ENDBRANCH  12  17
ENDBRANCH   5   6
ENDBRANCH   4   5
ENDBRANCH   3   4
ENDBRANCH   2   3
ENDBRANCH   1   2
BRANCH   1  19
HETATM   19  C7  UNL     1      29.901  12.936   1.304  1.00  0.00     0.196 C 
BRANCH  19  20
HETATM   20  O4  UNL     1      30.117  14.279   1.224  1.00  0.00    -0.369 OA
BRANCH  20  21
HETATM   21  C8  UNL     1      31.242  14.738   1.869  1.00  0.00     0.303 C 
BRANCH  21  22
HETATM   22  N1  UNL     1      31.787  15.921   1.285  1.00  0.00    -0.280 N 
HETATM   23  C9  UNL     1      31.216  17.087   0.897  1.00  0.00     0.182 A 
HETATM   24  C10 UNL     1      32.153  17.948   0.397  1.00  0.00     0.140 A 
HETATM   25  N2  UNL     1      33.321  17.287   0.485  1.00  0.00    -0.322 N 
HETATM   26  C17 UNL     1      33.116  16.068   1.016  1.00  0.00     0.182 A 
ATOM     27  H2  UNL     1      34.227  17.654   0.193  1.00  0.00     0.169 HD
HETATM   28  S1  UNL     1      34.270  14.932   1.302  1.00  0.00    -0.040 SA
BRANCH  23  29
HETATM   29  O5  UNL     1      29.865  17.354   0.997  1.00  0.00    -0.344 OA
ATOM     30  H5  UNL     1      29.400  17.435   1.821  1.00  0.00     0.219 HD
ENDBRANCH  23  29
BRANCH  24  31
HETATM   31  C11 UNL     1      31.919  19.283  -0.114  1.00  0.00    -0.043 C 
HETATM   32  C12 UNL     1      31.713  20.385  -0.555  1.00  0.00    -0.090 C 
BRANCH  32  33
HETATM   33  C13 UNL     1      31.439  21.728  -1.107  1.00  0.00     0.013 C 
HETATM   34  C14 UNL     1      31.278  22.722   0.040  1.00  0.00     0.028 C 
HETATM   35  C15 UNL     1      32.617  22.173  -1.927  1.00  0.00     0.028 C 
HETATM   36  C16 UNL     1      30.166  21.742  -1.921  1.00  0.00     0.028 C 
ENDBRANCH  32  33
ENDBRANCH  24  31
ENDBRANCH  21  22
ENDBRANCH  20  21
ENDBRANCH  19  20
ENDBRANCH   1  19
TORSDOF 15
ENDMDL
MODEL 5
REMARK VINA RESULT: -7.784302726      2.144      4.827
REMARK  15 active torsions:
REMARK  status: ('A' for Active; 'I' for Inactive)
REMARK    1  A    between atoms: C3_4  and  O2_5 
REMARK    2  A    between atoms: O2_5  and  C4_6 
REMARK    3  A    between atoms: C4_6  and  C5_7 
REMARK    4  A    between atoms: C5_7  and  O3_8 
REMARK    5  A    between atoms: O3_8  and  C6_9 
REMARK    6  A    between atoms: C6_9  and  C7_10 
REMARK    7  A    between atoms: C7_10  and  O4_11 
REMARK    8  A    between atoms: O4_11  and  C8_12 
REMARK    9  A    between atoms: C8_12  and  N1_13 
REMARK   10  A    between atoms: C9_14  and  O5_15 
REMARK   11  A    between atoms: C10_17  and  C11_18 
REMARK   12  A    between atoms: C12_19  and  C13_20 
REMARK   13  A    between atoms: C18_28  and  O6_29 
REMARK   14  A    between atoms: C19_31  and  O7_32 
REMARK   15  A    between atoms: C20_34  and  O8_35 
ROOT
HETATM    1  C6  UNL     1      32.346  11.209   2.118  1.00  0.00     0.193 C 
ENDROOT
BRANCH   1   2
HETATM    2  O3  UNL     1      31.299  10.416   1.891  1.00  0.00    -0.387 OA
BRANCH   2   3
HETATM    3  C5  UNL     1      30.073  10.703   2.382  1.00  0.00     0.194 C 
BRANCH   3   4
HETATM    4  C4  UNL     1      29.031  10.525   1.235  1.00  0.00     0.197 C 
BRANCH   4   5
HETATM    5  O2  UNL     1      29.702  10.534   0.044  1.00  0.00    -0.356 OA
BRANCH   5   6
HETATM    6  C3  UNL     1      29.366  11.513  -0.849  1.00  0.00     0.291 C 
HETATM    7  O1  UNL     1      30.478  11.697  -1.701  1.00  0.00    -0.351 OA
HETATM    8  C2  UNL     1      30.386  12.953  -2.260  1.00  0.00     0.152 C 
HETATM    9  C1  UNL     1      31.364  12.980  -3.441  1.00  0.00     0.042 C 
HETATM   10  C20 UNL     1      28.997  13.314  -2.709  1.00  0.00     0.178 C 
HETATM   11  C19 UNL     1      28.248  12.023  -2.962  1.00  0.00     0.183 C 
HETATM   12  C18 UNL     1      28.211  11.138  -1.748  1.00  0.00     0.204 C 
BRANCH  10  13
HETATM   13  O8  UNL     1      29.093  13.984  -3.928  1.00  0.00    -0.390 OA
ATOM     14  H8  UNL     1      28.245  13.950  -4.354  1.00  0.00     0.210 HD
ENDBRANCH  10  13
BRANCH  11  15
HETATM   15  O7  UNL     1      26.965  12.267  -3.440  1.00  0.00    -0.390 OA
ATOM     16  H7  UNL     1      26.933  13.081  -3.928  1.00  0.00     0.210 HD
ENDBRANCH  11  15
BRANCH  12  17
HETATM   17  O6  UNL     1      28.279   9.815  -2.180  1.00  0.00    -0.388 OA
ATOM     18  H6  UNL     1      28.012   9.713  -3.086  1.00  0.00     0.210 HD
ENDBRANCH  12  17
ENDBRANCH   5   6
ENDBRANCH   4   5
ENDBRANCH   3   4
ENDBRANCH   2   3
ENDBRANCH   1   2
BRANCH   1  19
HETATM   19  C7  UNL     1      32.269  12.560   1.482  1.00  0.00     0.196 C 
BRANCH  19  20
HETATM   20  O4  UNL     1      32.324  13.560   2.407  1.00  0.00    -0.369 OA
BRANCH  20  21
HETATM   21  C8  UNL     1      31.141  14.224   2.634  1.00  0.00     0.303 C 
BRANCH  21  22
HETATM   22  N1  UNL     1      30.858  15.229   1.661  1.00  0.00    -0.280 N 
HETATM   23  C9  UNL     1      31.604  16.245   1.164  1.00  0.00     0.182 A 
HETATM   24  C10 UNL     1      30.905  16.950   0.225  1.00  0.00     0.140 A 
HETATM   25  N2  UNL     1      29.705  16.346   0.151  1.00  0.00    -0.322 N 
HETATM   26  C17 UNL     1      29.663  15.311   1.009  1.00  0.00     0.182 A 
ATOM     27  H2  UNL     1      28.942  16.630  -0.462  1.00  0.00     0.169 HD
HETATM   28  S1  UNL     1      28.387  14.301   1.243  1.00  0.00    -0.040 SA
BRANCH  23  29
HETATM   29  O5  UNL     1      32.897  16.520   1.564  1.00  0.00    -0.344 OA
ATOM     30  H5  UNL     1      33.225  16.360   2.441  1.00  0.00     0.219 HD
ENDBRANCH  23  29
BRANCH  24  31
HETATM   31  C11 UNL     1      31.373  18.100  -0.522  1.00  0.00    -0.043 C 
HETATM   32  C12 UNL     1      31.781  19.054  -1.134  1.00  0.00    -0.090 C 
BRANCH  32  33
HETATM   33  C13 UNL     1      32.306  20.215  -1.883  1.00  0.00     0.013 C 
HETATM   34  C14 UNL     1      32.154  21.474  -1.034  1.00  0.00     0.028 C 
HETATM   35  C15 UNL     1      33.774  20.016  -2.135  1.00  0.00     0.028 C 
HETATM   36  C16 UNL     1      31.551  20.426  -3.175  1.00  0.00     0.028 C 
ENDBRANCH  32  33
ENDBRANCH  24  31
ENDBRANCH  21  22
ENDBRANCH  20  21
ENDBRANCH  19  20
ENDBRANCH   1  19
TORSDOF 15
ENDMDL
