MODEL 1
REMARK VINA RESULT: -8.240754226      0.000      0.000
REMARK  10 active torsions:
REMARK  status: ('A' for Active; 'I' for Inactive)
REMARK    1  A    between atoms: C4_10  and  C5_11 
REMARK       I    between atoms: C5_11  and  N3_13 
REMARK    2  A    between atoms: N3_13  and  C6_15 
REMARK    3  A    between atoms: C6_15  and  C7_16 
REMARK       I    between atoms: C7_16  and  N4_18 
REMARK    4  A    between atoms: N4_18  and  N5_20 
REMARK       I    between atoms: N5_20  and  C8_22 
REMARK    5  A    between atoms: C8_22  and  C9_24 
REMARK    6  A    between atoms: C9_24  and  S1_25 
REMARK    7  A    between atoms: S1_25  and  C10_26 
REMARK    8  A    between atoms: C11_30  and  N8_31 
REMARK    9  A    between atoms: N10_37  and  C13_39 
REMARK   10  A    between atoms: C13_39  and  C14_40 
ROOT
HETATM    1  N5  UNL     1     113.126  63.500  42.025  1.00  0.00    -0.267 N 
ATOM      2  H5  UNL     1     113.917  63.340  42.648  1.00  0.00     0.190 HD
HETATM    3  C8  UNL     1     111.956  64.113  42.506  1.00  0.00     0.245 C 
HETATM    4  O4  UNL     1     110.989  64.302  41.710  1.00  0.00    -0.271 OA
ENDROOT
BRANCH   3   5
HETATM    5  C9  UNL     1     111.811  64.545  43.903  1.00  0.00     0.186 C 
BRANCH   5   6
HETATM    6  S1  UNL     1     111.513  63.076  44.924  1.00  0.00    -0.094 SA
BRANCH   6   7
HETATM    7  C10 UNL     1     110.271  62.023  44.128  1.00  0.00     0.129 A 
HETATM    8  N6  UNL     1     110.587  60.930  43.452  1.00  0.00    -0.266 N 
HETATM    9  N7  UNL     1     109.771  60.116  42.855  1.00  0.00    -0.079 N 
ATOM     10  H6  UNL     1     111.580  60.702  43.394  1.00  0.00     0.189 HD
HETATM   11  C11 UNL     1     110.091  58.988  42.153  1.00  0.00     0.699 A 
HETATM   12  C15 UNL     1     108.361  60.203  42.784  1.00  0.00     0.150 A 
HETATM   13  N9  UNL     1     108.980  58.417  41.684  1.00  0.00    -0.173 N 
HETATM   14  C12 UNL     1     107.885  59.111  42.034  1.00  0.00     0.149 A 
ATOM     15  H9  UNL     1     108.963  57.561  41.130  1.00  0.00     0.186 HD
HETATM   16  N10 UNL     1     106.645  58.880  41.774  1.00  0.00    -0.364 N 
ATOM     17  H10 UNL     1     105.914  59.505  42.114  1.00  0.00     0.161 HD
HETATM   18  C16 UNL     1     107.639  61.224  43.378  1.00  0.00     0.122 A 
HETATM   19  N11 UNL     1     106.223  61.256  43.277  1.00  0.00    -0.092 NA
HETATM   20  S2  UNL     1     108.594  62.369  44.201  1.00  0.00    -0.047 SA
BRANCH  11  21
HETATM   21  N8  UNL     1     111.261  58.518  41.952  1.00  0.00    -0.233 N 
ATOM     22  H82 UNL     1     111.876  58.842  41.205  1.00  0.00     0.174 HD
ATOM     23  H81 UNL     1     111.725  57.784  42.487  1.00  0.00     0.174 HD
ENDBRANCH  11  21
BRANCH  16  24
HETATM   24  C13 UNL     1     106.317  57.711  40.987  1.00  0.00     0.234 C 
BRANCH  24  25
HETATM   25  C14 UNL     1     104.920  57.272  41.196  1.00  0.00     0.191 C 
HETATM   26  O5  UNL     1     104.727  56.015  41.047  1.00  0.00    -0.647 OA
HETATM   27  O6  UNL     1     103.924  58.157  41.525  1.00  0.00    -0.647 OA
ENDBRANCH  24  25
ENDBRANCH  16  24
ENDBRANCH   6   7
ENDBRANCH   5   6
ENDBRANCH   3   5
BRANCH   1  28
HETATM   28  N4  UNL     1     113.194  63.112  40.685  1.00  0.00    -0.266 N 
HETATM   29  C7  UNL     1     113.058  61.766  40.321  1.00  0.00     0.253 C 
HETATM   30  O3  UNL     1     112.860  60.927  41.251  1.00  0.00    -0.270 OA
ATOM     31  H4  UNL     1     113.345  63.816  39.962  1.00  0.00     0.190 HD
BRANCH  29  32
HETATM   32  C6  UNL     1     113.119  61.215  38.964  1.00  0.00     0.227 C 
BRANCH  32  33
HETATM   33  N3  UNL     1     111.946  60.486  38.544  1.00  0.00    -0.346 N 
HETATM   34  C5  UNL     1     111.873  59.086  38.588  1.00  0.00     0.277 C 
HETATM   35  O2  UNL     1     112.926  58.502  39.047  1.00  0.00    -0.265 OA
ATOM     36  H3  UNL     1     111.139  61.008  38.202  1.00  0.00     0.163 HD
BRANCH  34  37
HETATM   37  C4  UNL     1     110.765  58.265  38.178  1.00  0.00     0.169 A 
HETATM   38  C2  UNL     1     110.091  58.158  37.000  1.00  0.00     0.048 A 
HETATM   39  C1  UNL     1     110.327  58.894  35.762  1.00  0.00     0.071 C 
HETATM   40  N1  UNL     1     109.131  57.220  37.180  1.00  0.00    -0.323 N 
HETATM   41  C3  UNL     1     109.215  56.763  38.437  1.00  0.00     0.222 A 
ATOM     42  H1  UNL     1     108.458  56.913  36.477  1.00  0.00     0.169 HD
HETATM   43  N2  UNL     1     108.439  55.844  38.959  1.00  0.00    -0.365 N 
HETATM   44  O1  UNL     1     110.183  57.397  38.996  1.00  0.00    -0.272 OA
ATOM     45  H22 UNL     1     107.670  55.341  38.516  1.00  0.00     0.159 HD
ATOM     46  H21 UNL     1     108.504  55.496  39.916  1.00  0.00     0.159 HD
ENDBRANCH  34  37
ENDBRANCH  32  33
ENDBRANCH  29  32
ENDBRANCH   1  28
TORSDOF 10
ENDMDL
MODEL 2
REMARK VINA RESULT: -8.126444335      3.382      7.284
REMARK  10 active torsions:
REMARK  status: ('A' for Active; 'I' for Inactive)
REMARK    1  A    between atoms: C4_10  and  C5_11 
REMARK       I    between atoms: C5_11  and  N3_13 
REMARK    2  A    between atoms: N3_13  and  C6_15 
REMARK    3  A    between atoms: C6_15  and  C7_16 
REMARK       I    between atoms: C7_16  and  N4_18 
REMARK    4  A    between atoms: N4_18  and  N5_20 
REMARK       I    between atoms: N5_20  and  C8_22 
REMARK    5  A    between atoms: C8_22  and  C9_24 
REMARK    6  A    between atoms: C9_24  and  S1_25 
REMARK    7  A    between atoms: S1_25  and  C10_26 
REMARK    8  A    between atoms: C11_30  and  N8_31 
REMARK    9  A    between atoms: N10_37  and  C13_39 
REMARK   10  A    between atoms: C13_39  and  C14_40 
ROOT
HETATM    1  N5  UNL     1     109.584  62.367  42.149  1.00  0.00    -0.267 N 
ATOM      2  H5  UNL     1     109.291  61.672  41.464  1.00  0.00     0.190 HD
HETATM    3  C8  UNL     1     109.001  62.394  43.428  1.00  0.00     0.245 C 
HETATM    4  O4  UNL     1     109.386  63.266  44.261  1.00  0.00    -0.271 OA
ENDROOT
BRANCH   3   5
HETATM    5  C9  UNL     1     107.958  61.443  43.837  1.00  0.00     0.186 C 
BRANCH   5   6
HETATM    6  S1  UNL     1     108.733  59.822  44.088  1.00  0.00    -0.094 SA
BRANCH   6   7
HETATM    7  C10 UNL     1     108.359  58.744  42.680  1.00  0.00     0.129 A 
HETATM    8  N6  UNL     1     107.124  58.397  42.353  1.00  0.00    -0.266 N 
HETATM    9  N7  UNL     1     106.760  57.637  41.366  1.00  0.00    -0.079 N 
ATOM     10  H6  UNL     1     106.377  58.767  42.941  1.00  0.00     0.189 HD
HETATM   11  C11 UNL     1     105.487  57.272  41.026  1.00  0.00     0.699 A 
HETATM   12  C15 UNL     1     107.589  57.002  40.412  1.00  0.00     0.150 A 
HETATM   13  N9  UNL     1     105.516  56.481  39.952  1.00  0.00    -0.173 N 
HETATM   14  C12 UNL     1     106.772  56.275  39.526  1.00  0.00     0.149 A 
ATOM     15  H9  UNL     1     104.688  56.082  39.509  1.00  0.00     0.186 HD
HETATM   16  N10 UNL     1     107.202  55.577  38.533  1.00  0.00    -0.364 N 
ATOM     17  H10 UNL     1     108.200  55.515  38.329  1.00  0.00     0.161 HD
HETATM   18  C16 UNL     1     108.969  57.124  40.414  1.00  0.00     0.122 A 
HETATM   19  N11 UNL     1     109.749  56.466  39.427  1.00  0.00    -0.092 NA
HETATM   20  S2  UNL     1     109.582  58.100  41.667  1.00  0.00    -0.047 SA
BRANCH  11  21
HETATM   21  N8  UNL     1     104.409  57.614  41.617  1.00  0.00    -0.233 N 
ATOM     22  H82 UNL     1     103.942  58.507  41.461  1.00  0.00     0.174 HD
ATOM     23  H81 UNL     1     103.886  57.066  42.300  1.00  0.00     0.174 HD
ENDBRANCH  11  21
BRANCH  16  24
HETATM   24  C13 UNL     1     106.231  54.884  37.713  1.00  0.00     0.234 C 
BRANCH  24  25
HETATM   25  C14 UNL     1     105.895  53.550  38.256  1.00  0.00     0.191 C 
HETATM   26  O5  UNL     1     106.280  52.566  37.531  1.00  0.00    -0.647 OA
HETATM   27  O6  UNL     1     105.224  53.398  39.443  1.00  0.00    -0.647 OA
ENDBRANCH  24  25
ENDBRANCH  16  24
ENDBRANCH   6   7
ENDBRANCH   5   6
ENDBRANCH   3   5
BRANCH   1  28
HETATM   28  N4  UNL     1     110.570  63.303  41.827  1.00  0.00    -0.266 N 
HETATM   29  C7  UNL     1     111.928  62.979  41.932  1.00  0.00     0.253 C 
HETATM   30  O3  UNL     1     112.220  61.806  42.317  1.00  0.00    -0.270 OA
ATOM     31  H4  UNL     1     110.297  64.234  41.511  1.00  0.00     0.190 HD
BRANCH  29  32
HETATM   32  C6  UNL     1     113.064  63.858  41.640  1.00  0.00     0.227 C 
BRANCH  32  33
HETATM   33  N3  UNL     1     112.974  65.186  42.201  1.00  0.00    -0.346 N 
HETATM   34  C5  UNL     1     113.303  66.335  41.469  1.00  0.00     0.277 C 
HETATM   35  O2  UNL     1     113.675  66.119  40.254  1.00  0.00    -0.265 OA
ATOM     36  H3  UNL     1     112.660  65.291  43.165  1.00  0.00     0.163 HD
BRANCH  34  37
HETATM   37  C4  UNL     1     113.266  67.696  41.936  1.00  0.00     0.169 A 
HETATM   38  C2  UNL     1     114.242  68.627  42.121  1.00  0.00     0.048 A 
HETATM   39  C1  UNL     1     115.674  68.485  41.880  1.00  0.00     0.071 C 
HETATM   40  N1  UNL     1     113.635  69.747  42.582  1.00  0.00    -0.323 N 
HETATM   41  C3  UNL     1     112.319  69.507  42.676  1.00  0.00     0.222 A 
ATOM     42  H1  UNL     1     114.100  70.624  42.817  1.00  0.00     0.169 HD
HETATM   43  N2  UNL     1     111.423  70.371  43.088  1.00  0.00    -0.365 N 
HETATM   44  O1  UNL     1     112.136  68.296  42.290  1.00  0.00    -0.272 OA
ATOM     45  H22 UNL     1     111.569  71.334  43.395  1.00  0.00     0.159 HD
ATOM     46  H21 UNL     1     110.422  70.189  43.159  1.00  0.00     0.159 HD
ENDBRANCH  34  37
ENDBRANCH  32  33
ENDBRANCH  29  32
ENDBRANCH   1  28
TORSDOF 10
ENDMDL
MODEL 3
REMARK VINA RESULT: -8.101537701      4.324      6.795
REMARK  10 active torsions:
REMARK  status: ('A' for Active; 'I' for Inactive)
REMARK    1  A    between atoms: C4_10  and  C5_11 
REMARK       I    between atoms: C5_11  and  N3_13 
REMARK    2  A    between atoms: N3_13  and  C6_15 
REMARK    3  A    between atoms: C6_15  and  C7_16 
REMARK       I    between atoms: C7_16  and  N4_18 
REMARK    4  A    between atoms: N4_18  and  N5_20 
REMARK       I    between atoms: N5_20  and  C8_22 
REMARK    5  A    between atoms: C8_22  and  C9_24 
REMARK    6  A    between atoms: C9_24  and  S1_25 
REMARK    7  A    between atoms: S1_25  and  C10_26 
REMARK    8  A    between atoms: C11_30  and  N8_31 
REMARK    9  A    between atoms: N10_37  and  C13_39 
REMARK   10  A    between atoms: C13_39  and  C14_40 
ROOT
HETATM    1  N5  UNL     1     111.102  63.950  45.990  1.00  0.00    -0.267 N 
ATOM      2  H5  UNL     1     110.382  64.660  45.858  1.00  0.00     0.190 HD
HETATM    3  C8  UNL     1     112.144  63.814  45.056  1.00  0.00     0.245 C 
HETATM    4  O4  UNL     1     113.027  62.926  45.245  1.00  0.00    -0.271 OA
ENDROOT
BRANCH   3   5
HETATM    5  C9  UNL     1     112.250  64.668  43.865  1.00  0.00     0.186 C 
BRANCH   5   6
HETATM    6  S1  UNL     1     112.416  63.597  42.411  1.00  0.00    -0.094 SA
BRANCH   6   7
HETATM    7  C10 UNL     1     111.013  62.451  42.336  1.00  0.00     0.129 A 
HETATM    8  N6  UNL     1     111.129  61.206  41.900  1.00  0.00    -0.266 N 
HETATM    9  N7  UNL     1     110.187  60.317  41.813  1.00  0.00    -0.079 N 
ATOM     10  H6  UNL     1     112.059  60.914  41.600  1.00  0.00     0.189 HD
HETATM   11  C11 UNL     1     110.300  59.032  41.362  1.00  0.00     0.699 A 
HETATM   12  C15 UNL     1     108.824  60.464  42.161  1.00  0.00     0.150 A 
HETATM   13  N9  UNL     1     109.112  58.427  41.422  1.00  0.00    -0.173 N 
HETATM   14  C12 UNL     1     108.165  59.248  41.902  1.00  0.00     0.149 A 
ATOM     15  H9  UNL     1     108.944  57.461  41.140  1.00  0.00     0.186 HD
HETATM   16  N10 UNL     1     106.912  59.032  42.105  1.00  0.00    -0.364 N 
ATOM     17  H10 UNL     1     106.308  59.763  42.481  1.00  0.00     0.161 HD
HETATM   18  C16 UNL     1     108.299  61.643  42.665  1.00  0.00     0.122 A 
HETATM   19  N11 UNL     1     106.922  61.729  43.001  1.00  0.00    -0.092 NA
HETATM   20  S2  UNL     1     109.435  62.900  42.830  1.00  0.00    -0.047 SA
BRANCH  11  21
HETATM   21  N8  UNL     1     111.359  58.459  40.938  1.00  0.00    -0.233 N 
ATOM     22  H82 UNL     1     112.237  58.448  41.458  1.00  0.00     0.174 HD
ATOM     23  H81 UNL     1     111.471  57.954  40.059  1.00  0.00     0.174 HD
ENDBRANCH  11  21
BRANCH  16  24
HETATM   24  C13 UNL     1     106.383  57.723  41.786  1.00  0.00     0.234 C 
BRANCH  24  25
HETATM   25  C14 UNL     1     104.905  57.716  41.738  1.00  0.00     0.191 C 
HETATM   26  O5  UNL     1     104.386  56.590  41.417  1.00  0.00    -0.647 OA
HETATM   27  O6  UNL     1     104.164  58.837  42.019  1.00  0.00    -0.647 OA
ENDBRANCH  24  25
ENDBRANCH  16  24
ENDBRANCH   6   7
ENDBRANCH   5   6
ENDBRANCH   3   5
BRANCH   1  28
HETATM   28  N4  UNL     1     111.062  63.102  47.099  1.00  0.00    -0.266 N 
HETATM   29  C7  UNL     1     110.029  62.168  47.251  1.00  0.00     0.253 C 
HETATM   30  O3  UNL     1     109.149  62.119  46.339  1.00  0.00    -0.270 OA
ATOM     31  H4  UNL     1     111.794  63.163  47.808  1.00  0.00     0.190 HD
BRANCH  29  32
HETATM   32  C6  UNL     1     109.855  61.227  48.362  1.00  0.00     0.227 C 
BRANCH  32  33
HETATM   33  N3  UNL     1     108.839  60.221  48.161  1.00  0.00    -0.346 N 
HETATM   34  C5  UNL     1     108.638  59.165  49.060  1.00  0.00     0.277 C 
HETATM   35  O2  UNL     1     109.415  59.171  50.088  1.00  0.00    -0.265 OA
ATOM     36  H3  UNL     1     108.246  60.280  47.333  1.00  0.00     0.163 HD
BRANCH  34  37
HETATM   37  C4  UNL     1     107.672  58.105  48.946  1.00  0.00     0.169 A 
HETATM   38  C2  UNL     1     106.345  58.039  49.243  1.00  0.00     0.048 A 
HETATM   39  C1  UNL     1     105.495  59.093  49.789  1.00  0.00     0.071 C 
HETATM   40  N1  UNL     1     105.933  56.787  48.932  1.00  0.00    -0.323 N 
HETATM   41  C3  UNL     1     106.983  56.102  48.457  1.00  0.00     0.222 A 
ATOM     42  H1  UNL     1     104.985  56.426  49.041  1.00  0.00     0.169 HD
HETATM   43  N2  UNL     1     106.950  54.854  48.057  1.00  0.00    -0.365 N 
HETATM   44  O1  UNL     1     107.987  56.903  48.478  1.00  0.00    -0.272 OA
ATOM     45  H22 UNL     1     106.153  54.217  48.039  1.00  0.00     0.159 HD
ATOM     46  H21 UNL     1     107.749  54.333  47.694  1.00  0.00     0.159 HD
ENDBRANCH  34  37
ENDBRANCH  32  33
ENDBRANCH  29  32
ENDBRANCH   1  28
TORSDOF 10
ENDMDL
MODEL 4
REMARK VINA RESULT: -8.066123884      3.287      7.110
REMARK  10 active torsions:
REMARK  status: ('A' for Active; 'I' for Inactive)
REMARK    1  A    between atoms: C4_10  and  C5_11 
REMARK       I    between atoms: C5_11  and  N3_13 
REMARK    2  A    between atoms: N3_13  and  C6_15 
REMARK    3  A    between atoms: C6_15  and  C7_16 
REMARK       I    between atoms: C7_16  and  N4_18 
REMARK    4  A    between atoms: N4_18  and  N5_20 
REMARK       I    between atoms: N5_20  and  C8_22 
REMARK    5  A    between atoms: C8_22  and  C9_24 
REMARK    6  A    between atoms: C9_24  and  S1_25 
REMARK    7  A    between atoms: S1_25  and  C10_26 
REMARK    8  A    between atoms: C11_30  and  N8_31 
REMARK    9  A    between atoms: N10_37  and  C13_39 
REMARK   10  A    between atoms: C13_39  and  C14_40 
ROOT
HETATM    1  N5  UNL     1     113.526  62.459  43.529  1.00  0.00    -0.267 N 
ATOM      2  H5  UNL     1     113.485  61.867  44.358  1.00  0.00     0.190 HD
HETATM    3  C8  UNL     1     114.309  62.080  42.424  1.00  0.00     0.245 C 
HETATM    4  O4  UNL     1     114.340  62.832  41.406  1.00  0.00    -0.271 OA
ENDROOT
BRANCH   3   5
HETATM    5  C9  UNL     1     115.096  60.840  42.406  1.00  0.00     0.186 C 
BRANCH   5   6
HETATM    6  S1  UNL     1     114.668  59.917  40.904  1.00  0.00    -0.094 SA
BRANCH   6   7
HETATM    7  C10 UNL     1     112.923  59.429  40.967  1.00  0.00     0.129 A 
HETATM    8  N6  UNL     1     112.179  59.570  42.053  1.00  0.00    -0.266 N 
HETATM    9  N7  UNL     1     110.928  59.254  42.191  1.00  0.00    -0.079 N 
ATOM     10  H6  UNL     1     112.640  59.970  42.870  1.00  0.00     0.189 HD
HETATM   11  C11 UNL     1     110.156  59.394  43.310  1.00  0.00     0.699 A 
HETATM   12  C15 UNL     1     110.067  58.687  41.221  1.00  0.00     0.150 A 
HETATM   13  N9  UNL     1     108.920  58.955  43.063  1.00  0.00    -0.173 N 
HETATM   14  C12 UNL     1     108.799  58.509  41.803  1.00  0.00     0.149 A 
ATOM     15  H9  UNL     1     108.162  58.959  43.746  1.00  0.00     0.186 HD
HETATM   16  N10 UNL     1     107.775  58.014  41.199  1.00  0.00    -0.364 N 
ATOM     17  H10 UNL     1     107.835  57.715  40.226  1.00  0.00     0.161 HD
HETATM   18  C16 UNL     1     110.479  58.385  39.934  1.00  0.00     0.122 A 
HETATM   19  N11 UNL     1     109.568  57.821  39.002  1.00  0.00    -0.092 NA
HETATM   20  S2  UNL     1     112.112  58.752  39.618  1.00  0.00    -0.047 SA
BRANCH  11  21
HETATM   21  N8  UNL     1     110.522  59.867  44.438  1.00  0.00    -0.233 N 
ATOM     22  H82 UNL     1     110.601  60.865  44.629  1.00  0.00     0.174 HD
ATOM     23  H81 UNL     1     110.774  59.335  45.270  1.00  0.00     0.174 HD
ENDBRANCH  11  21
BRANCH  16  24
HETATM   24  C13 UNL     1     106.536  57.895  41.938  1.00  0.00     0.234 C 
BRANCH  24  25
HETATM   25  C14 UNL     1     105.444  58.682  41.326  1.00  0.00     0.191 C 
HETATM   26  O5  UNL     1     104.327  58.062  41.230  1.00  0.00    -0.647 OA
HETATM   27  O6  UNL     1     105.630  59.974  40.902  1.00  0.00    -0.647 OA
ENDBRANCH  24  25
ENDBRANCH  16  24
ENDBRANCH   6   7
ENDBRANCH   5   6
ENDBRANCH   3   5
BRANCH   1  28
HETATM   28  N4  UNL     1     112.804  63.654  43.479  1.00  0.00    -0.266 N 
HETATM   29  C7  UNL     1     111.459  63.663  43.087  1.00  0.00     0.253 C 
HETATM   30  O3  UNL     1     110.929  62.548  42.795  1.00  0.00    -0.270 OA
ATOM     31  H4  UNL     1     113.261  64.530  43.730  1.00  0.00     0.190 HD
BRANCH  29  32
HETATM   32  C6  UNL     1     110.586  64.836  42.978  1.00  0.00     0.227 C 
BRANCH  32  33
HETATM   33  N3  UNL     1     111.237  66.107  43.185  1.00  0.00    -0.346 N 
HETATM   34  C5  UNL     1     112.265  66.572  42.353  1.00  0.00     0.277 C 
HETATM   35  O2  UNL     1     112.573  65.785  41.380  1.00  0.00    -0.265 OA
ATOM     36  H3  UNL     1     110.937  66.690  43.967  1.00  0.00     0.163 HD
BRANCH  34  37
HETATM   37  C4  UNL     1     112.989  67.809  42.482  1.00  0.00     0.169 A 
HETATM   38  C2  UNL     1     112.594  69.071  42.805  1.00  0.00     0.048 A 
HETATM   39  C1  UNL     1     111.248  69.535  43.128  1.00  0.00     0.071 C 
HETATM   40  N1  UNL     1     113.702  69.849  42.776  1.00  0.00    -0.323 N 
HETATM   41  C3  UNL     1     114.750  69.082  42.442  1.00  0.00     0.222 A 
ATOM     42  H1  UNL     1     113.734  70.849  42.973  1.00  0.00     0.169 HD
HETATM   43  N2  UNL     1     115.985  69.505  42.320  1.00  0.00    -0.365 N 
HETATM   44  O1  UNL     1     114.297  67.891  42.277  1.00  0.00    -0.272 OA
ATOM     45  H22 UNL     1     116.344  70.451  42.452  1.00  0.00     0.159 HD
ATOM     46  H21 UNL     1     116.782  68.921  42.067  1.00  0.00     0.159 HD
ENDBRANCH  34  37
ENDBRANCH  32  33
ENDBRANCH  29  32
ENDBRANCH   1  28
TORSDOF 10
ENDMDL
MODEL 5
REMARK VINA RESULT: -8.061009327      5.430      7.647
REMARK  10 active torsions:
REMARK  status: ('A' for Active; 'I' for Inactive)
REMARK    1  A    between atoms: C4_10  and  C5_11 
REMARK       I    between atoms: C5_11  and  N3_13 
REMARK    2  A    between atoms: N3_13  and  C6_15 
REMARK    3  A    between atoms: C6_15  and  C7_16 
REMARK       I    between atoms: C7_16  and  N4_18 
REMARK    4  A    between atoms: N4_18  and  N5_20 
REMARK       I    between atoms: N5_20  and  C8_22 
REMARK    5  A    between atoms: C8_22  and  C9_24 
REMARK    6  A    between atoms: C9_24  and  S1_25 
REMARK    7  A    between atoms: S1_25  and  C10_26 
REMARK    8  A    between atoms: C11_30  and  N8_31 
REMARK    9  A    between atoms: N10_37  and  C13_39 
REMARK   10  A    between atoms: C13_39  and  C14_40 
ROOT
HETATM    1  N5  UNL     1     110.005  60.503  47.525  1.00  0.00    -0.267 N 
ATOM      2  H5  UNL     1     110.702  60.139  46.876  1.00  0.00     0.190 HD
HETATM    3  C8  UNL     1     109.679  61.871  47.522  1.00  0.00     0.245 C 
HETATM    4  O4  UNL     1     108.808  62.296  48.337  1.00  0.00    -0.271 OA
ENDROOT
BRANCH   3   5
HETATM    5  C9  UNL     1     110.312  62.829  46.605  1.00  0.00     0.186 C 
BRANCH   5   6
HETATM    6  S1  UNL     1     111.063  61.898  45.241  1.00  0.00    -0.094 SA
BRANCH   6   7
HETATM    7  C10 UNL     1     109.763  61.123  44.244  1.00  0.00     0.129 A 
HETATM    8  N6  UNL     1     109.953  60.000  43.569  1.00  0.00    -0.266 N 
HETATM    9  N7  UNL     1     109.087  59.373  42.834  1.00  0.00    -0.079 N 
ATOM     10  H6  UNL     1     110.882  59.583  43.633  1.00  0.00     0.189 HD
HETATM   11  C11 UNL     1     109.277  58.215  42.133  1.00  0.00     0.699 A 
HETATM   12  C15 UNL     1     107.743  59.736  42.581  1.00  0.00     0.150 A 
HETATM   13  N9  UNL     1     108.152  57.882  41.498  1.00  0.00    -0.173 N 
HETATM   14  C12 UNL     1     107.174  58.771  41.730  1.00  0.00     0.149 A 
ATOM     15  H9  UNL     1     108.048  57.055  40.910  1.00  0.00     0.186 HD
HETATM   16  N10 UNL     1     105.961  58.793  41.298  1.00  0.00    -0.364 N 
ATOM     17  H10 UNL     1     105.324  59.544  41.565  1.00  0.00     0.161 HD
HETATM   18  C16 UNL     1     107.156  60.870  43.119  1.00  0.00     0.122 A 
HETATM   19  N11 UNL     1     105.800  61.181  42.833  1.00  0.00    -0.092 NA
HETATM   20  S2  UNL     1     108.191  61.791  44.109  1.00  0.00    -0.047 SA
BRANCH  11  21
HETATM   21  N8  UNL     1     110.351  57.528  42.068  1.00  0.00    -0.233 N 
ATOM     22  H82 UNL     1     111.275  57.910  42.268  1.00  0.00     0.174 HD
ATOM     23  H81 UNL     1     110.431  56.542  41.819  1.00  0.00     0.174 HD
ENDBRANCH  11  21
BRANCH  16  24
HETATM   24  C13 UNL     1     105.526  57.724  40.425  1.00  0.00     0.234 C 
BRANCH  24  25
HETATM   25  C14 UNL     1     104.680  56.737  41.131  1.00  0.00     0.191 C 
HETATM   26  O5  UNL     1     103.877  57.241  41.993  1.00  0.00    -0.647 OA
HETATM   27  O6  UNL     1     104.762  55.393  40.870  1.00  0.00    -0.647 OA
ENDBRANCH  24  25
ENDBRANCH  16  24
ENDBRANCH   6   7
ENDBRANCH   5   6
ENDBRANCH   3   5
BRANCH   1  28
HETATM   28  N4  UNL     1     109.366  59.648  48.426  1.00  0.00    -0.266 N 
HETATM   29  C7  UNL     1     108.271  58.873  48.024  1.00  0.00     0.253 C 
HETATM   30  O3  UNL     1     107.899  58.970  46.816  1.00  0.00    -0.270 OA
ATOM     31  H4  UNL     1     109.700  59.589  49.388  1.00  0.00     0.190 HD
BRANCH  29  32
HETATM   32  C6  UNL     1     107.501  57.946  48.859  1.00  0.00     0.227 C 
BRANCH  32  33
HETATM   33  N3  UNL     1     107.491  56.575  48.408  1.00  0.00    -0.346 N 
HETATM   34  C5  UNL     1     107.411  55.491  49.293  1.00  0.00     0.277 C 
HETATM   35  O2  UNL     1     107.330  55.812  50.539  1.00  0.00    -0.265 OA
ATOM     36  H3  UNL     1     107.544  56.388  47.406  1.00  0.00     0.163 HD
BRANCH  34  37
HETATM   37  C4  UNL     1     107.413  54.094  48.951  1.00  0.00     0.169 A 
HETATM   38  C2  UNL     1     106.455  53.277  48.431  1.00  0.00     0.048 A 
HETATM   39  C1  UNL     1     105.087  53.624  48.058  1.00  0.00     0.071 C 
HETATM   40  N1  UNL     1     107.009  52.047  48.313  1.00  0.00    -0.323 N 
HETATM   41  C3  UNL     1     108.274  52.108  48.751  1.00  0.00     0.222 A 
ATOM     42  H1  UNL     1     106.541  51.215  47.953  1.00  0.00     0.169 HD
HETATM   43  N2  UNL     1     109.111  51.099  48.782  1.00  0.00    -0.365 N 
HETATM   44  O1  UNL     1     108.480  53.322  49.118  1.00  0.00    -0.272 OA
ATOM     45  H22 UNL     1     108.948  50.135  48.490  1.00  0.00     0.159 HD
ATOM     46  H21 UNL     1     110.074  51.145  49.114  1.00  0.00     0.159 HD
ENDBRANCH  34  37
ENDBRANCH  32  33
ENDBRANCH  29  32
ENDBRANCH   1  28
TORSDOF 10
ENDMDL
