MODEL 1
REMARK VINA RESULT: -8.368903477      0.000      0.000
REMARK  10 active torsions:
REMARK  status: ('A' for Active; 'I' for Inactive)
REMARK    1  A    between atoms: C2_4  and  N3_5 
REMARK    2  A    between atoms: N3_5  and  C3_7 
REMARK    3  A    between atoms: N4_8  and  N5_10 
REMARK    4  A    between atoms: N5_10  and  C4_12 
REMARK    5  A    between atoms: C4_12  and  N6_15 
REMARK    6  A    between atoms: C8_20  and  N9_21 
REMARK    7  A    between atoms: C9_26  and  N11_27 
REMARK    8  A    between atoms: C10_30  and  N12_31 
REMARK    9  A    between atoms: C11_36  and  N15_37 
REMARK   10  A    between atoms: C12_42  and  O1_43 
ROOT
HETATM    1  N6  UNL     1     -12.582  93.885  21.648  1.00  0.00    -0.228 N 
HETATM    2  N7  UNL     1     -12.699  93.174  20.541  1.00  0.00    -0.016 NA
HETATM    3  N8  UNL     1     -13.188  91.979  20.824  1.00  0.00    -0.277 N 
ATOM      4  H8  UNL     1     -13.372  91.243  20.142  1.00  0.00     0.184 HD
HETATM    5  C7  UNL     1     -13.404  91.884  22.130  1.00  0.00     0.135 A 
HETATM    6  C8  UNL     1     -13.908  90.803  22.821  1.00  0.00     0.132 C 
HETATM    7  N10 UNL     1     -13.916  90.604  24.150  1.00  0.00    -0.324 N 
ATOM      8  H10 UNL     1     -14.077  89.647  24.463  1.00  0.00     0.169 HD
HETATM    9  C9  UNL     1     -13.733  91.539  25.128  1.00  0.00     0.147 C 
HETATM   10  C10 UNL     1     -13.529  92.899  25.015  1.00  0.00     0.176 C 
HETATM   11  N17 UNL     1     -13.028  93.531  23.919  1.00  0.00    -0.321 N 
ATOM     12  H17 UNL     1     -12.610  94.446  24.090  1.00  0.00     0.169 HD
HETATM   13  C13 UNL     1     -13.011  93.119  22.661  1.00  0.00     0.157 A 
ENDROOT
BRANCH   1  14
HETATM   14  C4  UNL     1     -12.075  95.233  21.668  1.00  0.00     0.132 C 
HETATM   15  C5  UNL     1     -10.576  95.274  21.838  1.00  0.00     0.066 C 
HETATM   16  C6  UNL     1     -12.676  96.041  22.793  1.00  0.00     0.066 C 
BRANCH  14  17
HETATM   17  N5  UNL     1     -12.416  95.908  20.436  1.00  0.00    -0.306 N 
ATOM     18  H5  UNL     1     -13.107  96.659  20.461  1.00  0.00     0.183 HD
BRANCH  17  19
HETATM   19  N4  UNL     1     -11.834  95.569  19.209  1.00  0.00    -0.298 N 
HETATM   20  C3  UNL     1     -11.110  96.391  18.529  1.00  0.00     0.195 C 
ATOM     21  H4  UNL     1     -11.989  94.631  18.838  1.00  0.00     0.187 HD
BRANCH  20  22
HETATM   22  N3  UNL     1     -10.853  97.701  18.978  1.00  0.00    -0.353 N 
ATOM     23  H3  UNL     1     -11.390  98.074  19.761  1.00  0.00     0.163 HD
BRANCH  22  24
HETATM   24  C2  UNL     1      -9.847  98.527  18.355  1.00  0.00     0.285 A 
HETATM   25  N1  UNL     1      -9.474  99.768  19.013  1.00  0.00    -0.197 NA
HETATM   26  C1  UNL     1      -9.260 100.912  18.156  1.00  0.00     0.136 C 
HETATM   27  N2  UNL     1      -8.576  98.693  18.906  1.00  0.00    -0.120 NA
ENDBRANCH  22  24
ENDBRANCH  20  22
ENDBRANCH  17  19
ENDBRANCH  14  17
ENDBRANCH   1  14
BRANCH   6  28
HETATM   28  N9  UNL     1     -14.427  89.887  22.089  1.00  0.00    -0.383 N 
ATOM     29  H92 UNL     1     -15.052  89.223  22.547  1.00  0.00     0.157 HD
ATOM     30  H91 UNL     1     -14.156  89.917  21.106  1.00  0.00     0.157 HD
ENDBRANCH   6  28
BRANCH  10  31
HETATM   31  N12 UNL     1     -13.864  93.708  26.124  1.00  0.00    -0.196 N 
HETATM   32  N13 UNL     1     -14.916  93.532  26.894  1.00  0.00    -0.230 N 
HETATM   33  N14 UNL     1     -14.947  94.466  27.853  1.00  0.00    -0.266 N 
ATOM     34  H13 UNL     1     -15.607  92.792  26.777  1.00  0.00     0.209 HD
HETATM   35  C11 UNL     1     -13.886  95.279  27.709  1.00  0.00     0.189 A 
ATOM     36  H14 UNL     1     -15.661  94.547  28.577  1.00  0.00     0.190 HD
HETATM   37  C12 UNL     1     -13.204  94.774  26.594  1.00  0.00     0.212 A 
BRANCH  35  38
HETATM   38  N15 UNL     1     -13.485  96.407  28.475  1.00  0.00    -0.287 N 
HETATM   39  N16 UNL     1     -13.508  96.415  29.745  1.00  0.00    -0.343 N 
ATOM     40 2H16 UNL     1     -13.830  95.570  30.218  1.00  0.00     0.176 HD
ATOM     41 1H16 UNL     1     -13.220  97.224  30.295  1.00  0.00     0.176 HD
ATOM     42  H15 UNL     1     -13.166  97.244  27.985  1.00  0.00     0.188 HD
ENDBRANCH  35  38
BRANCH  37  43
HETATM   43  O1  UNL     1     -12.035  95.313  26.080  1.00  0.00    -0.342 OA
ATOM     44  H1  UNL     1     -11.591  96.095  26.387  1.00  0.00     0.219 HD
ENDBRANCH  37  43
ENDBRANCH  10  31
BRANCH   9  45
HETATM   45  N11 UNL     1     -13.754  91.099  26.331  1.00  0.00    -0.382 N 
ATOM     46 2H11 UNL     1     -13.594  90.095  26.420  1.00  0.00     0.157 HD
ATOM     47 1H11 UNL     1     -13.924  91.796  27.057  1.00  0.00     0.157 HD
ENDBRANCH   9  45
TORSDOF 10
ENDMDL
MODEL 2
REMARK VINA RESULT: -8.180693950      1.400      1.621
REMARK  10 active torsions:
REMARK  status: ('A' for Active; 'I' for Inactive)
REMARK    1  A    between atoms: C2_4  and  N3_5 
REMARK    2  A    between atoms: N3_5  and  C3_7 
REMARK    3  A    between atoms: N4_8  and  N5_10 
REMARK    4  A    between atoms: N5_10  and  C4_12 
REMARK    5  A    between atoms: C4_12  and  N6_15 
REMARK    6  A    between atoms: C8_20  and  N9_21 
REMARK    7  A    between atoms: C9_26  and  N11_27 
REMARK    8  A    between atoms: C10_30  and  N12_31 
REMARK    9  A    between atoms: C11_36  and  N15_37 
REMARK   10  A    between atoms: C12_42  and  O1_43 
ROOT
HETATM    1  N6  UNL     1     -12.312  94.083  20.993  1.00  0.00    -0.228 N 
HETATM    2  N7  UNL     1     -12.493  93.445  19.851  1.00  0.00    -0.016 NA
HETATM    3  N8  UNL     1     -13.037  92.262  20.079  1.00  0.00    -0.277 N 
ATOM      4  H8  UNL     1     -13.276  91.577  19.361  1.00  0.00     0.184 HD
HETATM    5  C7  UNL     1     -13.224  92.101  21.382  1.00  0.00     0.135 A 
HETATM    6  C8  UNL     1     -13.766  91.008  22.024  1.00  0.00     0.132 C 
HETATM    7  N10 UNL     1     -13.750  90.732  23.339  1.00  0.00    -0.324 N 
ATOM      8  H10 UNL     1     -13.953  89.768  23.602  1.00  0.00     0.169 HD
HETATM    9  C9  UNL     1     -13.494  91.598  24.364  1.00  0.00     0.147 C 
HETATM   10  C10 UNL     1     -13.223  92.950  24.323  1.00  0.00     0.176 C 
HETATM   11  N17 UNL     1     -12.718  93.619  23.252  1.00  0.00    -0.321 N 
ATOM     12  H17 UNL     1     -12.248  94.500  23.463  1.00  0.00     0.169 HD
HETATM   13  C13 UNL     1     -12.754  93.281  21.972  1.00  0.00     0.157 A 
ENDROOT
BRANCH   1  14
HETATM   14  C4  UNL     1     -11.734  95.400  21.076  1.00  0.00     0.132 C 
HETATM   15  C5  UNL     1     -10.422  95.400  21.820  1.00  0.00     0.066 C 
HETATM   16  C6  UNL     1     -12.651  96.370  21.784  1.00  0.00     0.066 C 
BRANCH  14  17
HETATM   17  N5  UNL     1     -11.511  95.926  19.748  1.00  0.00    -0.306 N 
ATOM     18  H5  UNL     1     -11.289  95.277  18.993  1.00  0.00     0.183 HD
BRANCH  17  19
HETATM   19  N4  UNL     1     -11.587  97.294  19.461  1.00  0.00    -0.298 N 
HETATM   20  C3  UNL     1     -10.648  97.931  18.847  1.00  0.00     0.195 C 
ATOM     21  H4  UNL     1     -12.420  97.808  19.749  1.00  0.00     0.187 HD
BRANCH  20  22
HETATM   22  N3  UNL     1      -9.470  97.289  18.420  1.00  0.00    -0.353 N 
ATOM     23  H3  UNL     1      -8.650  97.296  19.026  1.00  0.00     0.163 HD
BRANCH  22  24
HETATM   24  C2  UNL     1      -9.397  96.621  17.142  1.00  0.00     0.285 A 
HETATM   25  N1  UNL     1      -8.940  97.387  15.994  1.00  0.00    -0.197 NA
HETATM   26  C1  UNL     1      -9.636  97.157  14.748  1.00  0.00     0.136 C 
HETATM   27  N2  UNL     1      -8.181  96.329  16.524  1.00  0.00    -0.120 NA
ENDBRANCH  22  24
ENDBRANCH  20  22
ENDBRANCH  17  19
ENDBRANCH  14  17
ENDBRANCH   1  14
BRANCH   6  28
HETATM   28  N9  UNL     1     -14.350  90.164  21.256  1.00  0.00    -0.383 N 
ATOM     29  H92 UNL     1     -14.957  90.540  20.527  1.00  0.00     0.157 HD
ATOM     30  H91 UNL     1     -14.145  89.185  21.457  1.00  0.00     0.157 HD
ENDBRANCH   6  28
BRANCH  10  31
HETATM   31  N12 UNL     1     -13.487  93.708  25.486  1.00  0.00    -0.196 N 
HETATM   32  N13 UNL     1     -14.350  93.376  26.422  1.00  0.00    -0.230 N 
HETATM   33  N14 UNL     1     -14.364  94.304  27.387  1.00  0.00    -0.266 N 
ATOM     34  H13 UNL     1     -14.924  92.533  26.414  1.00  0.00     0.209 HD
HETATM   35  C11 UNL     1     -13.486  95.274  27.075  1.00  0.00     0.189 A 
ATOM     36  H14 UNL     1     -14.947  94.279  28.223  1.00  0.00     0.190 HD
HETATM   37  C12 UNL     1     -12.935  94.872  25.852  1.00  0.00     0.212 A 
BRANCH  35  38
HETATM   38  N15 UNL     1     -13.145  96.462  27.779  1.00  0.00    -0.287 N 
HETATM   39  N16 UNL     1     -13.107  96.517  29.048  1.00  0.00    -0.343 N 
ATOM     40 2H16 UNL     1     -13.333  95.668  29.567  1.00  0.00     0.176 HD
ATOM     41 1H16 UNL     1     -12.862  97.369  29.553  1.00  0.00     0.176 HD
ATOM     42  H15 UNL     1     -12.922  97.301  27.244  1.00  0.00     0.188 HD
ENDBRANCH  35  38
BRANCH  37  43
HETATM   43  O1  UNL     1     -11.973  95.584  25.155  1.00  0.00    -0.342 OA
ATOM     44  H1  UNL     1     -12.069  95.968  24.291  1.00  0.00     0.219 HD
ENDBRANCH  37  43
ENDBRANCH  10  31
BRANCH   9  45
HETATM   45  N11 UNL     1     -13.507  91.089  25.540  1.00  0.00    -0.382 N 
ATOM     46 2H11 UNL     1     -12.602  90.753  25.869  1.00  0.00     0.157 HD
ATOM     47 1H11 UNL     1     -14.413  91.078  26.009  1.00  0.00     0.157 HD
ENDBRANCH   9  45
TORSDOF 10
ENDMDL
MODEL 3
REMARK VINA RESULT: -7.982971646      1.288      1.411
REMARK  10 active torsions:
REMARK  status: ('A' for Active; 'I' for Inactive)
REMARK    1  A    between atoms: C2_4  and  N3_5 
REMARK    2  A    between atoms: N3_5  and  C3_7 
REMARK    3  A    between atoms: N4_8  and  N5_10 
REMARK    4  A    between atoms: N5_10  and  C4_12 
REMARK    5  A    between atoms: C4_12  and  N6_15 
REMARK    6  A    between atoms: C8_20  and  N9_21 
REMARK    7  A    between atoms: C9_26  and  N11_27 
REMARK    8  A    between atoms: C10_30  and  N12_31 
REMARK    9  A    between atoms: C11_36  and  N15_37 
REMARK   10  A    between atoms: C12_42  and  O1_43 
ROOT
HETATM    1  N6  UNL     1     -12.478  94.014  21.470  1.00  0.00    -0.228 N 
HETATM    2  N7  UNL     1     -12.615  93.344  20.339  1.00  0.00    -0.016 NA
HETATM    3  N8  UNL     1     -13.113  92.145  20.585  1.00  0.00    -0.277 N 
ATOM      4  H8  UNL     1     -13.313  91.436  19.879  1.00  0.00     0.184 HD
HETATM    5  C7  UNL     1     -13.314  92.004  21.889  1.00  0.00     0.135 A 
HETATM    6  C8  UNL     1     -13.820  90.903  22.547  1.00  0.00     0.132 C 
HETATM    7  N10 UNL     1     -13.814  90.657  23.867  1.00  0.00    -0.324 N 
ATOM      8  H10 UNL     1     -13.981  89.691  24.148  1.00  0.00     0.169 HD
HETATM    9  C9  UNL     1     -13.610  91.554  24.876  1.00  0.00     0.147 C 
HETATM   10  C10 UNL     1     -13.394  92.915  24.810  1.00  0.00     0.176 C 
HETATM   11  N17 UNL     1     -12.900  93.582  23.732  1.00  0.00    -0.321 N 
ATOM     12  H17 UNL     1     -12.470  94.485  23.931  1.00  0.00     0.169 HD
HETATM   13  C13 UNL     1     -12.903  93.215  22.459  1.00  0.00     0.157 A 
ENDROOT
BRANCH   1  14
HETATM   14  C4  UNL     1     -11.957  95.355  21.532  1.00  0.00     0.132 C 
HETATM   15  C5  UNL     1     -10.551  95.394  22.077  1.00  0.00     0.066 C 
HETATM   16  C6  UNL     1     -12.803  96.245  22.412  1.00  0.00     0.066 C 
BRANCH  14  17
HETATM   17  N5  UNL     1     -11.956  95.947  20.213  1.00  0.00    -0.306 N 
ATOM     18  H5  UNL     1     -12.814  96.377  19.866  1.00  0.00     0.183 HD
BRANCH  17  19
HETATM   19  N4  UNL     1     -10.821  95.950  19.394  1.00  0.00    -0.298 N 
HETATM   20  C3  UNL     1     -10.596  96.869  18.518  1.00  0.00     0.195 C 
ATOM     21  H4  UNL     1     -10.144  95.193  19.494  1.00  0.00     0.187 HD
BRANCH  20  22
HETATM   22  N3  UNL     1     -11.485  97.944  18.322  1.00  0.00    -0.353 N 
ATOM     23  H3  UNL     1     -11.703  98.559  19.106  1.00  0.00     0.163 HD
BRANCH  22  24
HETATM   24  C2  UNL     1     -12.094  98.193  17.038  1.00  0.00     0.285 A 
HETATM   25  N1  UNL     1     -11.868  99.485  16.411  1.00  0.00    -0.197 NA
HETATM   26  C1  UNL     1     -13.003 100.086  15.747  1.00  0.00     0.136 C 
HETATM   27  N2  UNL     1     -11.344  98.300  15.867  1.00  0.00    -0.120 NA
ENDBRANCH  22  24
ENDBRANCH  20  22
ENDBRANCH  17  19
ENDBRANCH  14  17
ENDBRANCH   1  14
BRANCH   6  28
HETATM   28  N9  UNL     1     -14.357  90.020  21.788  1.00  0.00    -0.383 N 
ATOM     29  H92 UNL     1     -15.277  90.234  21.403  1.00  0.00     0.157 HD
ATOM     30  H91 UNL     1     -13.800  89.178  21.647  1.00  0.00     0.157 HD
ENDBRANCH   6  28
BRANCH  10  31
HETATM   31  N12 UNL     1     -13.707  93.686  25.951  1.00  0.00    -0.196 N 
HETATM   32  N13 UNL     1     -14.656  93.400  26.817  1.00  0.00    -0.230 N 
HETATM   33  N14 UNL     1     -14.696  94.328  27.781  1.00  0.00    -0.266 N 
ATOM     34  H13 UNL     1     -15.271  92.589  26.761  1.00  0.00     0.209 HD
HETATM   35  C11 UNL     1     -13.747  95.250  27.543  1.00  0.00     0.189 A 
ATOM     36  H14 UNL     1     -15.343  94.334  28.570  1.00  0.00     0.190 HD
HETATM   37  C12 UNL     1     -13.124  94.819  26.365  1.00  0.00     0.212 A 
BRANCH  35  38
HETATM   38  N15 UNL     1     -13.399  96.418  28.276  1.00  0.00    -0.287 N 
HETATM   39  N16 UNL     1     -13.460  96.472  29.544  1.00  0.00    -0.343 N 
ATOM     40 2H16 UNL     1     -13.773  95.638  30.040  1.00  0.00     0.176 HD
ATOM     41 1H16 UNL     1     -13.210  97.310  30.070  1.00  0.00     0.176 HD
ATOM     42  H15 UNL     1     -13.087  97.243  27.764  1.00  0.00     0.188 HD
ENDBRANCH  35  38
BRANCH  37  43
HETATM   43  O1  UNL     1     -12.074  95.479  25.747  1.00  0.00    -0.342 OA
ATOM     44  H1  UNL     1     -12.135  96.263  25.213  1.00  0.00     0.219 HD
ENDBRANCH  37  43
ENDBRANCH  10  31
BRANCH   9  45
HETATM   45  N11 UNL     1     -13.620  91.070  26.063  1.00  0.00    -0.382 N 
ATOM     46 2H11 UNL     1     -14.167  90.216  26.170  1.00  0.00     0.157 HD
ATOM     47 1H11 UNL     1     -13.084  91.590  26.759  1.00  0.00     0.157 HD
ENDBRANCH   9  45
TORSDOF 10
ENDMDL
MODEL 4
REMARK VINA RESULT: -7.927355194      5.248     10.217
REMARK  10 active torsions:
REMARK  status: ('A' for Active; 'I' for Inactive)
REMARK    1  A    between atoms: C2_4  and  N3_5 
REMARK    2  A    between atoms: N3_5  and  C3_7 
REMARK    3  A    between atoms: N4_8  and  N5_10 
REMARK    4  A    between atoms: N5_10  and  C4_12 
REMARK    5  A    between atoms: C4_12  and  N6_15 
REMARK    6  A    between atoms: C8_20  and  N9_21 
REMARK    7  A    between atoms: C9_26  and  N11_27 
REMARK    8  A    between atoms: C10_30  and  N12_31 
REMARK    9  A    between atoms: C11_36  and  N15_37 
REMARK   10  A    between atoms: C12_42  and  O1_43 
ROOT
HETATM    1  N6  UNL     1     -11.141  96.761  16.406  1.00  0.00    -0.228 N 
HETATM    2  N7  UNL     1     -10.499  95.660  16.056  1.00  0.00    -0.016 NA
HETATM    3  N8  UNL     1     -10.981  95.203  14.914  1.00  0.00    -0.277 N 
ATOM      4  H8  UNL     1     -10.655  94.365  14.432  1.00  0.00     0.184 HD
HETATM    5  C7  UNL     1     -11.954  95.999  14.490  1.00  0.00     0.135 A 
HETATM    6  C8  UNL     1     -12.707  95.868  13.343  1.00  0.00     0.132 C 
HETATM    7  N10 UNL     1     -13.835  96.521  13.017  1.00  0.00    -0.324 N 
ATOM      8  H10 UNL     1     -14.396  96.111  12.270  1.00  0.00     0.169 HD
HETATM    9  C9  UNL     1     -14.315  97.673  13.572  1.00  0.00     0.147 C 
HETATM   10  C10 UNL     1     -13.769  98.463  14.563  1.00  0.00     0.176 C 
HETATM   11  N17 UNL     1     -12.876  98.045  15.501  1.00  0.00    -0.321 N 
ATOM     12  H17 UNL     1     -12.834  98.607  16.351  1.00  0.00     0.169 HD
HETATM   13  C13 UNL     1     -12.055  97.007  15.457  1.00  0.00     0.157 A 
ENDROOT
BRANCH   1  14
HETATM   14  C4  UNL     1     -10.844  97.497  17.609  1.00  0.00     0.132 C 
HETATM   15  C5  UNL     1     -10.929  98.988  17.398  1.00  0.00     0.066 C 
HETATM   16  C6  UNL     1      -9.456  97.195  18.121  1.00  0.00     0.066 C 
BRANCH  14  17
HETATM   17  N5  UNL     1     -11.770  97.126  18.656  1.00  0.00    -0.306 N 
ATOM     18  H5  UNL     1     -11.902  97.761  19.443  1.00  0.00     0.183 HD
BRANCH  17  19
HETATM   19  N4  UNL     1     -12.491  95.927  18.628  1.00  0.00    -0.298 N 
HETATM   20  C3  UNL     1     -12.287  94.972  19.471  1.00  0.00     0.195 C 
ATOM     21  H4  UNL     1     -13.207  95.803  17.912  1.00  0.00     0.187 HD
BRANCH  20  22
HETATM   22  N3  UNL     1     -11.316  95.070  20.486  1.00  0.00    -0.353 N 
ATOM     23  H3  UNL     1     -10.477  94.493  20.430  1.00  0.00     0.163 HD
BRANCH  22  24
HETATM   24  C2  UNL     1     -11.483  95.968  21.603  1.00  0.00     0.285 A 
HETATM   25  N1  UNL     1     -10.295  96.388  22.328  1.00  0.00    -0.197 NA
HETATM   26  C1  UNL     1     -10.411  96.463  23.767  1.00  0.00     0.136 C 
HETATM   27  N2  UNL     1     -11.050  97.293  21.563  1.00  0.00    -0.120 NA
ENDBRANCH  22  24
ENDBRANCH  20  22
ENDBRANCH  17  19
ENDBRANCH  14  17
ENDBRANCH   1  14
BRANCH   6  28
HETATM   28  N9  UNL     1     -12.260  95.014  12.497  1.00  0.00    -0.383 N 
ATOM     29  H92 UNL     1     -11.281  95.100  12.221  1.00  0.00     0.157 HD
ATOM     30  H91 UNL     1     -12.941  94.325  12.180  1.00  0.00     0.157 HD
ENDBRANCH   6  28
BRANCH  10  31
HETATM   31  N12 UNL     1     -14.166  99.818  14.615  1.00  0.00    -0.196 N 
HETATM   32  N13 UNL     1     -15.389 100.236  14.862  1.00  0.00    -0.230 N 
HETATM   33  N14 UNL     1     -15.432 101.574  14.841  1.00  0.00    -0.266 N 
ATOM     34  H13 UNL     1     -16.187  99.629  15.043  1.00  0.00     0.209 HD
HETATM   35  C11 UNL     1     -14.202 102.049  14.572  1.00  0.00     0.189 A 
ATOM     36  H14 UNL     1     -16.264 102.142  15.002  1.00  0.00     0.190 HD
HETATM   37  C12 UNL     1     -13.405 100.906  14.432  1.00  0.00     0.212 A 
BRANCH  35  38
HETATM   38  N15 UNL     1     -13.745 103.389  14.447  1.00  0.00    -0.287 N 
HETATM   39  N16 UNL     1     -14.324 104.243  13.705  1.00  0.00    -0.343 N 
ATOM     40 2H16 UNL     1     -15.148 103.939  13.186  1.00  0.00     0.176 HD
ATOM     41 1H16 UNL     1     -13.995 105.205  13.616  1.00  0.00     0.176 HD
ATOM     42  H15 UNL     1     -12.919 103.676  14.974  1.00  0.00     0.188 HD
ENDBRANCH  35  38
BRANCH  37  43
HETATM   43  O1  UNL     1     -12.050 100.926  14.148  1.00  0.00    -0.342 OA
ATOM     44  H1  UNL     1     -11.597 101.551  13.595  1.00  0.00     0.219 HD
ENDBRANCH  37  43
ENDBRANCH  10  31
BRANCH   9  45
HETATM   45  N11 UNL     1     -15.436  98.089  13.111  1.00  0.00    -0.382 N 
ATOM     46 2H11 UNL     1     -15.562  99.101  13.149  1.00  0.00     0.157 HD
ATOM     47 1H11 UNL     1     -16.068  97.368  12.761  1.00  0.00     0.157 HD
ENDBRANCH   9  45
TORSDOF 10
ENDMDL
MODEL 5
REMARK VINA RESULT: -7.866880965      1.293      2.232
REMARK  10 active torsions:
REMARK  status: ('A' for Active; 'I' for Inactive)
REMARK    1  A    between atoms: C2_4  and  N3_5 
REMARK    2  A    between atoms: N3_5  and  C3_7 
REMARK    3  A    between atoms: N4_8  and  N5_10 
REMARK    4  A    between atoms: N5_10  and  C4_12 
REMARK    5  A    between atoms: C4_12  and  N6_15 
REMARK    6  A    between atoms: C8_20  and  N9_21 
REMARK    7  A    between atoms: C9_26  and  N11_27 
REMARK    8  A    between atoms: C10_30  and  N12_31 
REMARK    9  A    between atoms: C11_36  and  N15_37 
REMARK   10  A    between atoms: C12_42  and  O1_43 
ROOT
HETATM    1  N6  UNL     1     -12.582  93.780  21.315  1.00  0.00    -0.228 N 
HETATM    2  N7  UNL     1     -12.741  93.055  20.221  1.00  0.00    -0.016 NA
HETATM    3  N8  UNL     1     -13.225  91.867  20.538  1.00  0.00    -0.277 N 
ATOM      4  H8  UNL     1     -13.436  91.123  19.872  1.00  0.00     0.184 HD
HETATM    5  C7  UNL     1     -13.393  91.789  21.851  1.00  0.00     0.135 A 
HETATM    6  C8  UNL     1     -13.875  90.718  22.574  1.00  0.00     0.132 C 
HETATM    7  N10 UNL     1     -13.835  90.537  23.905  1.00  0.00    -0.324 N 
ATOM      8  H10 UNL     1     -13.988  89.584  24.236  1.00  0.00     0.169 HD
HETATM    9  C9  UNL     1     -13.613  91.483  24.863  1.00  0.00     0.147 C 
HETATM   10  C10 UNL     1     -13.409  92.841  24.726  1.00  0.00     0.176 C 
HETATM   11  N17 UNL     1     -12.946  93.457  23.605  1.00  0.00    -0.321 N 
ATOM     12  H17 UNL     1     -12.518  94.372  23.749  1.00  0.00     0.169 HD
HETATM   13  C13 UNL     1     -12.976  93.029  22.352  1.00  0.00     0.157 A 
ENDROOT
BRANCH   1  14
HETATM   14  C4  UNL     1     -12.069  95.127  21.299  1.00  0.00     0.132 C 
HETATM   15  C5  UNL     1     -10.585  95.172  21.566  1.00  0.00     0.066 C 
HETATM   16  C6  UNL     1     -12.739  95.993  22.338  1.00  0.00     0.066 C 
BRANCH  14  17
HETATM   17  N5  UNL     1     -12.324  95.737  20.013  1.00  0.00    -0.306 N 
ATOM     18  H5  UNL     1     -12.691  95.158  19.258  1.00  0.00     0.183 HD
BRANCH  17  19
HETATM   19  N4  UNL     1     -12.085  97.094  19.768  1.00  0.00    -0.298 N 
HETATM   20  C3  UNL     1     -11.399  97.510  18.758  1.00  0.00     0.195 C 
ATOM     21  H4  UNL     1     -12.470  97.783  20.415  1.00  0.00     0.187 HD
BRANCH  20  22
HETATM   22  N3  UNL     1     -10.837  96.619  17.824  1.00  0.00    -0.353 N 
ATOM     23  H3  UNL     1      -9.846  96.386  17.891  1.00  0.00     0.163 HD
BRANCH  22  24
HETATM   24  C2  UNL     1     -11.631  96.029  16.774  1.00  0.00     0.285 A 
HETATM   25  N1  UNL     1     -12.383  94.823  17.078  1.00  0.00    -0.197 NA
HETATM   26  C1  UNL     1     -12.404  93.802  16.055  1.00  0.00     0.136 C 
HETATM   27  N2  UNL     1     -13.026  96.041  16.800  1.00  0.00    -0.120 NA
ENDBRANCH  22  24
ENDBRANCH  20  22
ENDBRANCH  17  19
ENDBRANCH  14  17
ENDBRANCH   1  14
BRANCH   6  28
HETATM   28  N9  UNL     1     -14.424  89.795  21.873  1.00  0.00    -0.383 N 
ATOM     29  H92 UNL     1     -15.300  90.026  21.405  1.00  0.00     0.157 HD
ATOM     30  H91 UNL     1     -13.919  88.910  21.857  1.00  0.00     0.157 HD
ENDBRANCH   6  28
BRANCH  10  31
HETATM   31  N12 UNL     1     -13.700  93.665  25.836  1.00  0.00    -0.196 N 
HETATM   32  N13 UNL     1     -14.675  93.456  26.694  1.00  0.00    -0.230 N 
HETATM   33  N14 UNL     1     -14.683  94.417  27.627  1.00  0.00    -0.266 N 
ATOM     34  H13 UNL     1     -15.329  92.675  26.655  1.00  0.00     0.209 HD
HETATM   35  C11 UNL     1     -13.685  95.282  27.373  1.00  0.00     0.189 A 
ATOM     36  H14 UNL     1     -15.340  94.482  28.404  1.00  0.00     0.190 HD
HETATM   37  C12 UNL     1     -13.067  94.781  26.221  1.00  0.00     0.212 A 
BRANCH  35  38
HETATM   38  N15 UNL     1     -13.290  96.455  28.073  1.00  0.00    -0.287 N 
HETATM   39  N16 UNL     1     -13.220  96.504  29.341  1.00  0.00    -0.343 N 
ATOM     40 2H16 UNL     1     -13.460  95.660  29.862  1.00  0.00     0.176 HD
ATOM     41 1H16 UNL     1     -12.936  97.345  29.842  1.00  0.00     0.176 HD
ATOM     42  H15 UNL     1     -13.054  97.290  27.536  1.00  0.00     0.188 HD
ENDBRANCH  35  38
BRANCH  37  43
HETATM   43  O1  UNL     1     -11.977  95.367  25.599  1.00  0.00    -0.342 OA
ATOM     44  H1  UNL     1     -11.477  95.006  24.876  1.00  0.00     0.219 HD
ENDBRANCH  37  43
ENDBRANCH  10  31
BRANCH   9  45
HETATM   45  N11 UNL     1     -13.592  91.058  26.073  1.00  0.00    -0.382 N 
ATOM     46 2H11 UNL     1     -14.511  90.930  26.496  1.00  0.00     0.157 HD
ATOM     47 1H11 UNL     1     -12.666  90.896  26.470  1.00  0.00     0.157 HD
ENDBRANCH   9  45
TORSDOF 10
ENDMDL
