MODEL 1
REMARK VINA RESULT: -8.703219070      0.000      0.000
REMARK  18 active torsions:
REMARK  status: ('A' for Active; 'I' for Inactive)
REMARK    1  A    between atoms: C2_3  and  O1_4 
REMARK    2  A    between atoms: C2_3  and  C3_6 
REMARK    3  A    between atoms: C3_6  and  N2_7 
REMARK    4  A    between atoms: C3_6  and  C20_46 
REMARK    5  A    between atoms: N2_7  and  C4_9 
REMARK    6  A    between atoms: C4_9  and  C5_10 
REMARK    7  A    between atoms: C4_9  and  C15_30 
REMARK    8  A    between atoms: C5_10  and  O3_12 
REMARK    9  A    between atoms: O3_12  and  C6_13 
REMARK   10  A    between atoms: C7_14  and  C8_15 
REMARK   11  A    between atoms: C11_22  and  N4_23 
REMARK       I    between atoms: N4_23  and  C12_25 
REMARK   12  A    between atoms: C15_30  and  C16_31 
REMARK   13  A    between atoms: C15_30  and  N6_36 
REMARK   14  A    between atoms: C16_31  and  N5_32 
REMARK   15  A    between atoms: C18_38  and  C19_39 
REMARK   16  A    between atoms: C19_39  and  O8_40 
REMARK   17  A    between atoms: C20_46  and  O9_48 
REMARK   18  A    between atoms: C20_46  and  C22_50 
ROOT
HETATM    1  C1  UNL     1      19.355   7.218  31.606  1.00  0.00     0.262 C 
HETATM    2  N1  UNL     1      19.623   6.371  32.657  1.00  0.00    -0.429 NA
HETATM    3  C2  UNL     1      19.902   5.528  33.678  1.00  0.00     0.234 C 
ENDROOT
BRANCH   3   4
HETATM    4  O1  UNL     1      20.917   4.650  33.354  1.00  0.00    -0.334 OA
ATOM      5  H1  UNL     1      21.677   4.769  33.912  1.00  0.00     0.220 HD
ENDBRANCH   3   4
BRANCH   3   6
HETATM    6  C3  UNL     1      19.449   5.304  34.989  1.00  0.00     0.112 C 
BRANCH   6   7
HETATM    7  N2  UNL     1      20.231   4.765  35.856  1.00  0.00    -0.371 N 
ATOM      8  H2  UNL     1      19.946   3.803  36.044  1.00  0.00     0.160 HD
BRANCH   7   9
HETATM    9  C4  UNL     1      21.353   5.098  36.619  1.00  0.00     0.209 C 
BRANCH   9  10
HETATM   10  C5  UNL     1      22.613   4.694  35.877  1.00  0.00     0.289 C 
HETATM   11  O2  UNL     1      23.088   5.309  34.931  1.00  0.00    -0.262 OA
BRANCH  10  12
HETATM   12  O3  UNL     1      23.276   3.525  36.308  1.00  0.00    -0.271 OA
BRANCH  12  13
HETATM   13  C6  UNL     1      24.599   3.286  36.358  1.00  0.00     0.160 C 
HETATM   14  C7  UNL     1      25.414   3.668  37.303  1.00  0.00     0.147 C 
HETATM   15  N3  UNL     1      26.843   3.388  37.282  1.00  0.00    -0.348 N 
HETATM   16  C9  UNL     1      28.128   3.842  37.832  1.00  0.00     0.201 C 
HETATM   17  C10 UNL     1      27.283   2.284  36.485  1.00  0.00     0.179 C 
HETATM   18  S1  UNL     1      29.001   2.901  36.553  1.00  0.00    -0.121 SA
HETATM   19  C11 UNL     1      26.660   2.532  35.086  1.00  0.00     0.194 C 
HETATM   20  C14 UNL     1      25.226   2.515  35.220  1.00  0.00     0.211 C 
HETATM   21  O7  UNL     1      24.438   1.900  34.449  1.00  0.00    -0.288 OA
BRANCH  14  22
HETATM   22  C8  UNL     1      24.946   4.442  38.448  1.00  0.00     0.229 C 
HETATM   23  O4  UNL     1      24.891   3.959  39.609  1.00  0.00    -0.643 OA
HETATM   24  O5  UNL     1      24.555   5.741  38.329  1.00  0.00    -0.643 OA
ENDBRANCH  14  22
BRANCH  19  25
HETATM   25  N4  UNL     1      27.342   1.711  34.140  1.00  0.00    -0.347 N 
HETATM   26  C12 UNL     1      27.855   2.405  32.987  1.00  0.00     0.214 C 
HETATM   27  C13 UNL     1      28.626   1.608  31.953  1.00  0.00     0.117 C 
HETATM   28  O6  UNL     1      27.716   3.576  32.789  1.00  0.00    -0.274 OA
ATOM     29  H4  UNL     1      27.458   0.706  34.271  1.00  0.00     0.163 HD
ENDBRANCH  19  25
ENDBRANCH  12  13
ENDBRANCH  10  12
ENDBRANCH   9  10
BRANCH   9  30
HETATM   30  C15 UNL     1      21.287   6.616  36.847  1.00  0.00     0.166 C 
BRANCH  30  31
HETATM   31  C16 UNL     1      22.352   7.391  36.181  1.00  0.00     0.259 C 
BRANCH  31  32
HETATM   32  N5  UNL     1      21.959   8.175  35.068  1.00  0.00    -0.077 N 
ATOM     33  H53 UNL     1      21.476   9.013  35.391  1.00  0.00     0.274 HD
ATOM     34  H52 UNL     1      22.781   8.591  34.631  1.00  0.00     0.274 HD
ATOM     35  H51 UNL     1      21.394   7.705  34.359  1.00  0.00     0.274 HD
ENDBRANCH  31  32
ENDBRANCH  30  31
BRANCH  30  36
HETATM   36  N6  UNL     1      21.255   6.878  38.297  1.00  0.00    -0.278 N 
HETATM   37  C17 UNL     1      20.156   7.339  38.926  1.00  0.00     0.141 A 
HETATM   38  C18 UNL     1      20.438   7.483  40.301  1.00  0.00     0.067 A 
HETATM   39  N7  UNL     1      21.721   7.092  40.418  1.00  0.00    -0.287 N 
HETATM   40  N8  UNL     1      22.178   6.735  39.203  1.00  0.00    -0.240 N 
ATOM     41  H7  UNL     1      22.258   7.068  41.284  1.00  0.00     0.188 HD
ATOM     42  H8  UNL     1      23.123   6.399  39.018  1.00  0.00     0.208 HD
BRANCH  38  43
HETATM   43  C19 UNL     1      19.465   7.973  41.317  1.00  0.00     0.224 C 
BRANCH  43  44
HETATM   44  O8  UNL     1      18.714   8.996  40.785  1.00  0.00    -0.395 OA
ATOM     45  H8  UNL     1      18.749   9.752  41.360  1.00  0.00     0.209 HD
ENDBRANCH  43  44
ENDBRANCH  38  43
ENDBRANCH  30  36
ENDBRANCH   9  30
ENDBRANCH   7   9
ENDBRANCH   6   7
BRANCH   6  46
HETATM   46  C20 UNL     1      18.126   5.676  35.510  1.00  0.00     0.151 C 
HETATM   47  C21 UNL     1      17.040   4.679  35.125  1.00  0.00     0.061 C 
BRANCH  46  48
HETATM   48  O9  UNL     1      18.207   5.654  36.927  1.00  0.00    -0.377 OA
ATOM     49  H9  UNL     1      17.727   6.407  37.250  1.00  0.00     0.211 HD
ENDBRANCH  46  48
BRANCH  46  50
HETATM   50  C22 UNL     1      17.611   7.021  35.143  1.00  0.00     0.110 A 
HETATM   51  N9  UNL     1      16.760   7.257  34.135  1.00  0.00    -0.293 N 
HETATM   52  N10 UNL     1      16.393   8.419  33.849  1.00  0.00    -0.281 N 
ATOM     53  H9  UNL     1      16.404   6.472  33.590  1.00  0.00     0.187 HD
HETATM   54  C23 UNL     1      16.855   9.452  34.565  1.00  0.00     0.174 A 
ATOM     55  H10 UNL     1      15.746   8.579  33.077  1.00  0.00     0.188 HD
HETATM   56  N11 UNL     1      16.573  10.849  34.394  1.00  0.00    -0.073 NA
HETATM   57  S2  UNL     1      17.866   8.612  35.685  1.00  0.00    -0.038 SA
ENDBRANCH  46  50
ENDBRANCH   6  46
ENDBRANCH   3   6
TORSDOF 18
ENDMDL
MODEL 2
REMARK VINA RESULT: -8.443841064      1.312      1.887
REMARK  18 active torsions:
REMARK  status: ('A' for Active; 'I' for Inactive)
REMARK    1  A    between atoms: C2_3  and  O1_4 
REMARK    2  A    between atoms: C2_3  and  C3_6 
REMARK    3  A    between atoms: C3_6  and  N2_7 
REMARK    4  A    between atoms: C3_6  and  C20_46 
REMARK    5  A    between atoms: N2_7  and  C4_9 
REMARK    6  A    between atoms: C4_9  and  C5_10 
REMARK    7  A    between atoms: C4_9  and  C15_30 
REMARK    8  A    between atoms: C5_10  and  O3_12 
REMARK    9  A    between atoms: O3_12  and  C6_13 
REMARK   10  A    between atoms: C7_14  and  C8_15 
REMARK   11  A    between atoms: C11_22  and  N4_23 
REMARK       I    between atoms: N4_23  and  C12_25 
REMARK   12  A    between atoms: C15_30  and  C16_31 
REMARK   13  A    between atoms: C15_30  and  N6_36 
REMARK   14  A    between atoms: C16_31  and  N5_32 
REMARK   15  A    between atoms: C18_38  and  C19_39 
REMARK   16  A    between atoms: C19_39  and  O8_40 
REMARK   17  A    between atoms: C20_46  and  O9_48 
REMARK   18  A    between atoms: C20_46  and  C22_50 
ROOT
HETATM    1  C1  UNL     1      21.496   1.726  34.936  1.00  0.00     0.262 C 
HETATM    2  N1  UNL     1      20.721   2.863  34.954  1.00  0.00    -0.429 NA
HETATM    3  C2  UNL     1      19.940   3.967  34.974  1.00  0.00     0.234 C 
ENDROOT
BRANCH   3   4
HETATM    4  O1  UNL     1      18.623   3.659  35.253  1.00  0.00    -0.334 OA
ATOM      5  H1  UNL     1      18.064   3.787  34.496  1.00  0.00     0.220 HD
ENDBRANCH   3   4
BRANCH   3   6
HETATM    6  C3  UNL     1      20.100   5.353  34.801  1.00  0.00     0.112 C 
BRANCH   6   7
HETATM    7  N2  UNL     1      21.116   5.952  35.315  1.00  0.00    -0.371 N 
ATOM      8  H2  UNL     1      21.237   6.873  34.893  1.00  0.00     0.160 HD
BRANCH   7   9
HETATM    9  C4  UNL     1      22.104   5.722  36.275  1.00  0.00     0.209 C 
BRANCH   9  10
HETATM   10  C5  UNL     1      23.307   5.068  35.623  1.00  0.00     0.289 C 
HETATM   11  O2  UNL     1      23.878   5.501  34.630  1.00  0.00    -0.262 OA
BRANCH  10  12
HETATM   12  O3  UNL     1      23.796   3.878  36.203  1.00  0.00    -0.271 OA
BRANCH  12  13
HETATM   13  C6  UNL     1      25.070   3.453  36.287  1.00  0.00     0.160 C 
HETATM   14  C7  UNL     1      25.856   3.580  37.321  1.00  0.00     0.147 C 
HETATM   15  N3  UNL     1      27.234   3.110  37.337  1.00  0.00    -0.348 N 
HETATM   16  C9  UNL     1      28.523   3.299  38.017  1.00  0.00     0.201 C 
HETATM   17  C10 UNL     1      27.585   2.079  36.408  1.00  0.00     0.179 C 
HETATM   18  S1  UNL     1      29.358   2.435  36.660  1.00  0.00    -0.121 SA
HETATM   19  C11 UNL     1      27.103   2.606  35.031  1.00  0.00     0.194 C 
HETATM   20  C14 UNL     1      25.673   2.770  35.083  1.00  0.00     0.211 C 
HETATM   21  O7  UNL     1      24.872   2.386  34.187  1.00  0.00    -0.288 OA
BRANCH  14  22
HETATM   22  C8  UNL     1      25.409   4.243  38.543  1.00  0.00     0.229 C 
HETATM   23  O4  UNL     1      24.191   4.360  38.838  1.00  0.00    -0.643 OA
HETATM   24  O5  UNL     1      26.287   4.762  39.445  1.00  0.00    -0.643 OA
ENDBRANCH  14  22
BRANCH  19  25
HETATM   25  N4  UNL     1      27.741   1.839  34.011  1.00  0.00    -0.347 N 
HETATM   26  C12 UNL     1      27.969   2.540  32.773  1.00  0.00     0.214 C 
HETATM   27  C13 UNL     1      28.677   1.805  31.651  1.00  0.00     0.117 C 
HETATM   28  O6  UNL     1      27.638   3.670  32.568  1.00  0.00    -0.274 OA
ATOM     29  H4  UNL     1      28.016   0.867  34.148  1.00  0.00     0.163 HD
ENDBRANCH  19  25
ENDBRANCH  12  13
ENDBRANCH  10  12
ENDBRANCH   9  10
BRANCH   9  30
HETATM   30  C15 UNL     1      22.453   7.092  36.876  1.00  0.00     0.166 C 
BRANCH  30  31
HETATM   31  C16 UNL     1      23.843   7.535  36.646  1.00  0.00     0.259 C 
BRANCH  31  32
HETATM   32  N5  UNL     1      24.041   8.468  35.598  1.00  0.00    -0.077 N 
ATOM     33  H53 UNL     1      23.985   9.417  35.968  1.00  0.00     0.274 HD
ATOM     34  H52 UNL     1      25.015   8.445  35.296  1.00  0.00     0.274 HD
ATOM     35  H51 UNL     1      23.428   8.378  34.788  1.00  0.00     0.274 HD
ENDBRANCH  31  32
ENDBRANCH  30  31
BRANCH  30  36
HETATM   36  N6  UNL     1      22.121   7.081  38.311  1.00  0.00    -0.278 N 
HETATM   37  C17 UNL     1      20.901   7.415  38.776  1.00  0.00     0.141 A 
HETATM   38  C18 UNL     1      20.895   7.302  40.182  1.00  0.00     0.067 A 
HETATM   39  N7  UNL     1      22.143   6.899  40.486  1.00  0.00    -0.287 N 
HETATM   40  N8  UNL     1      22.848   6.775  39.347  1.00  0.00    -0.240 N 
ATOM     41  H7  UNL     1      22.496   6.717  41.425  1.00  0.00     0.188 HD
ATOM     42  H8  UNL     1      23.823   6.481  39.301  1.00  0.00     0.208 HD
BRANCH  38  43
HETATM   43  C19 UNL     1      19.719   7.593  41.048  1.00  0.00     0.224 C 
BRANCH  43  44
HETATM   44  O8  UNL     1      19.004   8.646  40.524  1.00  0.00    -0.395 OA
ATOM     45  H8  UNL     1      19.554   9.420  40.486  1.00  0.00     0.209 HD
ENDBRANCH  43  44
ENDBRANCH  38  43
ENDBRANCH  30  36
ENDBRANCH   9  30
ENDBRANCH   7   9
ENDBRANCH   6   7
BRANCH   6  46
HETATM   46  C20 UNL     1      19.208   6.224  34.023  1.00  0.00     0.151 C 
HETATM   47  C21 UNL     1      19.965   7.137  33.067  1.00  0.00     0.061 C 
BRANCH  46  48
HETATM   48  O9  UNL     1      18.395   5.384  33.217  1.00  0.00    -0.377 OA
ATOM     49  H9  UNL     1      18.867   5.223  32.409  1.00  0.00     0.211 HD
ENDBRANCH  46  48
BRANCH  46  50
HETATM   50  C22 UNL     1      18.278   7.093  34.789  1.00  0.00     0.110 A 
HETATM   51  N9  UNL     1      17.171   6.657  35.407  1.00  0.00    -0.293 N 
HETATM   52  N10 UNL     1      16.404   7.445  36.005  1.00  0.00    -0.281 N 
ATOM     53  H9  UNL     1      16.950   5.661  35.390  1.00  0.00     0.187 HD
HETATM   54  C23 UNL     1      16.693   8.752  36.033  1.00  0.00     0.174 A 
ATOM     55  H10 UNL     1      15.565   7.095  36.467  1.00  0.00     0.188 HD
HETATM   56  N11 UNL     1      15.945   9.814  36.645  1.00  0.00    -0.073 NA
HETATM   57  S2  UNL     1      18.161   8.756  35.125  1.00  0.00    -0.038 SA
ENDBRANCH  46  50
ENDBRANCH   6  46
ENDBRANCH   3   6
TORSDOF 18
ENDMDL
MODEL 3
REMARK VINA RESULT: -8.074890619      1.485      2.010
REMARK  18 active torsions:
REMARK  status: ('A' for Active; 'I' for Inactive)
REMARK    1  A    between atoms: C2_3  and  O1_4 
REMARK    2  A    between atoms: C2_3  and  C3_6 
REMARK    3  A    between atoms: C3_6  and  N2_7 
REMARK    4  A    between atoms: C3_6  and  C20_46 
REMARK    5  A    between atoms: N2_7  and  C4_9 
REMARK    6  A    between atoms: C4_9  and  C5_10 
REMARK    7  A    between atoms: C4_9  and  C15_30 
REMARK    8  A    between atoms: C5_10  and  O3_12 
REMARK    9  A    between atoms: O3_12  and  C6_13 
REMARK   10  A    between atoms: C7_14  and  C8_15 
REMARK   11  A    between atoms: C11_22  and  N4_23 
REMARK       I    between atoms: N4_23  and  C12_25 
REMARK   12  A    between atoms: C15_30  and  C16_31 
REMARK   13  A    between atoms: C15_30  and  N6_36 
REMARK   14  A    between atoms: C16_31  and  N5_32 
REMARK   15  A    between atoms: C18_38  and  C19_39 
REMARK   16  A    between atoms: C19_39  and  O8_40 
REMARK   17  A    between atoms: C20_46  and  O9_48 
REMARK   18  A    between atoms: C20_46  and  C22_50 
ROOT
HETATM    1  C1  UNL     1      16.472   3.803  35.131  1.00  0.00     0.262 C 
HETATM    2  N1  UNL     1      17.782   4.222  35.081  1.00  0.00    -0.429 NA
HETATM    3  C2  UNL     1      19.076   4.613  35.034  1.00  0.00     0.234 C 
ENDROOT
BRANCH   3   4
HETATM    4  O1  UNL     1      19.938   3.535  35.079  1.00  0.00    -0.334 OA
ATOM      5  H1  UNL     1      20.520   3.517  34.328  1.00  0.00     0.220 HD
ENDBRANCH   3   4
BRANCH   3   6
HETATM    6  C3  UNL     1      19.792   5.819  34.941  1.00  0.00     0.112 C 
BRANCH   6   7
HETATM    7  N2  UNL     1      21.069   5.823  35.094  1.00  0.00    -0.371 N 
ATOM      8  H2  UNL     1      21.534   5.994  34.203  1.00  0.00     0.160 HD
BRANCH   7   9
HETATM    9  C4  UNL     1      22.011   5.664  36.114  1.00  0.00     0.209 C 
BRANCH   9  10
HETATM   10  C5  UNL     1      23.265   5.021  35.553  1.00  0.00     0.289 C 
HETATM   11  O2  UNL     1      23.889   5.444  34.588  1.00  0.00    -0.262 OA
BRANCH  10  12
HETATM   12  O3  UNL     1      23.740   3.854  36.190  1.00  0.00    -0.271 OA
BRANCH  12  13
HETATM   13  C6  UNL     1      25.004   3.401  36.266  1.00  0.00     0.160 C 
HETATM   14  C7  UNL     1      25.807   3.528  37.288  1.00  0.00     0.147 C 
HETATM   15  N3  UNL     1      27.173   3.025  37.295  1.00  0.00    -0.348 N 
HETATM   16  C9  UNL     1      28.475   3.196  37.955  1.00  0.00     0.201 C 
HETATM   17  C10 UNL     1      27.488   1.971  36.380  1.00  0.00     0.179 C 
HETATM   18  S1  UNL     1      29.272   2.289  36.604  1.00  0.00    -0.121 SA
HETATM   19  C11 UNL     1      27.001   2.484  35.000  1.00  0.00     0.194 C 
HETATM   20  C14 UNL     1      25.576   2.683  35.067  1.00  0.00     0.211 C 
HETATM   21  O7  UNL     1      24.755   2.302  34.188  1.00  0.00    -0.288 OA
BRANCH  14  22
HETATM   22  C8  UNL     1      25.391   4.222  38.503  1.00  0.00     0.229 C 
HETATM   23  O4  UNL     1      24.180   4.374  38.810  1.00  0.00    -0.643 OA
HETATM   24  O5  UNL     1      26.293   4.734  39.385  1.00  0.00    -0.643 OA
ENDBRANCH  14  22
BRANCH  19  25
HETATM   25  N4  UNL     1      27.607   1.685  33.986  1.00  0.00    -0.347 N 
HETATM   26  C12 UNL     1      28.039   2.407  32.816  1.00  0.00     0.214 C 
HETATM   27  C13 UNL     1      28.728   1.634  31.708  1.00  0.00     0.117 C 
HETATM   28  O6  UNL     1      27.893   3.583  32.659  1.00  0.00    -0.274 OA
ATOM     29  H4  UNL     1      27.727   0.677  34.082  1.00  0.00     0.163 HD
ENDBRANCH  19  25
ENDBRANCH  12  13
ENDBRANCH  10  12
ENDBRANCH   9  10
BRANCH   9  30
HETATM   30  C15 UNL     1      22.288   7.068  36.672  1.00  0.00     0.166 C 
BRANCH  30  31
HETATM   31  C16 UNL     1      23.603   7.633  36.307  1.00  0.00     0.259 C 
BRANCH  31  32
HETATM   32  N5  UNL     1      23.604   8.621  35.291  1.00  0.00    -0.077 N 
ATOM     33  H53 UNL     1      22.662   8.730  34.917  1.00  0.00     0.274 HD
ATOM     34  H52 UNL     1      23.747   9.541  35.707  1.00  0.00     0.274 HD
ATOM     35  H51 UNL     1      24.264   8.483  34.525  1.00  0.00     0.274 HD
ENDBRANCH  31  32
ENDBRANCH  30  31
BRANCH  30  36
HETATM   36  N6  UNL     1      22.097   7.046  38.133  1.00  0.00    -0.278 N 
HETATM   37  C17 UNL     1      20.902   7.277  38.711  1.00  0.00     0.141 A 
HETATM   38  C18 UNL     1      21.040   7.183  40.111  1.00  0.00     0.067 A 
HETATM   39  N7  UNL     1      22.342   6.895  40.295  1.00  0.00    -0.287 N 
HETATM   40  N8  UNL     1      22.944   6.819  39.094  1.00  0.00    -0.240 N 
ATOM     41  H7  UNL     1      22.798   6.756  41.197  1.00  0.00     0.188 HD
ATOM     42  H8  UNL     1      23.933   6.611  38.956  1.00  0.00     0.208 HD
BRANCH  38  43
HETATM   43  C19 UNL     1      19.932   7.380  41.086  1.00  0.00     0.224 C 
BRANCH  43  44
HETATM   44  O8  UNL     1      19.047   8.317  40.601  1.00  0.00    -0.395 OA
ATOM     45  H8  UNL     1      18.208   8.220  41.034  1.00  0.00     0.209 HD
ENDBRANCH  43  44
ENDBRANCH  38  43
ENDBRANCH  30  36
ENDBRANCH   9  30
ENDBRANCH   7   9
ENDBRANCH   6   7
BRANCH   6  46
HETATM   46  C20 UNL     1      19.211   7.133  34.631  1.00  0.00     0.151 C 
HETATM   47  C21 UNL     1      18.513   7.765  35.828  1.00  0.00     0.061 C 
BRANCH  46  48
HETATM   48  O9  UNL     1      20.283   7.999  34.288  1.00  0.00    -0.377 OA
ATOM     49  H9  UNL     1      20.767   7.585  33.584  1.00  0.00     0.211 HD
ENDBRANCH  46  48
BRANCH  46  50
HETATM   50  C22 UNL     1      18.249   7.195  33.500  1.00  0.00     0.110 A 
HETATM   51  N9  UNL     1      16.936   6.946  33.610  1.00  0.00    -0.293 N 
HETATM   52  N10 UNL     1      16.181   6.975  32.611  1.00  0.00    -0.281 N 
ATOM     53  H9  UNL     1      16.544   6.728  34.526  1.00  0.00     0.187 HD
HETATM   54  C23 UNL     1      16.691   7.263  31.407  1.00  0.00     0.174 A 
ATOM     55  H10 UNL     1      15.186   6.780  32.714  1.00  0.00     0.188 HD
HETATM   56  N11 UNL     1      16.007   7.333  30.147  1.00  0.00    -0.073 NA
HETATM   57  S2  UNL     1      18.350   7.488  31.829  1.00  0.00    -0.038 SA
ENDBRANCH  46  50
ENDBRANCH   6  46
ENDBRANCH   3   6
TORSDOF 18
ENDMDL
MODEL 4
REMARK VINA RESULT: -8.066374561      2.023      3.288
REMARK  18 active torsions:
REMARK  status: ('A' for Active; 'I' for Inactive)
REMARK    1  A    between atoms: C2_3  and  O1_4 
REMARK    2  A    between atoms: C2_3  and  C3_6 
REMARK    3  A    between atoms: C3_6  and  N2_7 
REMARK    4  A    between atoms: C3_6  and  C20_46 
REMARK    5  A    between atoms: N2_7  and  C4_9 
REMARK    6  A    between atoms: C4_9  and  C5_10 
REMARK    7  A    between atoms: C4_9  and  C15_30 
REMARK    8  A    between atoms: C5_10  and  O3_12 
REMARK    9  A    between atoms: O3_12  and  C6_13 
REMARK   10  A    between atoms: C7_14  and  C8_15 
REMARK   11  A    between atoms: C11_22  and  N4_23 
REMARK       I    between atoms: N4_23  and  C12_25 
REMARK   12  A    between atoms: C15_30  and  C16_31 
REMARK   13  A    between atoms: C15_30  and  N6_36 
REMARK   14  A    between atoms: C16_31  and  N5_32 
REMARK   15  A    between atoms: C18_38  and  C19_39 
REMARK   16  A    between atoms: C19_39  and  O8_40 
REMARK   17  A    between atoms: C20_46  and  O9_48 
REMARK   18  A    between atoms: C20_46  and  C22_50 
ROOT
HETATM    1  C1  UNL     1      21.957   9.105  34.750  1.00  0.00     0.262 C 
HETATM    2  N1  UNL     1      20.834   8.585  35.351  1.00  0.00    -0.429 NA
HETATM    3  C2  UNL     1      19.724   8.095  35.948  1.00  0.00     0.234 C 
ENDROOT
BRANCH   3   4
HETATM    4  O1  UNL     1      18.960   9.098  36.511  1.00  0.00    -0.334 OA
ATOM      5  H1  UNL     1      18.533   8.810  37.310  1.00  0.00     0.220 HD
ENDBRANCH   3   4
BRANCH   3   6
HETATM    6  C3  UNL     1      19.122   6.841  36.147  1.00  0.00     0.112 C 
BRANCH   6   7
HETATM    7  N2  UNL     1      19.558   6.056  37.068  1.00  0.00    -0.371 N 
ATOM      8  H2  UNL     1      18.781   5.597  37.543  1.00  0.00     0.160 HD
BRANCH   7   9
HETATM    9  C4  UNL     1      20.776   5.643  37.615  1.00  0.00     0.209 C 
BRANCH   9  10
HETATM   10  C5  UNL     1      21.600   4.941  36.553  1.00  0.00     0.289 C 
HETATM   11  O2  UNL     1      21.613   5.251  35.368  1.00  0.00    -0.262 OA
BRANCH  10  12
HETATM   12  O3  UNL     1      22.402   3.855  36.963  1.00  0.00    -0.271 OA
BRANCH  12  13
HETATM   13  C6  UNL     1      23.513   3.370  36.378  1.00  0.00     0.160 C 
HETATM   14  C7  UNL     1      23.554   2.606  35.320  1.00  0.00     0.147 C 
HETATM   15  N3  UNL     1      24.795   2.103  34.750  1.00  0.00    -0.348 N 
HETATM   16  C9  UNL     1      25.337   1.038  33.894  1.00  0.00     0.201 C 
HETATM   17  C10 UNL     1      25.993   2.829  35.043  1.00  0.00     0.179 C 
HETATM   18  S1  UNL     1      27.005   1.408  34.501  1.00  0.00    -0.121 SA
HETATM   19  C11 UNL     1      26.007   2.963  36.588  1.00  0.00     0.194 C 
HETATM   20  C14 UNL     1      24.849   3.721  36.988  1.00  0.00     0.211 C 
HETATM   21  O7  UNL     1      24.862   4.667  37.823  1.00  0.00    -0.288 OA
BRANCH  14  22
HETATM   22  C8  UNL     1      22.335   2.170  34.646  1.00  0.00     0.229 C 
HETATM   23  O4  UNL     1      21.275   1.909  35.274  1.00  0.00    -0.643 OA
HETATM   24  O5  UNL     1      22.268   2.036  33.293  1.00  0.00    -0.643 OA
ENDBRANCH  14  22
BRANCH  19  25
HETATM   25  N4  UNL     1      27.326   3.325  36.994  1.00  0.00    -0.347 N 
HETATM   26  C12 UNL     1      28.139   2.234  37.467  1.00  0.00     0.214 C 
HETATM   27  C13 UNL     1      29.568   2.530  37.882  1.00  0.00     0.117 C 
HETATM   28  O6  UNL     1      27.764   1.103  37.554  1.00  0.00    -0.274 OA
ATOM     29  H4  UNL     1      27.668   4.285  36.951  1.00  0.00     0.163 HD
ENDBRANCH  19  25
ENDBRANCH  12  13
ENDBRANCH  10  12
ENDBRANCH   9  10
BRANCH   9  30
HETATM   30  C15 UNL     1      21.471   6.911  38.133  1.00  0.00     0.166 C 
BRANCH  30  31
HETATM   31  C16 UNL     1      22.945   6.832  38.189  1.00  0.00     0.259 C 
BRANCH  31  32
HETATM   32  N5  UNL     1      23.653   7.562  37.202  1.00  0.00    -0.077 N 
ATOM     33  H53 UNL     1      23.170   7.487  36.307  1.00  0.00     0.274 HD
ATOM     34  H52 UNL     1      23.558   8.562  37.381  1.00  0.00     0.274 HD
ATOM     35  H51 UNL     1      24.638   7.325  37.082  1.00  0.00     0.274 HD
ENDBRANCH  31  32
ENDBRANCH  30  31
BRANCH  30  36
HETATM   36  N6  UNL     1      20.900   7.266  39.444  1.00  0.00    -0.278 N 
HETATM   37  C17 UNL     1      19.917   8.177  39.584  1.00  0.00     0.141 A 
HETATM   38  C18 UNL     1      19.585   8.292  40.950  1.00  0.00     0.067 A 
HETATM   39  N7  UNL     1      20.408   7.422  41.564  1.00  0.00    -0.287 N 
HETATM   40  N8  UNL     1      21.179   6.825  40.637  1.00  0.00    -0.240 N 
ATOM     41  H7  UNL     1      20.442   7.244  42.568  1.00  0.00     0.188 HD
ATOM     42  H8  UNL     1      21.888   6.121  40.841  1.00  0.00     0.208 HD
BRANCH  38  43
HETATM   43  C19 UNL     1      18.542   9.205  41.493  1.00  0.00     0.224 C 
BRANCH  43  44
HETATM   44  O8  UNL     1      17.858   9.799  40.455  1.00  0.00    -0.395 OA
ATOM     45  H8  UNL     1      17.963  10.742  40.500  1.00  0.00     0.209 HD
ENDBRANCH  43  44
ENDBRANCH  38  43
ENDBRANCH  30  36
ENDBRANCH   9  30
ENDBRANCH   7   9
ENDBRANCH   6   7
BRANCH   6  46
HETATM   46  C20 UNL     1      17.965   6.322  35.403  1.00  0.00     0.151 C 
HETATM   47  C21 UNL     1      17.937   4.801  35.344  1.00  0.00     0.061 C 
BRANCH  46  48
HETATM   48  O9  UNL     1      16.797   6.718  36.108  1.00  0.00    -0.377 OA
ATOM     49  H9  UNL     1      16.165   6.014  36.026  1.00  0.00     0.211 HD
ENDBRANCH  46  48
BRANCH  46  50
HETATM   50  C22 UNL     1      17.791   6.802  34.008  1.00  0.00     0.110 A 
HETATM   51  N9  UNL     1      16.719   7.476  33.568  1.00  0.00    -0.293 N 
HETATM   52  N10 UNL     1      16.611   7.820  32.368  1.00  0.00    -0.281 N 
ATOM     53  H9  UNL     1      15.975   7.714  34.224  1.00  0.00     0.187 HD
HETATM   54  C23 UNL     1      17.587   7.513  31.504  1.00  0.00     0.174 A 
ATOM     55  H10 UNL     1      15.787   8.330  32.052  1.00  0.00     0.188 HD
HETATM   56  N11 UNL     1      17.650   7.798  30.099  1.00  0.00    -0.073 NA
HETATM   57  S2  UNL     1      18.673   6.685  32.559  1.00  0.00    -0.038 SA
ENDBRANCH  46  50
ENDBRANCH   6  46
ENDBRANCH   3   6
TORSDOF 18
ENDMDL
MODEL 5
REMARK VINA RESULT: -8.063049376      2.822      8.429
REMARK  18 active torsions:
REMARK  status: ('A' for Active; 'I' for Inactive)
REMARK    1  A    between atoms: C2_3  and  O1_4 
REMARK    2  A    between atoms: C2_3  and  C3_6 
REMARK    3  A    between atoms: C3_6  and  N2_7 
REMARK    4  A    between atoms: C3_6  and  C20_46 
REMARK    5  A    between atoms: N2_7  and  C4_9 
REMARK    6  A    between atoms: C4_9  and  C5_10 
REMARK    7  A    between atoms: C4_9  and  C15_30 
REMARK    8  A    between atoms: C5_10  and  O3_12 
REMARK    9  A    between atoms: O3_12  and  C6_13 
REMARK   10  A    between atoms: C7_14  and  C8_15 
REMARK   11  A    between atoms: C11_22  and  N4_23 
REMARK       I    between atoms: N4_23  and  C12_25 
REMARK   12  A    between atoms: C15_30  and  C16_31 
REMARK   13  A    between atoms: C15_30  and  N6_36 
REMARK   14  A    between atoms: C16_31  and  N5_32 
REMARK   15  A    between atoms: C18_38  and  C19_39 
REMARK   16  A    between atoms: C19_39  and  O8_40 
REMARK   17  A    between atoms: C20_46  and  O9_48 
REMARK   18  A    between atoms: C20_46  and  C22_50 
ROOT
HETATM    1  C1  UNL     1      22.518  10.231  34.925  1.00  0.00     0.262 C 
HETATM    2  N1  UNL     1      23.076   9.209  35.659  1.00  0.00    -0.429 NA
HETATM    3  C2  UNL     1      23.643   8.216  36.381  1.00  0.00     0.234 C 
ENDROOT
BRANCH   3   4
HETATM    4  O1  UNL     1      24.940   8.522  36.743  1.00  0.00    -0.334 OA
ATOM      5  H1  UNL     1      25.264   7.940  37.420  1.00  0.00     0.220 HD
ENDBRANCH   3   4
BRANCH   3   6
HETATM    6  C3  UNL     1      23.273   6.955  36.878  1.00  0.00     0.112 C 
BRANCH   6   7
HETATM    7  N2  UNL     1      22.844   6.047  36.074  1.00  0.00    -0.371 N 
ATOM      8  H2  UNL     1      23.625   5.511  35.694  1.00  0.00     0.160 HD
BRANCH   7   9
HETATM    9  C4  UNL     1      21.633   5.573  35.565  1.00  0.00     0.209 C 
BRANCH   9  10
HETATM   10  C5  UNL     1      21.233   6.393  34.353  1.00  0.00     0.289 C 
HETATM   11  O2  UNL     1      22.009   7.063  33.683  1.00  0.00    -0.262 OA
BRANCH  10  12
HETATM   12  O3  UNL     1      19.872   6.382  33.979  1.00  0.00    -0.271 OA
BRANCH  12  13
HETATM   13  C6  UNL     1      19.105   7.418  33.593  1.00  0.00     0.160 C 
HETATM   14  C7  UNL     1      18.518   8.276  34.382  1.00  0.00     0.147 C 
HETATM   15  N3  UNL     1      17.686   9.366  33.894  1.00  0.00    -0.348 N 
HETATM   16  C9  UNL     1      16.617  10.289  34.302  1.00  0.00     0.201 C 
HETATM   17  C10 UNL     1      17.896   9.798  32.546  1.00  0.00     0.179 C 
HETATM   18  S1  UNL     1      16.291  10.670  32.559  1.00  0.00    -0.121 SA
HETATM   19  C11 UNL     1      17.817   8.503  31.697  1.00  0.00     0.194 C 
HETATM   20  C14 UNL     1      18.878   7.623  32.114  1.00  0.00     0.211 C 
HETATM   21  O7  UNL     1      19.643   6.996  31.330  1.00  0.00    -0.288 OA
BRANCH  14  22
HETATM   22  C8  UNL     1      18.633   8.180  35.834  1.00  0.00     0.229 C 
HETATM   23  O4  UNL     1      18.109   7.241  36.490  1.00  0.00    -0.643 OA
HETATM   24  O5  UNL     1      19.329   9.094  36.565  1.00  0.00    -0.643 OA
ENDBRANCH  14  22
BRANCH  19  25
HETATM   25  N4  UNL     1      17.633   8.873  30.332  1.00  0.00    -0.347 N 
HETATM   26  C12 UNL     1      16.601   8.147  29.637  1.00  0.00     0.214 C 
HETATM   27  C13 UNL     1      16.317   8.508  28.192  1.00  0.00     0.117 C 
HETATM   28  O6  UNL     1      15.946   7.274  30.125  1.00  0.00    -0.274 OA
ATOM     29  H4  UNL     1      18.190   9.599  29.882  1.00  0.00     0.163 HD
ENDBRANCH  19  25
ENDBRANCH  12  13
ENDBRANCH  10  12
ENDBRANCH   9  10
BRANCH   9  30
HETATM   30  C15 UNL     1      21.861   4.096  35.206  1.00  0.00     0.166 C 
BRANCH  30  31
HETATM   31  C16 UNL     1      21.094   3.134  36.022  1.00  0.00     0.259 C 
BRANCH  31  32
HETATM   32  N5  UNL     1      20.078   2.409  35.352  1.00  0.00    -0.077 N 
ATOM     33  H53 UNL     1      20.150   2.565  34.347  1.00  0.00     0.274 HD
ATOM     34  H52 UNL     1      20.279   1.410  35.399  1.00  0.00     0.274 HD
ATOM     35  H51 UNL     1      19.120   2.582  35.658  1.00  0.00     0.274 HD
ENDBRANCH  31  32
ENDBRANCH  30  31
BRANCH  30  36
HETATM   36  N6  UNL     1      23.306   3.813  35.252  1.00  0.00    -0.278 N 
HETATM   37  C17 UNL     1      23.804   2.662  35.747  1.00  0.00     0.141 A 
HETATM   38  C18 UNL     1      25.210   2.688  35.650  1.00  0.00     0.067 A 
HETATM   39  N7  UNL     1      25.480   3.883  35.091  1.00  0.00    -0.287 N 
HETATM   40  N8  UNL     1      24.322   4.528  34.864  1.00  0.00    -0.240 N 
ATOM     41  H7  UNL     1      26.411   4.240  34.873  1.00  0.00     0.188 HD
ATOM     42  H8  UNL     1      24.249   5.455  34.445  1.00  0.00     0.208 HD
BRANCH  38  43
HETATM   43  C19 UNL     1      26.109   1.590  36.100  1.00  0.00     0.224 C 
BRANCH  43  44
HETATM   44  O8  UNL     1      26.633   0.940  35.006  1.00  0.00    -0.395 OA
ATOM     45  H8  UNL     1      27.399   0.441  35.265  1.00  0.00     0.209 HD
ENDBRANCH  43  44
ENDBRANCH  38  43
ENDBRANCH  30  36
ENDBRANCH   9  30
ENDBRANCH   7   9
ENDBRANCH   6   7
BRANCH   6  46
HETATM   46  C20 UNL     1      23.366   6.531  38.283  1.00  0.00     0.151 C 
HETATM   47  C21 UNL     1      23.490   5.020  38.434  1.00  0.00     0.061 C 
BRANCH  46  48
HETATM   48  O9  UNL     1      24.560   7.087  38.814  1.00  0.00    -0.377 OA
ATOM     49  H9  UNL     1      25.237   6.425  38.742  1.00  0.00     0.211 HD
ENDBRANCH  46  48
BRANCH  46  50
HETATM   50  C22 UNL     1      22.269   6.957  39.190  1.00  0.00     0.110 A 
HETATM   51  N9  UNL     1      22.446   7.349  40.459  1.00  0.00    -0.293 N 
HETATM   52  N10 UNL     1      21.476   7.659  41.188  1.00  0.00    -0.281 N 
ATOM     53  H9  UNL     1      23.392   7.397  40.839  1.00  0.00     0.187 HD
HETATM   54  C23 UNL     1      20.234   7.602  40.692  1.00  0.00     0.174 A 
ATOM     55  H10 UNL     1      21.631   7.953  42.152  1.00  0.00     0.188 HD
HETATM   56  N11 UNL     1      18.997   7.898  41.358  1.00  0.00    -0.073 NA
HETATM   57  S2  UNL     1      20.575   7.062  39.088  1.00  0.00    -0.038 SA
ENDBRANCH  46  50
ENDBRANCH   6  46
ENDBRANCH   3   6
TORSDOF 18
ENDMDL
