MODEL 1
REMARK VINA RESULT: -3.982090754      0.000      0.000
REMARK  2 active torsions:
REMARK  status: ('A' for Active; 'I' for Inactive)
REMARK    1  A    between atoms: C4_5  and  N2_6 
REMARK    2  A    between atoms: C5_10  and  N3_11 
ROOT
HETATM    1  C1  UNL     1      25.958  13.046  10.631  1.00  0.00     0.312 C 
HETATM    2  N1  UNL     1      25.716  11.713  11.094  1.00  0.00     0.117 N 
HETATM    3  C2  UNL     1      25.280  11.610  12.443  1.00  0.00     0.277 C 
HETATM    4  C3  UNL     1      23.996  10.837  12.477  1.00  0.00     0.067 C 
HETATM    5  C4  UNL     1      23.601  10.732  11.038  1.00  0.00     0.245 C 
HETATM    6  C5  UNL     1      24.865  10.931  10.257  1.00  0.00     0.446 C 
ENDROOT
BRANCH   5   7
HETATM    7  N2  UNL     1      22.916   9.503  10.719  1.00  0.00    -0.071 N 
ATOM      8  H23 UNL     1      23.529   8.871  10.204  1.00  0.00     0.274 HD
ATOM      9  H22 UNL     1      22.765   8.945  11.560  1.00  0.00     0.274 HD
ATOM     10  H21 UNL     1      22.040   9.645  10.217  1.00  0.00     0.274 HD
ENDBRANCH   5   7
BRANCH   6  11
HETATM   11  N3  UNL     1      25.540   9.656  10.010  1.00  0.00    -0.045 N 
ATOM     12  H33 UNL     1      26.552   9.752   9.922  1.00  0.00     0.277 HD
ATOM     13  H32 UNL     1      25.534   9.040  10.822  1.00  0.00     0.277 HD
ATOM     14  H31 UNL     1      25.109   9.234   9.187  1.00  0.00     0.277 HD
ENDBRANCH   6  11
TORSDOF 2
ENDMDL
MODEL 2
REMARK VINA RESULT: -3.827250056      2.296      2.740
REMARK  2 active torsions:
REMARK  status: ('A' for Active; 'I' for Inactive)
REMARK    1  A    between atoms: C4_5  and  N2_6 
REMARK    2  A    between atoms: C5_10  and  N3_11 
ROOT
HETATM    1  C1  UNL     1      27.571  12.258   9.477  1.00  0.00     0.312 C 
HETATM    2  N1  UNL     1      26.948  10.991   9.712  1.00  0.00     0.117 N 
HETATM    3  C2  UNL     1      25.703  11.045  10.397  1.00  0.00     0.277 C 
HETATM    4  C3  UNL     1      24.672  10.330   9.578  1.00  0.00     0.067 C 
HETATM    5  C4  UNL     1      25.353  10.091   8.268  1.00  0.00     0.245 C 
HETATM    6  C5  UNL     1      26.823  10.160   8.559  1.00  0.00     0.446 C 
ENDROOT
BRANCH   5   7
HETATM    7  N2  UNL     1      24.951   8.864   7.627  1.00  0.00    -0.071 N 
ATOM      8  H23 UNL     1      25.639   8.577   6.931  1.00  0.00     0.274 HD
ATOM      9  H22 UNL     1      25.025   8.077   8.273  1.00  0.00     0.274 HD
ATOM     10  H21 UNL     1      24.018   8.907   7.216  1.00  0.00     0.274 HD
ENDBRANCH   5   7
BRANCH   6  11
HETATM   11  N3  UNL     1      27.354   8.841   8.905  1.00  0.00    -0.045 N 
ATOM     12  H33 UNL     1      28.372   8.827   8.970  1.00  0.00     0.277 HD
ATOM     13  H32 UNL     1      27.155   8.573   9.869  1.00  0.00     0.277 HD
ATOM     14  H31 UNL     1      26.990   8.174   8.224  1.00  0.00     0.277 HD
ENDBRANCH   6  11
TORSDOF 2
ENDMDL
MODEL 3
REMARK VINA RESULT: -3.800586659      2.359      3.597
REMARK  2 active torsions:
REMARK  status: ('A' for Active; 'I' for Inactive)
REMARK    1  A    between atoms: C4_5  and  N2_6 
REMARK    2  A    between atoms: C5_10  and  N3_11 
ROOT
HETATM    1  C1  UNL     1      26.004  11.380  10.845  1.00  0.00     0.312 C 
HETATM    2  N1  UNL     1      25.848  10.292   9.927  1.00  0.00     0.117 N 
HETATM    3  C2  UNL     1      24.563  10.183   9.328  1.00  0.00     0.277 C 
HETATM    4  C3  UNL     1      24.727  10.169   7.838  1.00  0.00     0.067 C 
HETATM    5  C4  UNL     1      26.163  10.535   7.630  1.00  0.00     0.245 C 
HETATM    6  C5  UNL     1      26.854  10.208   8.919  1.00  0.00     0.446 C 
ENDROOT
BRANCH   5   7
HETATM    7  N2  UNL     1      26.756   9.897   6.481  1.00  0.00    -0.071 N 
ATOM      8  H23 UNL     1      27.028   8.939   6.700  1.00  0.00     0.274 HD
ATOM      9  H22 UNL     1      26.053   9.714   5.765  1.00  0.00     0.274 HD
ATOM     10  H21 UNL     1      27.543  10.416   6.090  1.00  0.00     0.274 HD
ENDBRANCH   5   7
BRANCH   6  11
HETATM   11  N3  UNL     1      27.359   8.834   8.913  1.00  0.00    -0.045 N 
ATOM     12  H33 UNL     1      27.671   8.521   9.832  1.00  0.00     0.277 HD
ATOM     13  H32 UNL     1      26.623   8.141   8.778  1.00  0.00     0.277 HD
ATOM     14  H31 UNL     1      28.091   8.779   8.205  1.00  0.00     0.277 HD
ENDBRANCH   6  11
TORSDOF 2
ENDMDL
MODEL 4
REMARK VINA RESULT: -3.742141581      1.576      2.384
REMARK  2 active torsions:
REMARK  status: ('A' for Active; 'I' for Inactive)
REMARK    1  A    between atoms: C4_5  and  N2_6 
REMARK    2  A    between atoms: C5_10  and  N3_11 
ROOT
HETATM    1  C1  UNL     1      27.466  12.148  11.436  1.00  0.00     0.312 C 
HETATM    2  N1  UNL     1      26.082  12.332  11.754  1.00  0.00     0.117 N 
HETATM    3  C2  UNL     1      25.211  12.429  10.635  1.00  0.00     0.277 C 
HETATM    4  C3  UNL     1      24.127  11.403  10.778  1.00  0.00     0.067 C 
HETATM    5  C4  UNL     1      24.587  10.550  11.918  1.00  0.00     0.245 C 
HETATM    6  C5  UNL     1      25.552  11.397  12.692  1.00  0.00     0.446 C 
ENDROOT
BRANCH   5   7
HETATM    7  N2  UNL     1      23.505  10.032  12.719  1.00  0.00    -0.071 N 
ATOM      8  H23 UNL     1      23.847   9.332  13.378  1.00  0.00     0.274 HD
ATOM      9  H22 UNL     1      23.174  10.737  13.378  1.00  0.00     0.274 HD
ATOM     10  H21 UNL     1      22.732   9.662  12.167  1.00  0.00     0.274 HD
ENDBRANCH   5   7
BRANCH   6  11
HETATM   11  N3  UNL     1      24.865  12.160  13.736  1.00  0.00    -0.045 N 
ATOM     12  H33 UNL     1      24.309  12.930  13.365  1.00  0.00     0.277 HD
ATOM     13  H32 UNL     1      24.103  11.641  14.170  1.00  0.00     0.277 HD
ATOM     14  H31 UNL     1      25.570  12.467  14.407  1.00  0.00     0.277 HD
ENDBRANCH   6  11
TORSDOF 2
ENDMDL
MODEL 5
REMARK VINA RESULT: -3.720514102      3.280      4.595
REMARK  2 active torsions:
REMARK  status: ('A' for Active; 'I' for Inactive)
REMARK    1  A    between atoms: C4_5  and  N2_6 
REMARK    2  A    between atoms: C5_10  and  N3_11 
ROOT
HETATM    1  C1  UNL     1      26.158  10.167   9.882  1.00  0.00     0.312 C 
HETATM    2  N1  UNL     1      25.767   9.679   8.594  1.00  0.00     0.117 N 
HETATM    3  C2  UNL     1      24.498  10.126   8.136  1.00  0.00     0.277 C 
HETATM    4  C3  UNL     1      24.669  10.761   6.788  1.00  0.00     0.067 C 
HETATM    5  C4  UNL     1      26.152  10.874   6.630  1.00  0.00     0.245 C 
HETATM    6  C5  UNL     1      26.737   9.857   7.564  1.00  0.00     0.446 C 
ENDROOT
BRANCH   5   7
HETATM    7  N2  UNL     1      26.596  10.724   5.266  1.00  0.00    -0.071 N 
ATOM      8  H23 UNL     1      26.888   9.764   5.084  1.00  0.00     0.274 HD
ATOM      9  H22 UNL     1      25.808  10.786   4.620  1.00  0.00     0.274 HD
ATOM     10  H21 UNL     1      27.331  11.382   5.003  1.00  0.00     0.274 HD
ENDBRANCH   5   7
BRANCH   6  11
HETATM   11  N3  UNL     1      26.914   8.567   6.895  1.00  0.00    -0.045 N 
ATOM     12  H33 UNL     1      27.795   8.112   7.136  1.00  0.00     0.277 HD
ATOM     13  H32 UNL     1      26.289   7.846   7.253  1.00  0.00     0.277 HD
ATOM     14  H31 UNL     1      26.809   8.723   5.893  1.00  0.00     0.277 HD
ENDBRANCH   6  11
TORSDOF 2
ENDMDL
