MODEL 1
REMARK VINA RESULT: -8.334412515      0.000      0.000
REMARK  13 active torsions:
REMARK  status: ('A' for Active; 'I' for Inactive)
REMARK    1  A    between atoms: C2_2  and  C3_3 
REMARK    2  A    between atoms: C6_6  and  C7_7 
REMARK    3  A    between atoms: C7_7  and  C9_9 
REMARK    4  A    between atoms: C9_9  and  C10_10 
REMARK    5  A    between atoms: C12_13  and  C13_14 
REMARK    6  A    between atoms: C13_14  and  C14_15 
REMARK    7  A    between atoms: C14_15  and  C15_17 
REMARK    8  A    between atoms: C15_17  and  C16_18 
REMARK    9  A    between atoms: C16_18  and  C17_19 
REMARK   10  A    between atoms: C17_19  and  C18_20 
REMARK   11  A    between atoms: C20_22  and  O3_23 
REMARK   12  A    between atoms: C21_25  and  O4_26 
REMARK   13  A    between atoms: C26_32  and  O5_33 
ROOT
HETATM    1  C10 UNL     1      49.233  51.505  16.073  1.00  0.00     0.045 C 
HETATM    2  C11 UNL     1      47.896  51.418  15.287  1.00  0.00     0.175 C 
HETATM    3  O1  UNL     1      48.108  50.554  14.237  1.00  0.00    -0.382 OA
HETATM    4  C12 UNL     1      47.963  49.222  14.671  1.00  0.00     0.159 C 
HETATM    5  C20 UNL     1      48.734  49.021  15.948  1.00  0.00     0.176 C 
HETATM    6  C21 UNL     1      49.779  50.103  16.136  1.00  0.00     0.155 C 
ENDROOT
BRANCH   1   7
HETATM    7  C9  UNL     1      48.879  52.060  17.411  1.00  0.00     0.043 C 
BRANCH   7   8
HETATM    8  C7  UNL     1      49.591  53.302  17.823  1.00  0.00    -0.084 C 
HETATM    9  C8  UNL     1      49.033  54.443  17.610  1.00  0.00     0.015 C 
BRANCH   8  10
HETATM   10  C6  UNL     1      50.915  53.029  18.421  1.00  0.00     0.019 C 
HETATM   11  C5  UNL     1      50.730  51.713  19.189  1.00  0.00     0.025 C 
HETATM   12  C3  UNL     1      51.736  51.504  20.263  1.00  0.00    -0.000 C 
HETATM   13  C4  UNL     1      53.039  51.065  19.592  1.00  0.00     0.022 C 
HETATM   14  C26 UNL     1      51.934  52.634  21.208  1.00  0.00     0.134 C 
HETATM   15  C24 UNL     1      51.393  53.958  20.711  1.00  0.00     0.016 C 
HETATM   16  C22 UNL     1      51.614  54.023  19.211  1.00  0.00    -0.004 C 
HETATM   17  C25 UNL     1      50.031  54.262  21.187  1.00  0.00     0.013 C 
HETATM   18  C23 UNL     1      51.689  55.428  18.740  1.00  0.00     0.011 C 
BRANCH  12  19
HETATM   19  C2  UNL     1      51.278  50.317  21.058  1.00  0.00    -0.025 C 
HETATM   20  C1  UNL     1      50.397  49.497  20.539  1.00  0.00     0.008 C 
ENDBRANCH  12  19
BRANCH  14  21
HETATM   21  O5  UNL     1      51.402  52.396  22.481  1.00  0.00    -0.394 OA
ATOM     22  H5  UNL     1      51.862  52.855  23.175  1.00  0.00     0.210 HD
ENDBRANCH  14  21
ENDBRANCH   8  10
ENDBRANCH   7   8
ENDBRANCH   1   7
BRANCH   6  23
HETATM   23  O4  UNL     1      50.777  49.918  15.151  1.00  0.00    -0.392 OA
ATOM     24  H4  UNL     1      51.632  49.834  15.557  1.00  0.00     0.210 HD
ENDBRANCH   6  23
BRANCH   5  25
HETATM   25  O3  UNL     1      49.451  47.833  15.846  1.00  0.00    -0.390 OA
ATOM     26  H3  UNL     1      49.625  47.512  16.723  1.00  0.00     0.210 HD
ENDBRANCH   5  25
BRANCH   4  27
HETATM   27  C13 UNL     1      46.502  48.957  14.807  1.00  0.00     0.112 C 
BRANCH  27  28
HETATM   28  C14 UNL     1      46.141  47.870  15.761  1.00  0.00     0.129 C 
HETATM   29  O2  UNL     1      46.446  46.707  15.647  1.00  0.00    -0.298 OA
BRANCH  28  30
HETATM   30  C15 UNL     1      45.340  48.290  16.935  1.00  0.00     0.078 C 
BRANCH  30  31
HETATM   31  C16 UNL     1      46.094  49.021  17.981  1.00  0.00     0.007 C 
BRANCH  31  32
HETATM   32  C17 UNL     1      46.161  48.260  19.254  1.00  0.00     0.000 C 
BRANCH  32  33
HETATM   33  C18 UNL     1      44.832  47.566  19.507  1.00  0.00    -0.005 C 
HETATM   34  C19 UNL     1      44.613  47.255  20.968  1.00  0.00     0.005 C 
ENDBRANCH  32  33
ENDBRANCH  31  32
ENDBRANCH  30  31
ENDBRANCH  28  30
ENDBRANCH  27  28
ENDBRANCH   4  27
TORSDOF 13
ENDMDL
MODEL 2
REMARK VINA RESULT: -8.021385192      2.458      8.134
REMARK  13 active torsions:
REMARK  status: ('A' for Active; 'I' for Inactive)
REMARK    1  A    between atoms: C2_2  and  C3_3 
REMARK    2  A    between atoms: C6_6  and  C7_7 
REMARK    3  A    between atoms: C7_7  and  C9_9 
REMARK    4  A    between atoms: C9_9  and  C10_10 
REMARK    5  A    between atoms: C12_13  and  C13_14 
REMARK    6  A    between atoms: C13_14  and  C14_15 
REMARK    7  A    between atoms: C14_15  and  C15_17 
REMARK    8  A    between atoms: C15_17  and  C16_18 
REMARK    9  A    between atoms: C16_18  and  C17_19 
REMARK   10  A    between atoms: C17_19  and  C18_20 
REMARK   11  A    between atoms: C20_22  and  O3_23 
REMARK   12  A    between atoms: C21_25  and  O4_26 
REMARK   13  A    between atoms: C26_32  and  O5_33 
ROOT
HETATM    1  C10 UNL     1      51.103  51.826  19.619  1.00  0.00     0.045 C 
HETATM    2  C11 UNL     1      50.674  53.172  20.264  1.00  0.00     0.175 C 
HETATM    3  O1  UNL     1      51.784  53.678  20.902  1.00  0.00    -0.382 OA
HETATM    4  C12 UNL     1      52.602  54.358  19.978  1.00  0.00     0.159 C 
HETATM    5  C20 UNL     1      52.791  53.509  18.751  1.00  0.00     0.176 C 
HETATM    6  C21 UNL     1      52.472  52.054  19.033  1.00  0.00     0.155 C 
ENDROOT
BRANCH   1   7
HETATM    7  C9  UNL     1      50.066  51.522  18.592  1.00  0.00     0.043 C 
BRANCH   7   8
HETATM    8  C7  UNL     1      49.430  50.177  18.670  1.00  0.00    -0.084 C 
HETATM    9  C8  UNL     1      50.027  49.241  19.322  1.00  0.00     0.015 C 
BRANCH   8  10
HETATM   10  C6  UNL     1      48.156  50.104  17.924  1.00  0.00     0.019 C 
HETATM   11  C5  UNL     1      47.310  49.087  18.700  1.00  0.00     0.025 C 
HETATM   12  C3  UNL     1      46.225  48.473  17.890  1.00  0.00    -0.000 C 
HETATM   13  C4  UNL     1      45.097  49.501  17.779  1.00  0.00     0.022 C 
HETATM   14  C26 UNL     1      46.623  47.918  16.570  1.00  0.00     0.134 C 
HETATM   15  C24 UNL     1      47.965  48.410  16.072  1.00  0.00     0.016 C 
HETATM   16  C22 UNL     1      48.123  49.859  16.495  1.00  0.00    -0.004 C 
HETATM   17  C25 UNL     1      49.087  47.507  16.393  1.00  0.00     0.013 C 
HETATM   18  C23 UNL     1      49.053  50.583  15.595  1.00  0.00     0.011 C 
BRANCH  12  19
HETATM   19  C2  UNL     1      45.659  47.349  18.708  1.00  0.00    -0.025 C 
HETATM   20  C1  UNL     1      45.317  47.570  19.953  1.00  0.00     0.008 C 
ENDBRANCH  12  19
BRANCH  14  21
HETATM   21  O5  UNL     1      46.630  46.519  16.532  1.00  0.00    -0.394 OA
ATOM     22  H5  UNL     1      46.751  46.164  15.659  1.00  0.00     0.210 HD
ENDBRANCH  14  21
ENDBRANCH   8  10
ENDBRANCH   7   8
ENDBRANCH   1   7
BRANCH   6  23
HETATM   23  O4  UNL     1      53.470  51.553  19.901  1.00  0.00    -0.392 OA
ATOM     24  H4  UNL     1      53.274  50.657  20.149  1.00  0.00     0.210 HD
ENDBRANCH   6  23
BRANCH   5  25
HETATM   25  O3  UNL     1      54.138  53.529  18.405  1.00  0.00    -0.390 OA
ATOM     26  H3  UNL     1      54.217  53.868  17.522  1.00  0.00     0.210 HD
ENDBRANCH   5  25
BRANCH   4  27
HETATM   27  C13 UNL     1      51.958  55.675  19.701  1.00  0.00     0.112 C 
BRANCH  27  28
HETATM   28  C14 UNL     1      52.641  56.854  20.304  1.00  0.00     0.129 C 
HETATM   29  O2  UNL     1      53.828  57.075  20.261  1.00  0.00    -0.298 OA
BRANCH  28  30
HETATM   30  C15 UNL     1      51.758  57.815  21.007  1.00  0.00     0.078 C 
BRANCH  30  31
HETATM   31  C16 UNL     1      50.626  57.205  21.743  1.00  0.00     0.007 C 
BRANCH  31  32
HETATM   32  C17 UNL     1      49.434  58.090  21.764  1.00  0.00     0.000 C 
BRANCH  32  33
HETATM   33  C18 UNL     1      48.468  57.675  20.665  1.00  0.00    -0.005 C 
HETATM   34  C19 UNL     1      47.975  58.851  19.857  1.00  0.00     0.005 C 
ENDBRANCH  32  33
ENDBRANCH  31  32
ENDBRANCH  30  31
ENDBRANCH  28  30
ENDBRANCH  27  28
ENDBRANCH   4  27
TORSDOF 13
ENDMDL
MODEL 3
REMARK VINA RESULT: -7.944278327      2.034      3.576
REMARK  13 active torsions:
REMARK  status: ('A' for Active; 'I' for Inactive)
REMARK    1  A    between atoms: C2_2  and  C3_3 
REMARK    2  A    between atoms: C6_6  and  C7_7 
REMARK    3  A    between atoms: C7_7  and  C9_9 
REMARK    4  A    between atoms: C9_9  and  C10_10 
REMARK    5  A    between atoms: C12_13  and  C13_14 
REMARK    6  A    between atoms: C13_14  and  C14_15 
REMARK    7  A    between atoms: C14_15  and  C15_17 
REMARK    8  A    between atoms: C15_17  and  C16_18 
REMARK    9  A    between atoms: C16_18  and  C17_19 
REMARK   10  A    between atoms: C17_19  and  C18_20 
REMARK   11  A    between atoms: C20_22  and  O3_23 
REMARK   12  A    between atoms: C21_25  and  O4_26 
REMARK   13  A    between atoms: C26_32  and  O5_33 
ROOT
HETATM    1  C10 UNL     1      51.005  51.509  17.563  1.00  0.00     0.045 C 
HETATM    2  C11 UNL     1      50.387  51.171  16.179  1.00  0.00     0.175 C 
HETATM    3  O1  UNL     1      50.139  49.818  16.174  1.00  0.00    -0.382 OA
HETATM    4  C12 UNL     1      48.911  49.550  16.810  1.00  0.00     0.159 C 
HETATM    5  C20 UNL     1      48.844  50.299  18.113  1.00  0.00     0.176 C 
HETATM    6  C21 UNL     1      50.225  50.717  18.579  1.00  0.00     0.155 C 
ENDROOT
BRANCH   1   7
HETATM    7  C9  UNL     1      50.854  52.984  17.724  1.00  0.00     0.043 C 
BRANCH   7   8
HETATM    8  C7  UNL     1      51.880  53.668  18.559  1.00  0.00    -0.084 C 
HETATM    9  C8  UNL     1      53.055  53.150  18.654  1.00  0.00     0.015 C 
BRANCH   8  10
HETATM   10  C6  UNL     1      51.362  54.888  19.214  1.00  0.00     0.019 C 
HETATM   11  C5  UNL     1      52.615  55.632  19.694  1.00  0.00     0.025 C 
HETATM   12  C3  UNL     1      52.351  56.592  20.797  1.00  0.00    -0.000 C 
HETATM   13  C4  UNL     1      51.708  57.836  20.179  1.00  0.00     0.022 C 
HETATM   14  C26 UNL     1      51.582  56.069  21.956  1.00  0.00     0.134 C 
HETATM   15  C24 UNL     1      50.842  54.779  21.674  1.00  0.00     0.016 C 
HETATM   16  C22 UNL     1      50.342  54.826  20.242  1.00  0.00    -0.004 C 
HETATM   17  C25 UNL     1      51.584  53.567  22.071  1.00  0.00     0.013 C 
HETATM   18  C23 UNL     1      49.155  53.956  20.059  1.00  0.00     0.011 C 
BRANCH  12  19
HETATM   19  C2  UNL     1      53.690  57.047  21.303  1.00  0.00    -0.025 C 
HETATM   20  C1  UNL     1      54.109  58.255  21.014  1.00  0.00     0.008 C 
ENDBRANCH  12  19
BRANCH  14  21
HETATM   21  O5  UNL     1      52.361  55.883  23.104  1.00  0.00    -0.394 OA
ATOM     22  H5  UNL     1      52.113  55.118  23.611  1.00  0.00     0.210 HD
ENDBRANCH  14  21
ENDBRANCH   8  10
ENDBRANCH   7   8
ENDBRANCH   1   7
BRANCH   6  23
HETATM   23  O4  UNL     1      50.932  49.547  18.942  1.00  0.00    -0.392 OA
ATOM     24  H4  UNL     1      51.259  49.619  19.831  1.00  0.00     0.210 HD
ENDBRANCH   6  23
BRANCH   5  25
HETATM   25  O3  UNL     1      48.373  49.433  19.094  1.00  0.00    -0.390 OA
ATOM     26  H3  UNL     1      47.546  49.069  18.801  1.00  0.00     0.210 HD
ENDBRANCH   5  25
BRANCH   4  27
HETATM   27  C13 UNL     1      47.827  49.918  15.853  1.00  0.00     0.112 C 
BRANCH  27  28
HETATM   28  C14 UNL     1      46.896  48.811  15.494  1.00  0.00     0.129 C 
HETATM   29  O2  UNL     1      47.055  48.027  14.589  1.00  0.00    -0.298 OA
BRANCH  28  30
HETATM   30  C15 UNL     1      45.686  48.693  16.341  1.00  0.00     0.078 C 
BRANCH  30  31
HETATM   31  C16 UNL     1      45.824  47.798  17.514  1.00  0.00     0.007 C 
BRANCH  31  32
HETATM   32  C17 UNL     1      44.952  48.217  18.640  1.00  0.00     0.000 C 
BRANCH  32  33
HETATM   33  C18 UNL     1      45.481  47.634  19.942  1.00  0.00    -0.005 C 
HETATM   34  C19 UNL     1      44.375  47.248  20.893  1.00  0.00     0.005 C 
ENDBRANCH  32  33
ENDBRANCH  31  32
ENDBRANCH  30  31
ENDBRANCH  28  30
ENDBRANCH  27  28
ENDBRANCH   4  27
TORSDOF 13
ENDMDL
MODEL 4
REMARK VINA RESULT: -7.916743754      5.179      9.139
REMARK  13 active torsions:
REMARK  status: ('A' for Active; 'I' for Inactive)
REMARK    1  A    between atoms: C2_2  and  C3_3 
REMARK    2  A    between atoms: C6_6  and  C7_7 
REMARK    3  A    between atoms: C7_7  and  C9_9 
REMARK    4  A    between atoms: C9_9  and  C10_10 
REMARK    5  A    between atoms: C12_13  and  C13_14 
REMARK    6  A    between atoms: C13_14  and  C14_15 
REMARK    7  A    between atoms: C14_15  and  C15_17 
REMARK    8  A    between atoms: C15_17  and  C16_18 
REMARK    9  A    between atoms: C16_18  and  C17_19 
REMARK   10  A    between atoms: C17_19  and  C18_20 
REMARK   11  A    between atoms: C20_22  and  O3_23 
REMARK   12  A    between atoms: C21_25  and  O4_26 
REMARK   13  A    between atoms: C26_32  and  O5_33 
ROOT
HETATM    1  C10 UNL     1      49.847  57.669  20.322  1.00  0.00     0.045 C 
HETATM    2  C11 UNL     1      49.543  56.173  20.037  1.00  0.00     0.175 C 
HETATM    3  O1  UNL     1      50.750  55.566  19.775  1.00  0.00    -0.382 OA
HETATM    4  C12 UNL     1      51.390  55.225  20.982  1.00  0.00     0.159 C 
HETATM    5  C20 UNL     1      51.355  56.401  21.920  1.00  0.00     0.176 C 
HETATM    6  C21 UNL     1      51.089  57.693  21.174  1.00  0.00     0.155 C 
ENDROOT
BRANCH   1   7
HETATM    7  C9  UNL     1      48.642  58.200  21.023  1.00  0.00     0.043 C 
BRANCH   7   8
HETATM    8  C7  UNL     1      47.530  58.681  20.157  1.00  0.00    -0.084 C 
HETATM    9  C8  UNL     1      46.317  58.393  20.481  1.00  0.00     0.015 C 
BRANCH   8  10
HETATM   10  C6  UNL     1      48.009  59.431  18.977  1.00  0.00     0.019 C 
HETATM   11  C5  UNL     1      47.564  60.877  19.230  1.00  0.00     0.025 C 
HETATM   12  C3  UNL     1      47.473  61.697  17.994  1.00  0.00    -0.000 C 
HETATM   13  C4  UNL     1      48.899  62.082  17.592  1.00  0.00     0.022 C 
HETATM   14  C26 UNL     1      46.704  61.107  16.867  1.00  0.00     0.134 C 
HETATM   15  C24 UNL     1      46.473  59.616  16.991  1.00  0.00     0.016 C 
HETATM   16  C22 UNL     1      47.706  58.999  17.626  1.00  0.00    -0.004 C 
HETATM   17  C25 UNL     1      45.175  59.262  17.598  1.00  0.00     0.013 C 
HETATM   18  C23 UNL     1      47.843  57.570  17.254  1.00  0.00     0.011 C 
BRANCH  12  19
HETATM   19  C2  UNL     1      46.806  62.986  18.378  1.00  0.00    -0.025 C 
HETATM   20  C1  UNL     1      46.273  63.102  19.569  1.00  0.00     0.008 C 
ENDBRANCH  12  19
BRANCH  14  21
HETATM   21  O5  UNL     1      45.465  61.724  16.654  1.00  0.00    -0.394 OA
ATOM     22  H5  UNL     1      44.811  61.143  16.284  1.00  0.00     0.210 HD
ENDBRANCH  14  21
ENDBRANCH   8  10
ENDBRANCH   7   8
ENDBRANCH   1   7
BRANCH   6  23
HETATM   23  O4  UNL     1      52.226  57.977  20.381  1.00  0.00    -0.392 OA
ATOM     24  H4  UNL     1      52.700  57.178  20.183  1.00  0.00     0.210 HD
ENDBRANCH   6  23
BRANCH   5  25
HETATM   25  O3  UNL     1      52.619  56.555  22.481  1.00  0.00    -0.390 OA
ATOM     26  H3  UNL     1      52.923  57.436  22.298  1.00  0.00     0.210 HD
ENDBRANCH   5  25
BRANCH   4  27
HETATM   27  C13 UNL     1      50.710  54.012  21.518  1.00  0.00     0.112 C 
BRANCH  27  28
HETATM   28  C14 UNL     1      51.367  52.717  21.184  1.00  0.00     0.129 C 
HETATM   29  O2  UNL     1      52.279  52.215  21.796  1.00  0.00    -0.298 OA
BRANCH  28  30
HETATM   30  C15 UNL     1      50.828  52.014  19.996  1.00  0.00     0.078 C 
BRANCH  30  31
HETATM   31  C16 UNL     1      51.647  52.139  18.766  1.00  0.00     0.007 C 
BRANCH  31  32
HETATM   32  C17 UNL     1      50.867  52.695  17.632  1.00  0.00     0.000 C 
BRANCH  32  33
HETATM   33  C18 UNL     1      49.398  52.789  18.016  1.00  0.00    -0.005 C 
HETATM   34  C19 UNL     1      48.657  53.829  17.212  1.00  0.00     0.005 C 
ENDBRANCH  32  33
ENDBRANCH  31  32
ENDBRANCH  30  31
ENDBRANCH  28  30
ENDBRANCH  27  28
ENDBRANCH   4  27
TORSDOF 13
ENDMDL
MODEL 5
REMARK VINA RESULT: -7.884392050      2.257      4.303
REMARK  13 active torsions:
REMARK  status: ('A' for Active; 'I' for Inactive)
REMARK    1  A    between atoms: C2_2  and  C3_3 
REMARK    2  A    between atoms: C6_6  and  C7_7 
REMARK    3  A    between atoms: C7_7  and  C9_9 
REMARK    4  A    between atoms: C9_9  and  C10_10 
REMARK    5  A    between atoms: C12_13  and  C13_14 
REMARK    6  A    between atoms: C13_14  and  C14_15 
REMARK    7  A    between atoms: C14_15  and  C15_17 
REMARK    8  A    between atoms: C15_17  and  C16_18 
REMARK    9  A    between atoms: C16_18  and  C17_19 
REMARK   10  A    between atoms: C17_19  and  C18_20 
REMARK   11  A    between atoms: C20_22  and  O3_23 
REMARK   12  A    between atoms: C21_25  and  O4_26 
REMARK   13  A    between atoms: C26_32  and  O5_33 
ROOT
HETATM    1  C10 UNL     1      51.047  51.491  17.805  1.00  0.00     0.045 C 
HETATM    2  C11 UNL     1      49.966  50.985  16.812  1.00  0.00     0.175 C 
HETATM    3  O1  UNL     1      49.869  49.624  16.990  1.00  0.00    -0.382 OA
HETATM    4  C12 UNL     1      49.027  49.339  18.082  1.00  0.00     0.159 C 
HETATM    5  C20 UNL     1      49.411  50.202  19.253  1.00  0.00     0.176 C 
HETATM    6  C21 UNL     1      50.815  50.751  19.096  1.00  0.00     0.155 C 
ENDROOT
BRANCH   1   7
HETATM    7  C9  UNL     1      50.830  52.962  17.923  1.00  0.00     0.043 C 
BRANCH   7   8
HETATM    8  C7  UNL     1      51.892  53.735  18.625  1.00  0.00    -0.084 C 
HETATM    9  C8  UNL     1      53.091  53.264  18.655  1.00  0.00     0.015 C 
BRANCH   8  10
HETATM   10  C6  UNL     1      51.382  54.978  19.240  1.00  0.00     0.019 C 
HETATM   11  C5  UNL     1      52.631  55.681  19.787  1.00  0.00     0.025 C 
HETATM   12  C3  UNL     1      52.339  56.660  20.866  1.00  0.00    -0.000 C 
HETATM   13  C4  UNL     1      51.777  57.920  20.204  1.00  0.00     0.022 C 
HETATM   14  C26 UNL     1      51.487  56.175  21.983  1.00  0.00     0.134 C 
HETATM   15  C24 UNL     1      50.719  54.909  21.668  1.00  0.00     0.016 C 
HETATM   16  C22 UNL     1      50.303  54.961  20.209  1.00  0.00    -0.004 C 
HETATM   17  C25 UNL     1      51.393  53.675  22.115  1.00  0.00     0.013 C 
HETATM   18  C23 UNL     1      49.098  54.132  19.964  1.00  0.00     0.011 C 
BRANCH  12  19
HETATM   19  C2  UNL     1      53.662  57.072  21.445  1.00  0.00    -0.025 C 
HETATM   20  C1  UNL     1      54.215  58.192  21.049  1.00  0.00     0.008 C 
ENDBRANCH  12  19
BRANCH  14  21
HETATM   21  O5  UNL     1      52.192  55.971  23.175  1.00  0.00    -0.394 OA
ATOM     22  H5  UNL     1      52.484  55.075  23.294  1.00  0.00     0.210 HD
ENDBRANCH  14  21
ENDBRANCH   8  10
ENDBRANCH   7   8
ENDBRANCH   1   7
BRANCH   6  23
HETATM   23  O4  UNL     1      51.719  49.668  19.213  1.00  0.00    -0.392 OA
ATOM     24  H4  UNL     1      52.265  49.773  19.983  1.00  0.00     0.210 HD
ENDBRANCH   6  23
BRANCH   5  25
HETATM   25  O3  UNL     1      49.454  49.404  20.392  1.00  0.00    -0.390 OA
ATOM     26  H3  UNL     1      49.802  49.922  21.108  1.00  0.00     0.210 HD
ENDBRANCH   5  25
BRANCH   4  27
HETATM   27  C13 UNL     1      47.622  49.544  17.624  1.00  0.00     0.112 C 
BRANCH  27  28
HETATM   28  C14 UNL     1      46.604  48.693  18.302  1.00  0.00     0.129 C 
HETATM   29  O2  UNL     1      46.603  48.399  19.473  1.00  0.00    -0.298 OA
BRANCH  28  30
HETATM   30  C15 UNL     1      45.516  48.184  17.434  1.00  0.00     0.078 C 
BRANCH  30  31
HETATM   31  C16 UNL     1      45.962  47.565  16.163  1.00  0.00     0.007 C 
BRANCH  31  32
HETATM   32  C17 UNL     1      45.390  48.252  14.978  1.00  0.00     0.000 C 
BRANCH  32  33
HETATM   33  C18 UNL     1      46.477  48.466  13.936  1.00  0.00    -0.005 C 
HETATM   34  C19 UNL     1      47.125  49.825  14.048  1.00  0.00     0.005 C 
ENDBRANCH  32  33
ENDBRANCH  31  32
ENDBRANCH  30  31
ENDBRANCH  28  30
ENDBRANCH  27  28
ENDBRANCH   4  27
TORSDOF 13
ENDMDL
