MODEL 1
REMARK VINA RESULT: -6.661169315      0.000      0.000
REMARK  3 active torsions:
REMARK  status: ('A' for Active; 'I' for Inactive)
REMARK    1  A    between atoms: C9_9  and  O1_10 
REMARK    2  A    between atoms: C15_17  and  O2_18 
REMARK    3  A    between atoms: C16_20  and  O3_21 
ROOT
HETATM    1  C1  UNL     1      37.902  18.982  25.687  1.00  0.00     0.038 C 
HETATM    2  C2  UNL     1      38.023  17.696  26.452  1.00  0.00     0.001 C 
HETATM    3  C3  UNL     1      39.203  17.344  26.995  1.00  0.00     0.045 C 
HETATM    4  C4  UNL     1      40.288  18.323  26.759  1.00  0.00     0.064 C 
HETATM    5  C5  UNL     1      41.499  18.247  27.570  1.00  0.00     0.006 C 
HETATM    6  C6  UNL     1      41.483  18.130  29.017  1.00  0.00     0.000 C 
HETATM    7  C7  UNL     1      40.302  18.598  29.805  1.00  0.00     0.002 C 
HETATM    8  C8  UNL     1      40.330  17.883  31.125  1.00  0.00     0.032 C 
HETATM    9  C9  UNL     1      39.082  17.261  31.623  1.00  0.00     0.121 C 
HETATM   10  C10 UNL     1      39.343  15.837  32.158  1.00  0.00     0.059 C 
HETATM   11  C11 UNL     1      38.281  14.875  31.820  1.00  0.00    -0.022 C 
HETATM   12  C12 UNL     1      37.941  14.305  30.704  1.00  0.00    -0.085 C 
HETATM   13  C13 UNL     1      36.748  13.352  30.822  1.00  0.00     0.043 C 
HETATM   14  C14 UNL     1      38.457  14.397  29.336  1.00  0.00     0.070 C 
HETATM   15  C15 UNL     1      39.909  14.463  29.096  1.00  0.00     0.177 C 
HETATM   16  C16 UNL     1      40.106  15.073  27.680  1.00  0.00     0.291 C 
HETATM   17  O4  UNL     1      39.295  16.198  27.672  1.00  0.00    -0.323 OA
ENDROOT
BRANCH  16  18
HETATM   18  O3  UNL     1      39.693  14.085  26.786  1.00  0.00    -0.368 OA
ATOM     19  H3  UNL     1      40.245  13.333  26.965  1.00  0.00     0.212 HD
ENDBRANCH  16  18
BRANCH  15  20
HETATM   20  O2  UNL     1      40.431  13.158  28.952  1.00  0.00    -0.390 OA
ATOM     21  H2  UNL     1      39.942  12.686  28.289  1.00  0.00     0.210 HD
ENDBRANCH  15  20
BRANCH   9  22
HETATM   22  O1  UNL     1      37.974  17.243  30.857  1.00  0.00    -0.395 OA
ATOM     23  H1  UNL     1      37.560  18.055  30.588  1.00  0.00     0.210 HD
ENDBRANCH   9  22
TORSDOF 3
ENDMDL
MODEL 2
REMARK VINA RESULT: -6.078860096      5.035      7.130
REMARK  3 active torsions:
REMARK  status: ('A' for Active; 'I' for Inactive)
REMARK    1  A    between atoms: C9_9  and  O1_10 
REMARK    2  A    between atoms: C15_17  and  O2_18 
REMARK    3  A    between atoms: C16_20  and  O3_21 
ROOT
HETATM    1  C1  UNL     1      40.029  15.755  27.348  1.00  0.00     0.038 C 
HETATM    2  C2  UNL     1      38.819  15.102  26.746  1.00  0.00     0.001 C 
HETATM    3  C3  UNL     1      38.550  15.258  25.436  1.00  0.00     0.045 C 
HETATM    4  C4  UNL     1      39.535  16.097  24.718  1.00  0.00     0.064 C 
HETATM    5  C5  UNL     1      39.566  16.061  23.259  1.00  0.00     0.006 C 
HETATM    6  C6  UNL     1      39.575  14.829  22.493  1.00  0.00     0.000 C 
HETATM    7  C7  UNL     1      40.076  13.558  23.100  1.00  0.00     0.002 C 
HETATM    8  C8  UNL     1      39.480  12.421  22.322  1.00  0.00     0.032 C 
HETATM    9  C9  UNL     1      38.869  11.295  23.064  1.00  0.00     0.121 C 
HETATM   10  C10 UNL     1      37.505  10.902  22.457  1.00  0.00     0.059 C 
HETATM   11  C11 UNL     1      36.486  10.560  23.463  1.00  0.00    -0.022 C 
HETATM   12  C12 UNL     1      35.811  11.284  24.304  1.00  0.00    -0.085 C 
HETATM   13  C13 UNL     1      34.838  10.487  25.179  1.00  0.00     0.043 C 
HETATM   14  C14 UNL     1      35.798  12.717  24.606  1.00  0.00     0.070 C 
HETATM   15  C15 UNL     1      35.885  13.702  23.514  1.00  0.00     0.177 C 
HETATM   16  C16 UNL     1      36.374  15.035  24.148  1.00  0.00     0.291 C 
HETATM   17  O4  UNL     1      37.470  14.672  24.916  1.00  0.00    -0.323 OA
ENDROOT
BRANCH  16  18
HETATM   18  O3  UNL     1      35.301  15.507  24.902  1.00  0.00    -0.368 OA
ATOM     19  H3  UNL     1      34.549  15.481  24.321  1.00  0.00     0.212 HD
ENDBRANCH  16  18
BRANCH  15  20
HETATM   20  O2  UNL     1      34.588  14.028  23.058  1.00  0.00    -0.390 OA
ATOM     21  H2  UNL     1      34.369  13.495  22.304  1.00  0.00     0.210 HD
ENDBRANCH  15  20
BRANCH   9  22
HETATM   22  O1  UNL     1      38.751  11.343  24.405  1.00  0.00    -0.395 OA
ATOM     23  H1  UNL     1      38.527  10.562  24.898  1.00  0.00     0.210 HD
ENDBRANCH   9  22
TORSDOF 3
ENDMDL
MODEL 3
REMARK VINA RESULT: -5.721795045      7.306      9.977
REMARK  3 active torsions:
REMARK  status: ('A' for Active; 'I' for Inactive)
REMARK    1  A    between atoms: C9_9  and  O1_10 
REMARK    2  A    between atoms: C15_17  and  O2_18 
REMARK    3  A    between atoms: C16_20  and  O3_21 
ROOT
HETATM    1  C1  UNL     1      41.043  24.811  22.972  1.00  0.00     0.038 C 
HETATM    2  C2  UNL     1      42.425  24.225  22.958  1.00  0.00     0.001 C 
HETATM    3  C3  UNL     1      43.130  24.134  24.102  1.00  0.00     0.045 C 
HETATM    4  C4  UNL     1      42.414  24.649  25.289  1.00  0.00     0.064 C 
HETATM    5  C5  UNL     1      42.904  24.297  26.619  1.00  0.00     0.006 C 
HETATM    6  C6  UNL     1      43.240  22.941  27.011  1.00  0.00     0.000 C 
HETATM    7  C7  UNL     1      42.634  21.771  26.304  1.00  0.00     0.002 C 
HETATM    8  C8  UNL     1      43.535  20.592  26.531  1.00  0.00     0.032 C 
HETATM    9  C9  UNL     1      43.911  19.751  25.372  1.00  0.00     0.121 C 
HETATM   10  C10 UNL     1      45.422  19.437  25.378  1.00  0.00     0.059 C 
HETATM   11  C11 UNL     1      46.037  19.469  24.041  1.00  0.00    -0.022 C 
HETATM   12  C12 UNL     1      46.326  20.445  23.235  1.00  0.00    -0.085 C 
HETATM   13  C13 UNL     1      46.974  20.003  21.918  1.00  0.00     0.043 C 
HETATM   14  C14 UNL     1      46.146  21.896  23.315  1.00  0.00     0.070 C 
HETATM   15  C15 UNL     1      46.391  22.602  24.585  1.00  0.00     0.177 C 
HETATM   16  C16 UNL     1      45.630  23.955  24.503  1.00  0.00     0.291 C 
HETATM   17  O4  UNL     1      44.357  23.611  24.073  1.00  0.00    -0.323 OA
ENDROOT
BRANCH  16  18
HETATM   18  O3  UNL     1      46.337  24.727  23.582  1.00  0.00    -0.368 OA
ATOM     19  H3  UNL     1      46.923  25.267  24.099  1.00  0.00     0.212 HD
ENDBRANCH  16  18
BRANCH  15  20
HETATM   20  O2  UNL     1      47.743  23.005  24.656  1.00  0.00    -0.390 OA
ATOM     21  H2  UNL     1      47.978  23.487  23.872  1.00  0.00     0.210 HD
ENDBRANCH  15  20
BRANCH   9  22
HETATM   22  O1  UNL     1      43.543  20.102  24.124  1.00  0.00    -0.395 OA
ATOM     23  H1  UNL     1      43.079  19.487  23.568  1.00  0.00     0.210 HD
ENDBRANCH   9  22
TORSDOF 3
ENDMDL
MODEL 4
REMARK VINA RESULT: -5.409216204      7.828     10.927
REMARK  3 active torsions:
REMARK  status: ('A' for Active; 'I' for Inactive)
REMARK    1  A    between atoms: C9_9  and  O1_10 
REMARK    2  A    between atoms: C15_17  and  O2_18 
REMARK    3  A    between atoms: C16_20  and  O3_21 
ROOT
HETATM    1  C1  UNL     1      40.153  22.893  23.501  1.00  0.00     0.038 C 
HETATM    2  C2  UNL     1      41.360  23.697  23.891  1.00  0.00     0.001 C 
HETATM    3  C3  UNL     1      42.013  23.421  25.036  1.00  0.00     0.045 C 
HETATM    4  C4  UNL     1      41.427  22.299  25.803  1.00  0.00     0.064 C 
HETATM    5  C5  UNL     1      42.220  21.674  26.859  1.00  0.00     0.006 C 
HETATM    6  C6  UNL     1      43.597  21.255  26.678  1.00  0.00     0.000 C 
HETATM    7  C7  UNL     1      44.127  20.945  25.315  1.00  0.00     0.002 C 
HETATM    8  C8  UNL     1      45.621  21.080  25.370  1.00  0.00     0.032 C 
HETATM    9  C9  UNL     1      46.306  21.848  24.306  1.00  0.00     0.121 C 
HETATM   10  C10 UNL     1      47.356  22.810  24.900  1.00  0.00     0.059 C 
HETATM   11  C11 UNL     1      47.405  24.119  24.229  1.00  0.00    -0.022 C 
HETATM   12  C12 UNL     1      46.595  25.133  24.231  1.00  0.00    -0.085 C 
HETATM   13  C13 UNL     1      47.060  26.312  23.368  1.00  0.00     0.043 C 
HETATM   14  C14 UNL     1      45.306  25.383  24.880  1.00  0.00     0.070 C 
HETATM   15  C15 UNL     1      45.078  24.939  26.266  1.00  0.00     0.177 C 
HETATM   16  C16 UNL     1      43.539  24.858  26.467  1.00  0.00     0.291 C 
HETATM   17  O4  UNL     1      43.083  24.144  25.368  1.00  0.00    -0.323 OA
ENDROOT
BRANCH  16  18
HETATM   18  O3  UNL     1      43.095  26.180  26.492  1.00  0.00    -0.368 OA
ATOM     19  H3  UNL     1      43.790  26.690  26.093  1.00  0.00     0.212 HD
ENDBRANCH  16  18
BRANCH  15  20
HETATM   20  O2  UNL     1      45.460  25.958  27.165  1.00  0.00    -0.390 OA
ATOM     21  H2  UNL     1      44.696  26.287  27.623  1.00  0.00     0.210 HD
ENDBRANCH  15  20
BRANCH   9  22
HETATM   22  O1  UNL     1      45.593  22.505  23.370  1.00  0.00    -0.395 OA
ATOM     23  H1  UNL     1      46.021  23.110  22.776  1.00  0.00     0.210 HD
ENDBRANCH   9  22
TORSDOF 3
ENDMDL
MODEL 5
REMARK VINA RESULT: -5.383738019      1.615      2.429
REMARK  3 active torsions:
REMARK  status: ('A' for Active; 'I' for Inactive)
REMARK    1  A    between atoms: C9_9  and  O1_10 
REMARK    2  A    between atoms: C15_17  and  O2_18 
REMARK    3  A    between atoms: C16_20  and  O3_21 
ROOT
HETATM    1  C1  UNL     1      36.376  19.606  25.023  1.00  0.00     0.038 C 
HETATM    2  C2  UNL     1      36.826  18.290  25.590  1.00  0.00     0.001 C 
HETATM    3  C3  UNL     1      38.090  17.870  25.397  1.00  0.00     0.045 C 
HETATM    4  C4  UNL     1      38.920  18.809  24.610  1.00  0.00     0.064 C 
HETATM    5  C5  UNL     1      40.372  18.654  24.626  1.00  0.00     0.006 C 
HETATM    6  C6  UNL     1      41.143  18.489  25.844  1.00  0.00     0.000 C 
HETATM    7  C7  UNL     1      40.613  18.980  27.153  1.00  0.00     0.002 C 
HETATM    8  C8  UNL     1      41.318  18.219  28.238  1.00  0.00     0.032 C 
HETATM    9  C9  UNL     1      40.514  17.635  29.335  1.00  0.00     0.121 C 
HETATM   10  C10 UNL     1      40.947  16.184  29.632  1.00  0.00     0.059 C 
HETATM   11  C11 UNL     1      39.823  15.279  29.926  1.00  0.00    -0.022 C 
HETATM   12  C12 UNL     1      38.898  14.763  29.175  1.00  0.00    -0.085 C 
HETATM   13  C13 UNL     1      37.913  13.858  29.923  1.00  0.00     0.043 C 
HETATM   14  C14 UNL     1      38.586  14.879  27.748  1.00  0.00     0.070 C 
HETATM   15  C15 UNL     1      39.672  14.891  26.753  1.00  0.00     0.177 C 
HETATM   16  C16 UNL     1      39.096  15.540  25.463  1.00  0.00     0.291 C 
HETATM   17  O4  UNL     1      38.474  16.699  25.907  1.00  0.00    -0.323 OA
ENDROOT
BRANCH  16  18
HETATM   18  O3  UNL     1      38.208  14.602  24.937  1.00  0.00    -0.368 OA
ATOM     19  H3  UNL     1      38.729  13.824  24.772  1.00  0.00     0.212 HD
ENDBRANCH  16  18
BRANCH  15  20
HETATM   20  O2  UNL     1      39.959  13.571  26.340  1.00  0.00    -0.390 OA
ATOM     21  H2  UNL     1      39.205  13.200  25.899  1.00  0.00     0.210 HD
ENDBRANCH  15  20
BRANCH   9  22
HETATM   22  O1  UNL     1      39.168  17.689  29.300  1.00  0.00    -0.395 OA
ATOM     23  H1  UNL     1      38.726  18.444  28.930  1.00  0.00     0.210 HD
ENDBRANCH   9  22
TORSDOF 3
ENDMDL
