MODEL 1
REMARK VINA RESULT: -6.368203981      0.000      0.000
REMARK  2 active torsions:
REMARK  status: ('A' for Active; 'I' for Inactive)
REMARK    1  A    between atoms: C15_16  and  O2_17 
REMARK    2  A    between atoms: C16_19  and  O3_20 
ROOT
HETATM    1  C1  UNL     1      44.077  18.050  22.117  1.00  0.00     0.046 C 
HETATM    2  C2  UNL     1      44.775  19.066  22.543  1.00  0.00     0.041 C 
HETATM    3  C3  UNL     1      44.611  20.414  21.924  1.00  0.00     0.064 C 
HETATM    4  C4  UNL     1      44.593  21.437  23.007  1.00  0.00     0.019 C 
HETATM    5  C5  UNL     1      44.577  20.874  24.396  1.00  0.00     0.086 C 
HETATM    6  C6  UNL     1      44.487  22.031  25.386  1.00  0.00     0.071 C 
HETATM    7  C7  UNL     1      43.657  21.477  26.559  1.00  0.00     0.047 C 
HETATM    8  O1  UNL     1      43.688  22.946  24.761  1.00  0.00    -0.369 OA
HETATM    9  C8  UNL     1      43.639  24.206  25.185  1.00  0.00     0.055 C 
HETATM   10  C9  UNL     1      42.219  24.544  25.641  1.00  0.00     0.045 C 
HETATM   11  C10 UNL     1      43.890  25.117  23.971  1.00  0.00     0.045 C 
HETATM   12  C11 UNL     1      44.585  24.629  26.249  1.00  0.00     0.038 C 
HETATM   13  C12 UNL     1      45.919  24.023  25.986  1.00  0.00     0.010 C 
HETATM   14  C13 UNL     1      45.780  22.496  25.900  1.00  0.00     0.023 C 
HETATM   15  C14 UNL     1      47.006  22.050  25.158  1.00  0.00     0.045 C 
HETATM   16  C15 UNL     1      47.044  20.639  24.753  1.00  0.00     0.181 C 
HETATM   17  C16 UNL     1      45.718  19.959  24.639  1.00  0.00     0.200 C 
HETATM   18  O4  UNL     1      45.707  19.002  23.577  1.00  0.00    -0.316 OA
ENDROOT
BRANCH  17  19
HETATM   19  O3  UNL     1      45.544  19.187  25.798  1.00  0.00    -0.363 OA
ATOM     20  H3  UNL     1      44.686  19.308  26.186  1.00  0.00     0.213 HD
ENDBRANCH  17  19
BRANCH  16  21
HETATM   21  O2  UNL     1      47.651  20.564  23.476  1.00  0.00    -0.390 OA
ATOM     22  H2  UNL     1      48.452  21.074  23.499  1.00  0.00     0.210 HD
ENDBRANCH  16  21
TORSDOF 2
ENDMDL
MODEL 2
REMARK VINA RESULT: -5.986697186      6.882      8.942
REMARK  2 active torsions:
REMARK  status: ('A' for Active; 'I' for Inactive)
REMARK    1  A    between atoms: C15_16  and  O2_17 
REMARK    2  A    between atoms: C16_19  and  O3_20 
ROOT
HETATM    1  C1  UNL     1      41.336  17.298  30.760  1.00  0.00     0.046 C 
HETATM    2  C2  UNL     1      40.451  16.789  29.949  1.00  0.00     0.041 C 
HETATM    3  C3  UNL     1      39.091  17.391  29.832  1.00  0.00     0.064 C 
HETATM    4  C4  UNL     1      38.708  17.427  28.393  1.00  0.00     0.019 C 
HETATM    5  C5  UNL     1      39.798  17.022  27.447  1.00  0.00     0.086 C 
HETATM    6  C6  UNL     1      39.283  17.176  26.020  1.00  0.00     0.071 C 
HETATM    7  C7  UNL     1      40.520  17.589  25.201  1.00  0.00     0.047 C 
HETATM    8  O1  UNL     1      38.480  18.280  26.071  1.00  0.00    -0.369 OA
HETATM    9  C8  UNL     1      37.617  18.537  25.092  1.00  0.00     0.055 C 
HETATM   10  C9  UNL     1      37.967  19.872  24.430  1.00  0.00     0.045 C 
HETATM   11  C10 UNL     1      36.238  18.766  25.734  1.00  0.00     0.045 C 
HETATM   12  C11 UNL     1      37.437  17.520  24.026  1.00  0.00     0.038 C 
HETATM   13  C12 UNL     1      37.424  16.164  24.640  1.00  0.00     0.010 C 
HETATM   14  C13 UNL     1      38.719  15.953  25.439  1.00  0.00     0.023 C 
HETATM   15  C14 UNL     1      38.395  14.836  26.388  1.00  0.00     0.045 C 
HETATM   16  C15 UNL     1      39.397  14.550  27.423  1.00  0.00     0.181 C 
HETATM   17  C16 UNL     1      40.327  15.671  27.755  1.00  0.00     0.200 C 
HETATM   18  O4  UNL     1      40.673  15.675  29.142  1.00  0.00    -0.316 OA
ENDROOT
BRANCH  17  19
HETATM   19  O3  UNL     1      41.542  15.414  27.100  1.00  0.00    -0.363 OA
ATOM     20  H3  UNL     1      42.294  15.628  27.638  1.00  0.00     0.213 HD
ENDBRANCH  17  19
BRANCH  16  21
HETATM   21  O2  UNL     1      38.714  14.221  28.618  1.00  0.00    -0.390 OA
ATOM     22  H2  UNL     1      39.350  14.192  29.324  1.00  0.00     0.210 HD
ENDBRANCH  16  21
TORSDOF 2
ENDMDL
MODEL 3
REMARK VINA RESULT: -5.956180775      2.490      4.725
REMARK  2 active torsions:
REMARK  status: ('A' for Active; 'I' for Inactive)
REMARK    1  A    between atoms: C15_16  and  O2_17 
REMARK    2  A    between atoms: C16_19  and  O3_20 
ROOT
HETATM    1  C1  UNL     1      41.951  18.543  29.495  1.00  0.00     0.046 C 
HETATM    2  C2  UNL     1      41.875  19.377  28.495  1.00  0.00     0.041 C 
HETATM    3  C3  UNL     1      42.237  20.813  28.673  1.00  0.00     0.064 C 
HETATM    4  C4  UNL     1      43.030  21.255  27.492  1.00  0.00     0.019 C 
HETATM    5  C5  UNL     1      43.395  20.156  26.540  1.00  0.00     0.086 C 
HETATM    6  C6  UNL     1      44.260  20.745  25.429  1.00  0.00     0.071 C 
HETATM    7  C7  UNL     1      45.235  19.615  25.054  1.00  0.00     0.047 C 
HETATM    8  O1  UNL     1      45.011  21.697  26.059  1.00  0.00    -0.369 OA
HETATM    9  C8  UNL     1      45.653  22.626  25.358  1.00  0.00     0.055 C 
HETATM   10  C9  UNL     1      47.160  22.500  25.590  1.00  0.00     0.045 C 
HETATM   11  C10 UNL     1      45.278  23.998  25.945  1.00  0.00     0.045 C 
HETATM   12  C11 UNL     1      45.411  22.700  23.894  1.00  0.00     0.038 C 
HETATM   13  C12 UNL     1      43.961  22.491  23.628  1.00  0.00     0.010 C 
HETATM   14  C13 UNL     1      43.519  21.148  24.229  1.00  0.00     0.023 C 
HETATM   15  C14 UNL     1      42.029  21.269  24.357  1.00  0.00     0.045 C 
HETATM   16  C15 UNL     1      41.350  20.195  25.095  1.00  0.00     0.181 C 
HETATM   17  C16 UNL     1      42.201  19.424  26.051  1.00  0.00     0.200 C 
HETATM   18  O4  UNL     1      41.464  19.028  27.210  1.00  0.00    -0.316 OA
ENDROOT
BRANCH  17  19
HETATM   19  O3  UNL     1      42.538  18.212  25.428  1.00  0.00    -0.363 OA
ATOM     20  H3  UNL     1      41.810  17.842  24.944  1.00  0.00     0.213 HD
ENDBRANCH  17  19
BRANCH  16  21
HETATM   21  O2  UNL     1      40.306  20.774  25.855  1.00  0.00    -0.390 OA
ATOM     22  H2  UNL     1      39.546  20.208  25.792  1.00  0.00     0.210 HD
ENDBRANCH  16  21
TORSDOF 2
ENDMDL
MODEL 4
REMARK VINA RESULT: -5.822427111      9.507     11.371
REMARK  2 active torsions:
REMARK  status: ('A' for Active; 'I' for Inactive)
REMARK    1  A    between atoms: C15_16  and  O2_17 
REMARK    2  A    between atoms: C16_19  and  O3_20 
ROOT
HETATM    1  C1  UNL     1      39.424  14.081  25.091  1.00  0.00     0.046 C 
HETATM    2  C2  UNL     1      39.008  14.709  26.155  1.00  0.00     0.041 C 
HETATM    3  C3  UNL     1      37.555  14.761  26.489  1.00  0.00     0.064 C 
HETATM    4  C4  UNL     1      37.394  14.542  27.954  1.00  0.00     0.019 C 
HETATM    5  C5  UNL     1      38.657  14.175  28.672  1.00  0.00     0.086 C 
HETATM    6  C6  UNL     1      38.324  13.914  30.137  1.00  0.00     0.071 C 
HETATM    7  C7  UNL     1      39.304  12.809  30.570  1.00  0.00     0.047 C 
HETATM    8  O1  UNL     1      37.090  13.330  30.101  1.00  0.00    -0.369 OA
HETATM    9  C8  UNL     1      36.346  13.246  31.200  1.00  0.00     0.055 C 
HETATM   10  C9  UNL     1      36.094  11.777  31.545  1.00  0.00     0.045 C 
HETATM   11  C10 UNL     1      34.957  13.817  30.870  1.00  0.00     0.045 C 
HETATM   12  C11 UNL     1      36.820  13.938  32.426  1.00  0.00     0.038 C 
HETATM   13  C12 UNL     1      37.381  15.265  32.053  1.00  0.00     0.010 C 
HETATM   14  C13 UNL     1      38.500  15.074  31.019  1.00  0.00     0.023 C 
HETATM   15  C14 UNL     1      38.632  16.416  30.359  1.00  0.00     0.045 C 
HETATM   16  C15 UNL     1      39.504  16.477  29.178  1.00  0.00     0.181 C 
HETATM   17  C16 UNL     1      39.727  15.182  28.466  1.00  0.00     0.200 C 
HETATM   18  O4  UNL     1      39.842  15.371  27.054  1.00  0.00    -0.316 OA
ENDROOT
BRANCH  17  19
HETATM   19  O3  UNL     1      40.989  14.705  28.853  1.00  0.00    -0.363 OA
ATOM     20  H3  UNL     1      41.605  14.689  28.131  1.00  0.00     0.213 HD
ENDBRANCH  17  19
BRANCH  16  21
HETATM   21  O2  UNL     1      38.914  17.359  28.241  1.00  0.00    -0.390 OA
ATOM     22  H2  UNL     1      38.712  16.865  27.456  1.00  0.00     0.210 HD
ENDBRANCH  16  21
TORSDOF 2
ENDMDL
MODEL 5
REMARK VINA RESULT: -5.819819523      8.374     10.275
REMARK  2 active torsions:
REMARK  status: ('A' for Active; 'I' for Inactive)
REMARK    1  A    between atoms: C15_16  and  O2_17 
REMARK    2  A    between atoms: C16_19  and  O3_20 
ROOT
HETATM    1  C1  UNL     1      39.432  14.137  23.890  1.00  0.00     0.046 C 
HETATM    2  C2  UNL     1      39.037  14.833  24.919  1.00  0.00     0.041 C 
HETATM    3  C3  UNL     1      37.692  14.604  25.522  1.00  0.00     0.064 C 
HETATM    4  C4  UNL     1      37.824  14.622  27.005  1.00  0.00     0.019 C 
HETATM    5  C5  UNL     1      39.236  14.697  27.505  1.00  0.00     0.086 C 
HETATM    6  C6  UNL     1      39.214  14.635  29.029  1.00  0.00     0.071 C 
HETATM    7  C7  UNL     1      40.505  13.886  29.407  1.00  0.00     0.047 C 
HETATM    8  O1  UNL     1      38.187  13.782  29.315  1.00  0.00    -0.369 OA
HETATM    9  C8  UNL     1      37.672  13.727  30.540  1.00  0.00     0.055 C 
HETATM   10  C9  UNL     1      37.871  12.327  31.124  1.00  0.00     0.045 C 
HETATM   11  C10 UNL     1      36.148  13.889  30.414  1.00  0.00     0.045 C 
HETATM   12  C11 UNL     1      38.133  14.721  31.543  1.00  0.00     0.038 C 
HETATM   13  C12 UNL     1      38.261  16.052  30.890  1.00  0.00     0.010 C 
HETATM   14  C13 UNL     1      39.216  15.944  29.692  1.00  0.00     0.023 C 
HETATM   15  C14 UNL     1      38.887  17.137  28.843  1.00  0.00     0.045 C 
HETATM   16  C15 UNL     1      39.517  17.185  27.516  1.00  0.00     0.181 C 
HETATM   17  C16 UNL     1      39.958  15.871  26.958  1.00  0.00     0.200 C 
HETATM   18  O4  UNL     1      39.799  15.823  25.538  1.00  0.00    -0.316 OA
ENDROOT
BRANCH  17  19
HETATM   19  O3  UNL     1      41.345  15.780  27.151  1.00  0.00    -0.363 OA
ATOM     20  H3  UNL     1      41.718  15.014  26.731  1.00  0.00     0.213 HD
ENDBRANCH  17  19
BRANCH  16  21
HETATM   21  O2  UNL     1      38.578  17.721  26.603  1.00  0.00    -0.390 OA
ATOM     22  H2  UNL     1      38.355  17.042  25.977  1.00  0.00     0.210 HD
ENDBRANCH  16  21
TORSDOF 2
ENDMDL
