MODEL 1
REMARK VINA RESULT: -4.129471285      0.000      0.000
REMARK  3 active torsions:
REMARK  status: ('A' for Active; 'I' for Inactive)
REMARK    1  A    between atoms: C2_2  and  C3_3 
REMARK    2  A    between atoms: C3_3  and  C4_4 
REMARK    3  A    between atoms: C4_4  and  N1_5 
ROOT
HETATM    1  N1  UNL     1      27.621   8.706  48.824  1.00  0.00     0.211 N 
HETATM    2  C5  UNL     1      26.395   9.392  48.649  1.00  0.00     0.345 C 
HETATM    3  N2  UNL     1      27.453   7.992  50.077  1.00  0.00    -0.009 NA
HETATM    4  C6  UNL     1      26.579   6.896  49.758  1.00  0.00     0.184 C 
HETATM    5  C7  UNL     1      26.850   6.635  48.317  1.00  0.00     0.369 C 
HETATM    6  N3  UNL     1      27.861   7.637  48.007  1.00  0.00     0.197 N 
HETATM    7  C8  UNL     1      27.954   7.840  46.610  1.00  0.00     0.399 C 
HETATM    8  O1  UNL     1      29.049   7.074  48.415  1.00  0.00    -0.035 OA
ENDROOT
BRANCH   1   9
HETATM    9  C4  UNL     1      28.710   9.576  49.103  1.00  0.00     0.305 C 
BRANCH   9  10
HETATM   10  C3  UNL     1      28.825  10.855  48.387  1.00  0.00     0.032 C 
BRANCH  10  11
HETATM   11  C2  UNL     1      30.179  11.500  48.341  1.00  0.00    -0.003 C 
HETATM   12  C1  UNL     1      31.094  10.601  49.173  1.00  0.00     0.005 C 
ENDBRANCH  10  11
ENDBRANCH   9  10
ENDBRANCH   1   9
TORSDOF 3
ENDMDL
MODEL 2
REMARK VINA RESULT: -3.724383344      1.286      3.872
REMARK  3 active torsions:
REMARK  status: ('A' for Active; 'I' for Inactive)
REMARK    1  A    between atoms: C2_2  and  C3_3 
REMARK    2  A    between atoms: C3_3  and  C4_4 
REMARK    3  A    between atoms: C4_4  and  N1_5 
ROOT
HETATM    1  N1  UNL     1      27.883   9.100  48.432  1.00  0.00     0.211 N 
HETATM    2  C5  UNL     1      26.805   9.878  47.945  1.00  0.00     0.345 C 
HETATM    3  N2  UNL     1      27.841   7.892  47.627  1.00  0.00    -0.009 NA
HETATM    4  C6  UNL     1      28.357   8.290  46.345  1.00  0.00     0.184 C 
HETATM    5  C7  UNL     1      29.269   9.422  46.666  1.00  0.00     0.369 C 
HETATM    6  N3  UNL     1      29.146   9.516  48.115  1.00  0.00     0.197 N 
HETATM    7  C8  UNL     1      29.596  10.774  48.576  1.00  0.00     0.399 C 
HETATM    8  O1  UNL     1      30.018   8.570  48.603  1.00  0.00    -0.035 OA
ENDROOT
BRANCH   1   9
HETATM    9  C4  UNL     1      27.664   8.607  49.747  1.00  0.00     0.305 C 
BRANCH   9  10
HETATM   10  C3  UNL     1      27.421   7.173  49.959  1.00  0.00     0.032 C 
BRANCH  10  11
HETATM   11  C2  UNL     1      26.227   6.569  49.281  1.00  0.00    -0.003 C 
HETATM   12  C1  UNL     1      25.201   6.325  50.387  1.00  0.00     0.005 C 
ENDBRANCH  10  11
ENDBRANCH   9  10
ENDBRANCH   1   9
TORSDOF 3
ENDMDL
MODEL 3
REMARK VINA RESULT: -3.694552121      1.545      4.128
REMARK  3 active torsions:
REMARK  status: ('A' for Active; 'I' for Inactive)
REMARK    1  A    between atoms: C2_2  and  C3_3 
REMARK    2  A    between atoms: C3_3  and  C4_4 
REMARK    3  A    between atoms: C4_4  and  N1_5 
ROOT
HETATM    1  N1  UNL     1      28.798   8.821  47.932  1.00  0.00     0.211 N 
HETATM    2  C5  UNL     1      29.052   8.928  46.544  1.00  0.00     0.345 C 
HETATM    3  N2  UNL     1      30.081   9.105  48.551  1.00  0.00    -0.009 NA
HETATM    4  C6  UNL     1      30.243  10.527  48.418  1.00  0.00     0.184 C 
HETATM    5  C7  UNL     1      28.846  11.042  48.389  1.00  0.00     0.369 C 
HETATM    6  N3  UNL     1      28.065   9.818  48.512  1.00  0.00     0.197 N 
HETATM    7  C8  UNL     1      26.731  10.031  48.091  1.00  0.00     0.399 C 
HETATM    8  O1  UNL     1      28.027   9.560  49.863  1.00  0.00    -0.035 OA
ENDROOT
BRANCH   1   9
HETATM    9  C4  UNL     1      28.538   7.487  48.349  1.00  0.00     0.305 C 
BRANCH   9  10
HETATM   10  C3  UNL     1      27.570   6.666  47.608  1.00  0.00     0.032 C 
BRANCH  10  11
HETATM   11  C2  UNL     1      26.466   6.023  48.394  1.00  0.00    -0.003 C 
HETATM   12  C1  UNL     1      26.375   6.812  49.701  1.00  0.00     0.005 C 
ENDBRANCH  10  11
ENDBRANCH   9  10
ENDBRANCH   1   9
TORSDOF 3
ENDMDL
MODEL 4
REMARK VINA RESULT: -3.563619615      1.684      4.216
REMARK  3 active torsions:
REMARK  status: ('A' for Active; 'I' for Inactive)
REMARK    1  A    between atoms: C2_2  and  C3_3 
REMARK    2  A    between atoms: C3_3  and  C4_4 
REMARK    3  A    between atoms: C4_4  and  N1_5 
ROOT
HETATM    1  N1  UNL     1      28.041   8.251  48.533  1.00  0.00     0.211 N 
HETATM    2  C5  UNL     1      29.099   7.586  49.197  1.00  0.00     0.345 C 
HETATM    3  N2  UNL     1      28.370   9.659  48.662  1.00  0.00    -0.009 NA
HETATM    4  C6  UNL     1      29.443   9.870  47.729  1.00  0.00     0.184 C 
HETATM    5  C7  UNL     1      29.208   8.838  46.680  1.00  0.00     0.369 C 
HETATM    6  N3  UNL     1      28.010   8.169  47.169  1.00  0.00     0.197 N 
HETATM    7  C8  UNL     1      27.855   6.905  46.554  1.00  0.00     0.399 C 
HETATM    8  O1  UNL     1      26.967   8.958  46.740  1.00  0.00    -0.035 OA
ENDROOT
BRANCH   1   9
HETATM    9  C4  UNL     1      26.802   8.154  49.225  1.00  0.00     0.305 C 
BRANCH   9  10
HETATM   10  C3  UNL     1      26.543   7.002  50.101  1.00  0.00     0.032 C 
BRANCH  10  11
HETATM   11  C2  UNL     1      25.269   6.241  49.880  1.00  0.00    -0.003 C 
HETATM   12  C1  UNL     1      24.702   5.969  51.274  1.00  0.00     0.005 C 
ENDBRANCH  10  11
ENDBRANCH   9  10
ENDBRANCH   1   9
TORSDOF 3
ENDMDL
MODEL 5
REMARK VINA RESULT: -3.412654682      1.486      2.197
REMARK  3 active torsions:
REMARK  status: ('A' for Active; 'I' for Inactive)
REMARK    1  A    between atoms: C2_2  and  C3_3 
REMARK    2  A    between atoms: C3_3  and  C4_4 
REMARK    3  A    between atoms: C4_4  and  N1_5 
ROOT
HETATM    1  N1  UNL     1      28.245   8.154  48.263  1.00  0.00     0.211 N 
HETATM    2  C5  UNL     1      28.998   7.689  49.368  1.00  0.00     0.345 C 
HETATM    3  N2  UNL     1      27.801   6.941  47.600  1.00  0.00    -0.009 NA
HETATM    4  C6  UNL     1      26.753   6.429  48.440  1.00  0.00     0.184 C 
HETATM    5  C7  UNL     1      26.198   7.646  49.096  1.00  0.00     0.369 C 
HETATM    6  N3  UNL     1      27.023   8.704  48.528  1.00  0.00     0.197 N 
HETATM    7  C8  UNL     1      26.947   9.876  49.317  1.00  0.00     0.399 C 
HETATM    8  O1  UNL     1      26.437   8.993  47.317  1.00  0.00    -0.035 OA
ENDROOT
BRANCH   1   9
HETATM    9  C4  UNL     1      29.045   8.780  47.268  1.00  0.00     0.305 C 
BRANCH   9  10
HETATM   10  C3  UNL     1      30.237   9.546  47.664  1.00  0.00     0.032 C 
BRANCH  10  11
HETATM   11  C2  UNL     1      30.016  10.906  48.257  1.00  0.00    -0.003 C 
HETATM   12  C1  UNL     1      31.144  11.104  49.269  1.00  0.00     0.005 C 
ENDBRANCH  10  11
ENDBRANCH   9  10
ENDBRANCH   1   9
TORSDOF 3
ENDMDL
