MODEL 1
REMARK VINA RESULT: -3.934300997      0.000      0.000
REMARK  5 active torsions:
REMARK  status: ('A' for Active; 'I' for Inactive)
REMARK    1  A    between atoms: C1_4  and  C2_5 
REMARK    2  A    between atoms: C2_5  and  C3_6 
REMARK    3  A    between atoms: C3_6  and  C4_7 
REMARK    4  A    between atoms: C4_7  and  C5_8 
REMARK    5  A    between atoms: C6_9  and  C7_10 
ROOT
HETATM    1  C7  UNL     1      37.944  -1.814  41.501  1.00  0.00     0.015 C 
HETATM    2  C8  UNL     1      38.695  -2.315  42.316  1.00  0.00     0.066 C 
HETATM    3  O1  UNL     1      39.553  -2.880  43.229  1.00  0.00    -0.313 OA
ATOM      4  H1  UNL     1      40.139  -3.272  43.866  1.00  0.00     0.230 HD
ENDROOT
BRANCH   1   5
HETATM    5  C6  UNL     1      37.068  -1.211  40.568  1.00  0.00    -0.013 C 
HETATM    6  C5  UNL     1      36.314  -0.684  39.787  1.00  0.00    -0.092 C 
BRANCH   6   7
HETATM    7  C4  UNL     1      35.382  -0.026  38.851  1.00  0.00     0.095 C 
BRANCH   7   8
HETATM    8  C3  UNL     1      34.135  -0.897  38.671  1.00  0.00     0.017 C 
BRANCH   8   9
HETATM    9  C2  UNL     1      34.530  -2.213  38.014  1.00  0.00     0.044 C 
BRANCH   9  10
HETATM   10  C1  UNL     1      33.311  -2.971  37.703  1.00  0.00     0.052 C 
HETATM   11  N1  UNL     1      32.246  -2.910  38.419  1.00  0.00    -0.411 N 
ATOM     12  H12 UNL     1      32.265  -2.302  39.237  1.00  0.00     0.155 HD
ATOM     13  H11 UNL     1      31.400  -3.436  38.203  1.00  0.00     0.155 HD
ENDBRANCH   9  10
ENDBRANCH   8   9
ENDBRANCH   7   8
ENDBRANCH   6   7
ENDBRANCH   1   5
TORSDOF 5
ENDMDL
MODEL 2
REMARK VINA RESULT: -3.784604565      8.553      9.356
REMARK  5 active torsions:
REMARK  status: ('A' for Active; 'I' for Inactive)
REMARK    1  A    between atoms: C1_4  and  C2_5 
REMARK    2  A    between atoms: C2_5  and  C3_6 
REMARK    3  A    between atoms: C3_6  and  C4_7 
REMARK    4  A    between atoms: C4_7  and  C5_8 
REMARK    5  A    between atoms: C6_9  and  C7_10 
ROOT
HETATM    1  C7  UNL     1      39.891   0.089  30.916  1.00  0.00     0.015 C 
HETATM    2  C8  UNL     1      40.422   1.165  30.721  1.00  0.00     0.066 C 
HETATM    3  O1  UNL     1      41.020   2.381  30.489  1.00  0.00    -0.313 OA
ATOM      4  H1  UNL     1      41.435   3.222  30.337  1.00  0.00     0.230 HD
ENDROOT
BRANCH   1   5
HETATM    5  C6  UNL     1      39.253  -1.152  31.151  1.00  0.00    -0.013 C 
HETATM    6  C5  UNL     1      38.728  -2.220  31.346  1.00  0.00    -0.092 C 
BRANCH   6   7
HETATM    7  C4  UNL     1      38.105  -3.538  31.578  1.00  0.00     0.095 C 
BRANCH   7   8
HETATM    8  C3  UNL     1      36.778  -3.356  32.321  1.00  0.00     0.017 C 
BRANCH   8   9
HETATM    9  C2  UNL     1      35.623  -3.604  31.359  1.00  0.00     0.044 C 
BRANCH   9  10
HETATM   10  C1  UNL     1      34.391  -3.067  31.951  1.00  0.00     0.052 C 
HETATM   11  N1  UNL     1      33.731  -3.676  32.869  1.00  0.00    -0.411 N 
ATOM     12  H12 UNL     1      34.093  -4.573  33.190  1.00  0.00     0.155 HD
ATOM     13  H11 UNL     1      32.876  -3.303  33.279  1.00  0.00     0.155 HD
ENDBRANCH   9  10
ENDBRANCH   8   9
ENDBRANCH   7   8
ENDBRANCH   6   7
ENDBRANCH   1   5
TORSDOF 5
ENDMDL
MODEL 3
REMARK VINA RESULT: -3.750260800      3.833      5.509
REMARK  5 active torsions:
REMARK  status: ('A' for Active; 'I' for Inactive)
REMARK    1  A    between atoms: C1_4  and  C2_5 
REMARK    2  A    between atoms: C2_5  and  C3_6 
REMARK    3  A    between atoms: C3_6  and  C4_7 
REMARK    4  A    between atoms: C4_7  and  C5_8 
REMARK    5  A    between atoms: C6_9  and  C7_10 
ROOT
HETATM    1  C7  UNL     1      33.590  -2.675  38.045  1.00  0.00     0.015 C 
HETATM    2  C8  UNL     1      32.391  -2.828  37.914  1.00  0.00     0.066 C 
HETATM    3  O1  UNL     1      31.035  -3.007  37.777  1.00  0.00    -0.313 OA
ATOM      4  H1  UNL     1      30.098  -3.127  37.674  1.00  0.00     0.230 HD
ENDROOT
BRANCH   1   5
HETATM    5  C6  UNL     1      34.981  -2.473  38.203  1.00  0.00    -0.013 C 
HETATM    6  C5  UNL     1      36.164  -2.296  38.358  1.00  0.00    -0.092 C 
BRANCH   6   7
HETATM    7  C4  UNL     1      37.607  -2.070  38.570  1.00  0.00     0.095 C 
BRANCH   7   8
HETATM    8  C3  UNL     1      37.881  -1.862  40.064  1.00  0.00     0.017 C 
BRANCH   8   9
HETATM    9  C2  UNL     1      36.631  -1.303  40.732  1.00  0.00     0.044 C 
BRANCH   9  10
HETATM   10  C1  UNL     1      36.586   0.148  40.511  1.00  0.00     0.052 C 
HETATM   11  N1  UNL     1      35.593   0.742  39.955  1.00  0.00    -0.411 N 
ATOM     12  H12 UNL     1      34.806   0.164  39.658  1.00  0.00     0.155 HD
ATOM     13  H11 UNL     1      35.561   1.749  39.802  1.00  0.00     0.155 HD
ENDBRANCH   9  10
ENDBRANCH   8   9
ENDBRANCH   7   8
ENDBRANCH   6   7
ENDBRANCH   1   5
TORSDOF 5
ENDMDL
MODEL 4
REMARK VINA RESULT: -3.035336828      3.700      5.445
REMARK  5 active torsions:
REMARK  status: ('A' for Active; 'I' for Inactive)
REMARK    1  A    between atoms: C1_4  and  C2_5 
REMARK    2  A    between atoms: C2_5  and  C3_6 
REMARK    3  A    between atoms: C3_6  and  C4_7 
REMARK    4  A    between atoms: C4_7  and  C5_8 
REMARK    5  A    between atoms: C6_9  and  C7_10 
ROOT
HETATM    1  C7  UNL     1      33.728  -2.576  37.974  1.00  0.00     0.015 C 
HETATM    2  C8  UNL     1      32.535  -2.813  37.958  1.00  0.00     0.066 C 
HETATM    3  O1  UNL     1      31.185  -3.072  37.947  1.00  0.00    -0.313 OA
ATOM      4  H1  UNL     1      30.253  -3.258  37.935  1.00  0.00     0.230 HD
ENDROOT
BRANCH   1   5
HETATM    5  C6  UNL     1      35.113  -2.289  37.972  1.00  0.00    -0.013 C 
HETATM    6  C5  UNL     1      36.297  -2.059  37.984  1.00  0.00    -0.092 C 
BRANCH   6   7
HETATM    7  C4  UNL     1      37.749  -1.796  38.016  1.00  0.00     0.095 C 
BRANCH   7   8
HETATM    8  C3  UNL     1      38.283  -2.030  39.433  1.00  0.00     0.017 C 
BRANCH   8   9
HETATM    9  C2  UNL     1      37.391  -1.306  40.433  1.00  0.00     0.044 C 
BRANCH   9  10
HETATM   10  C1  UNL     1      36.975  -2.258  41.471  1.00  0.00     0.052 C 
HETATM   11  N1  UNL     1      35.900  -2.957  41.391  1.00  0.00    -0.411 N 
ATOM     12  H12 UNL     1      35.319  -2.831  40.561  1.00  0.00     0.155 HD
ATOM     13  H11 UNL     1      35.611  -3.618  42.111  1.00  0.00     0.155 HD
ENDBRANCH   9  10
ENDBRANCH   8   9
ENDBRANCH   7   8
ENDBRANCH   6   7
ENDBRANCH   1   5
TORSDOF 5
ENDMDL
MODEL 5
REMARK VINA RESULT: -2.990328541      9.228     10.143
REMARK  5 active torsions:
REMARK  status: ('A' for Active; 'I' for Inactive)
REMARK    1  A    between atoms: C1_4  and  C2_5 
REMARK    2  A    between atoms: C2_5  and  C3_6 
REMARK    3  A    between atoms: C3_6  and  C4_7 
REMARK    4  A    between atoms: C4_7  and  C5_8 
REMARK    5  A    between atoms: C6_9  and  C7_10 
ROOT
HETATM    1  C7  UNL     1      35.073  -3.320  31.787  1.00  0.00     0.015 C 
HETATM    2  C8  UNL     1      33.863  -3.386  31.887  1.00  0.00     0.066 C 
HETATM    3  O1  UNL     1      32.497  -3.471  32.006  1.00  0.00    -0.313 OA
ATOM      4  H1  UNL     1      31.551  -3.523  32.083  1.00  0.00     0.230 HD
ENDROOT
BRANCH   1   5
HETATM    5  C6  UNL     1      36.481  -3.225  31.687  1.00  0.00    -0.013 C 
HETATM    6  C5  UNL     1      37.680  -3.124  31.594  1.00  0.00    -0.092 C 
BRANCH   6   7
HETATM    7  C4  UNL     1      39.143  -2.980  31.468  1.00  0.00     0.095 C 
BRANCH   7   8
HETATM    8  C3  UNL     1      39.465  -1.845  30.490  1.00  0.00     0.017 C 
BRANCH   8   9
HETATM    9  C2  UNL     1      39.488  -0.521  31.244  1.00  0.00     0.044 C 
BRANCH   9  10
HETATM   10  C1  UNL     1      38.705   0.466  30.490  1.00  0.00     0.052 C 
HETATM   11  N1  UNL     1      38.506   1.665  30.902  1.00  0.00    -0.411 N 
ATOM     12  H12 UNL     1      38.918   1.929  31.797  1.00  0.00     0.155 HD
ATOM     13  H11 UNL     1      37.963   2.351  30.378  1.00  0.00     0.155 HD
ENDBRANCH   9  10
ENDBRANCH   8   9
ENDBRANCH   7   8
ENDBRANCH   6   7
ENDBRANCH   1   5
TORSDOF 5
ENDMDL
