MODEL 1
REMARK VINA RESULT: -7.097346642      0.000      0.000
REMARK  9 active torsions:
REMARK  status: ('A' for Active; 'I' for Inactive)
REMARK    1  A    between atoms: O1_1  and  C1_3 
REMARK    2  A    between atoms: C4_8  and  N2_9 
REMARK    3  A    between atoms: N2_9  and  C5_11 
REMARK    4  A    between atoms: C5_11  and  C6_12 
REMARK    5  A    between atoms: N3_19  and  C12_20 
REMARK    6  A    between atoms: C13_24  and  C14_25 
REMARK    7  A    between atoms: C14_25  and  C15_26 
REMARK    8  A    between atoms: C16_30  and  O2_31 
REMARK    9  A    between atoms: C17_33  and  O3_34 
ROOT
HETATM    1  C1  UNL     1      28.382  51.628  47.491  1.00  0.00     0.161 A 
HETATM    2  C2  UNL     1      27.402  52.505  46.999  1.00  0.00     0.144 A 
HETATM    3  N1  UNL     1      26.757  52.234  45.857  1.00  0.00    -0.368 N 
ATOM      4  H1  UNL     1      26.047  52.876  45.505  1.00  0.00     0.164 HD
HETATM    5  C3  UNL     1      27.054  51.097  45.166  1.00  0.00     0.136 A 
HETATM    6  C4  UNL     1      28.000  50.221  45.615  1.00  0.00     0.123 A 
HETATM    7  N3  UNL     1      28.650  50.532  46.801  1.00  0.00    -0.280 N 
ENDROOT
BRANCH   7   8
HETATM    8  C12 UNL     1      29.621  49.568  47.192  1.00  0.00     0.326 C 
HETATM    9  N4  UNL     1      29.161  48.865  48.418  1.00  0.00    -0.044 N 
HETATM   10  C13 UNL     1      30.330  48.046  48.795  1.00  0.00     0.228 C 
ATOM     11  H42 UNL     1      28.818  49.479  49.156  1.00  0.00     0.280 HD
ATOM     12  H41 UNL     1      28.294  48.341  48.307  1.00  0.00     0.280 HD
HETATM   13  C16 UNL     1      31.513  48.605  48.082  1.00  0.00     0.181 C 
HETATM   14  C17 UNL     1      30.943  50.019  47.703  1.00  0.00     0.199 C 
BRANCH  10  15
HETATM   15  C14 UNL     1      30.062  46.597  48.566  1.00  0.00     0.153 C 
BRANCH  15  16
HETATM   16  C15 UNL     1      29.293  45.941  49.682  1.00  0.00     0.389 C 
HETATM   17  F1  UNL     1      29.398  46.679  50.854  1.00  0.00    -0.171 F 
HETATM   18  F2  UNL     1      27.955  45.830  49.360  1.00  0.00    -0.171 F 
HETATM   19  F3  UNL     1      29.747  44.677  49.969  1.00  0.00    -0.171 F 
ENDBRANCH  15  16
ENDBRANCH  10  15
BRANCH  13  20
HETATM   20  O2  UNL     1      32.607  48.811  48.906  1.00  0.00    -0.391 OA
ATOM     21  H2  UNL     1      33.435  48.581  48.502  1.00  0.00     0.210 HD
ENDBRANCH  13  20
BRANCH  14  22
HETATM   22  O3  UNL     1      31.841  50.483  46.765  1.00  0.00    -0.389 OA
ATOM     23  H3  UNL     1      32.331  51.264  46.996  1.00  0.00     0.210 HD
ENDBRANCH  14  22
ENDBRANCH   7   8
BRANCH   1  24
HETATM   24  O1  UNL     1      29.028  51.951  48.685  1.00  0.00    -0.345 OA
ATOM     25  H1  UNL     1      28.656  51.641  49.502  1.00  0.00     0.219 HD
ENDBRANCH   1  24
BRANCH   6  26
HETATM   26  N2  UNL     1      28.316  49.132  44.991  1.00  0.00    -0.371 N 
ATOM     27  H2  UNL     1      29.268  48.767  45.042  1.00  0.00     0.161 HD
BRANCH  26  28
HETATM   28  C5  UNL     1      27.318  48.442  44.229  1.00  0.00     0.160 C 
BRANCH  28  29
HETATM   29  C6  UNL     1      26.770  47.239  44.925  1.00  0.00    -0.040 A 
HETATM   30  C7  UNL     1      27.369  46.007  44.750  1.00  0.00     0.010 A 
HETATM   31  C8  UNL     1      26.920  44.856  45.362  1.00  0.00     0.024 A 
HETATM   32  C9  UNL     1      25.819  44.931  46.190  1.00  0.00     0.034 A 
HETATM   33 CL1  UNL     1      25.186  43.504  47.007  1.00  0.00    -0.084 Cl
HETATM   34  C10 UNL     1      25.214  46.158  46.370  1.00  0.00     0.024 A 
HETATM   35  C11 UNL     1      25.685  47.307  45.743  1.00  0.00     0.010 A 
ENDBRANCH  28  29
ENDBRANCH  26  28
ENDBRANCH   6  26
TORSDOF 9
ENDMDL
MODEL 2
REMARK VINA RESULT: -7.035698788      2.175      3.118
REMARK  9 active torsions:
REMARK  status: ('A' for Active; 'I' for Inactive)
REMARK    1  A    between atoms: O1_1  and  C1_3 
REMARK    2  A    between atoms: C4_8  and  N2_9 
REMARK    3  A    between atoms: N2_9  and  C5_11 
REMARK    4  A    between atoms: C5_11  and  C6_12 
REMARK    5  A    between atoms: N3_19  and  C12_20 
REMARK    6  A    between atoms: C13_24  and  C14_25 
REMARK    7  A    between atoms: C14_25  and  C15_26 
REMARK    8  A    between atoms: C16_30  and  O2_31 
REMARK    9  A    between atoms: C17_33  and  O3_34 
ROOT
HETATM    1  C1  UNL     1      31.194  50.846  48.568  1.00  0.00     0.161 A 
HETATM    2  C2  UNL     1      31.527  52.202  48.414  1.00  0.00     0.144 A 
HETATM    3  N1  UNL     1      31.399  52.804  47.224  1.00  0.00    -0.368 N 
ATOM      4  H1  UNL     1      31.643  53.788  47.120  1.00  0.00     0.164 HD
HETATM    5  C3  UNL     1      30.941  52.095  46.154  1.00  0.00     0.136 A 
HETATM    6  C4  UNL     1      30.607  50.776  46.266  1.00  0.00     0.123 A 
HETATM    7  N3  UNL     1      30.752  50.182  47.512  1.00  0.00    -0.280 N 
ENDROOT
BRANCH   7   8
HETATM    8  C12 UNL     1      30.385  48.807  47.539  1.00  0.00     0.326 C 
HETATM    9  N4  UNL     1      29.377  48.580  48.606  1.00  0.00    -0.044 N 
HETATM   10  C13 UNL     1      29.237  47.111  48.629  1.00  0.00     0.228 C 
ATOM     11  H42 UNL     1      29.610  48.998  49.507  1.00  0.00     0.280 HD
ATOM     12  H41 UNL     1      28.502  49.087  48.479  1.00  0.00     0.280 HD
HETATM   13  C16 UNL     1      30.424  46.540  47.933  1.00  0.00     0.181 C 
HETATM   14  C17 UNL     1      31.376  47.788  47.977  1.00  0.00     0.199 C 
BRANCH  10  15
HETATM   15  C14 UNL     1      27.909  46.693  48.093  1.00  0.00     0.153 C 
BRANCH  15  16
HETATM   16  C15 UNL     1      27.136  45.798  49.025  1.00  0.00     0.389 C 
HETATM   17  F1  UNL     1      25.936  45.402  48.448  1.00  0.00    -0.171 F 
HETATM   18  F2  UNL     1      27.861  44.663  49.333  1.00  0.00    -0.171 F 
HETATM   19  F3  UNL     1      26.820  46.411  50.212  1.00  0.00    -0.171 F 
ENDBRANCH  15  16
ENDBRANCH  10  15
BRANCH  13  20
HETATM   20  O2  UNL     1      31.044  45.525  48.642  1.00  0.00    -0.391 OA
ATOM     21  H2  UNL     1      30.914  45.584  49.581  1.00  0.00     0.210 HD
ENDBRANCH  13  20
BRANCH  14  22
HETATM   22  O3  UNL     1      32.368  47.465  47.076  1.00  0.00    -0.389 OA
ATOM     23  H3  UNL     1      33.227  47.838  47.236  1.00  0.00     0.210 HD
ENDBRANCH  14  22
ENDBRANCH   7   8
BRANCH   1  24
HETATM   24  O1  UNL     1      31.342  50.260  49.826  1.00  0.00    -0.345 OA
ATOM     25  H1  UNL     1      32.188  50.314  50.256  1.00  0.00     0.219 HD
ENDBRANCH   1  24
BRANCH   6  26
HETATM   26  N2  UNL     1      30.172  50.063  45.277  1.00  0.00    -0.371 N 
ATOM     27  H2  UNL     1      30.688  49.239  44.970  1.00  0.00     0.161 HD
BRANCH  26  28
HETATM   28  C5  UNL     1      28.958  50.443  44.617  1.00  0.00     0.160 C 
BRANCH  28  29
HETATM   29  C6  UNL     1      27.766  49.670  45.082  1.00  0.00    -0.040 A 
HETATM   30  C7  UNL     1      27.008  50.140  46.137  1.00  0.00     0.010 A 
HETATM   31  C8  UNL     1      25.896  49.482  46.617  1.00  0.00     0.024 A 
HETATM   32  C9  UNL     1      25.516  48.297  46.020  1.00  0.00     0.034 A 
HETATM   33 CL1  UNL     1      24.106  47.399  46.578  1.00  0.00    -0.084 Cl
HETATM   34  C10 UNL     1      26.268  47.822  44.966  1.00  0.00     0.024 A 
HETATM   35  C11 UNL     1      27.387  48.502  44.497  1.00  0.00     0.010 A 
ENDBRANCH  28  29
ENDBRANCH  26  28
ENDBRANCH   6  26
TORSDOF 9
ENDMDL
MODEL 3
REMARK VINA RESULT: -6.959537113      0.460      1.222
REMARK  9 active torsions:
REMARK  status: ('A' for Active; 'I' for Inactive)
REMARK    1  A    between atoms: O1_1  and  C1_3 
REMARK    2  A    between atoms: C4_8  and  N2_9 
REMARK    3  A    between atoms: N2_9  and  C5_11 
REMARK    4  A    between atoms: C5_11  and  C6_12 
REMARK    5  A    between atoms: N3_19  and  C12_20 
REMARK    6  A    between atoms: C13_24  and  C14_25 
REMARK    7  A    between atoms: C14_25  and  C15_26 
REMARK    8  A    between atoms: C16_30  and  O2_31 
REMARK    9  A    between atoms: C17_33  and  O3_34 
ROOT
HETATM    1  C1  UNL     1      28.289  51.654  47.293  1.00  0.00     0.161 A 
HETATM    2  C2  UNL     1      27.369  52.569  46.756  1.00  0.00     0.144 A 
HETATM    3  N1  UNL     1      26.767  52.322  45.585  1.00  0.00    -0.368 N 
ATOM      4  H1  UNL     1      26.100  52.992  45.201  1.00  0.00     0.164 HD
HETATM    5  C3  UNL     1      27.049  51.173  44.908  1.00  0.00     0.136 A 
HETATM    6  C4  UNL     1      27.938  50.261  45.400  1.00  0.00     0.123 A 
HETATM    7  N3  UNL     1      28.545  50.547  46.615  1.00  0.00    -0.280 N 
ENDROOT
BRANCH   7   8
HETATM    8  C12 UNL     1      29.457  49.545  47.050  1.00  0.00     0.326 C 
HETATM    9  N4  UNL     1      28.934  48.893  48.279  1.00  0.00    -0.044 N 
HETATM   10  C13 UNL     1      30.052  48.027  48.702  1.00  0.00     0.228 C 
ATOM     11  H42 UNL     1      28.603  49.540  48.995  1.00  0.00     0.280 HD
ATOM     12  H41 UNL     1      28.044  48.410  48.157  1.00  0.00     0.280 HD
HETATM   13  C16 UNL     1      31.277  48.511  48.008  1.00  0.00     0.181 C 
HETATM   14  C17 UNL     1      30.787  49.942  47.584  1.00  0.00     0.199 C 
BRANCH  10  15
HETATM   15  C14 UNL     1      29.718  46.587  48.497  1.00  0.00     0.153 C 
BRANCH  15  16
HETATM   16  C15 UNL     1      29.192  45.907  49.733  1.00  0.00     0.389 C 
HETATM   17  F1  UNL     1      29.799  44.671  49.912  1.00  0.00    -0.171 F 
HETATM   18  F2  UNL     1      29.432  46.673  50.857  1.00  0.00    -0.171 F 
HETATM   19  F3  UNL     1      27.839  45.678  49.679  1.00  0.00    -0.171 F 
ENDBRANCH  15  16
ENDBRANCH  10  15
BRANCH  13  20
HETATM   20  O2  UNL     1      32.360  48.682  48.854  1.00  0.00    -0.391 OA
ATOM     21  H2  UNL     1      32.975  49.340  48.555  1.00  0.00     0.210 HD
ENDBRANCH  13  20
BRANCH  14  22
HETATM   22  O3  UNL     1      31.729  50.342  46.660  1.00  0.00    -0.389 OA
ATOM     23  H3  UNL     1      32.472  50.831  46.994  1.00  0.00     0.210 HD
ENDBRANCH  14  22
ENDBRANCH   7   8
BRANCH   1  24
HETATM   24  O1  UNL     1      28.892  51.953  48.515  1.00  0.00    -0.345 OA
ATOM     25  H1  UNL     1      29.839  52.019  48.551  1.00  0.00     0.219 HD
ENDBRANCH   1  24
BRANCH   6  26
HETATM   26  N2  UNL     1      28.239  49.159  44.792  1.00  0.00    -0.371 N 
ATOM     27  H2  UNL     1      29.215  48.888  44.669  1.00  0.00     0.161 HD
BRANCH  26  28
HETATM   28  C5  UNL     1      27.189  48.322  44.291  1.00  0.00     0.160 C 
BRANCH  28  29
HETATM   29  C6  UNL     1      26.990  47.078  45.096  1.00  0.00    -0.040 A 
HETATM   30  C7  UNL     1      26.288  47.130  46.284  1.00  0.00     0.010 A 
HETATM   31  C8  UNL     1      26.065  46.024  47.077  1.00  0.00     0.024 A 
HETATM   32  C9  UNL     1      26.563  44.804  46.668  1.00  0.00     0.034 A 
HETATM   33 CL1  UNL     1      26.318  43.346  47.627  1.00  0.00    -0.084 Cl
HETATM   34  C10 UNL     1      27.265  44.744  45.483  1.00  0.00     0.024 A 
HETATM   35  C11 UNL     1      27.479  45.873  44.698  1.00  0.00     0.010 A 
ENDBRANCH  28  29
ENDBRANCH  26  28
ENDBRANCH   6  26
TORSDOF 9
ENDMDL
MODEL 4
REMARK VINA RESULT: -6.936638920      4.061      5.577
REMARK  9 active torsions:
REMARK  status: ('A' for Active; 'I' for Inactive)
REMARK    1  A    between atoms: O1_1  and  C1_3 
REMARK    2  A    between atoms: C4_8  and  N2_9 
REMARK    3  A    between atoms: N2_9  and  C5_11 
REMARK    4  A    between atoms: C5_11  and  C6_12 
REMARK    5  A    between atoms: N3_19  and  C12_20 
REMARK    6  A    between atoms: C13_24  and  C14_25 
REMARK    7  A    between atoms: C14_25  and  C15_26 
REMARK    8  A    between atoms: C16_30  and  O2_31 
REMARK    9  A    between atoms: C17_33  and  O3_34 
ROOT
HETATM    1  C1  UNL     1      29.974  47.340  47.760  1.00  0.00     0.161 A 
HETATM    2  C2  UNL     1      29.051  46.351  47.383  1.00  0.00     0.144 A 
HETATM    3  N1  UNL     1      28.061  46.634  46.526  1.00  0.00    -0.368 N 
ATOM      4  H1  UNL     1      27.394  45.911  46.258  1.00  0.00     0.164 HD
HETATM    5  C3  UNL     1      27.948  47.893  46.016  1.00  0.00     0.136 A 
HETATM    6  C4  UNL     1      28.828  48.880  46.359  1.00  0.00     0.123 A 
HETATM    7  N3  UNL     1      29.841  48.553  47.249  1.00  0.00    -0.280 N 
ENDROOT
BRANCH   7   8
HETATM    8  C12 UNL     1      30.709  49.640  47.553  1.00  0.00     0.326 C 
HETATM    9  N4  UNL     1      32.121  49.220  47.363  1.00  0.00    -0.044 N 
HETATM   10  C13 UNL     1      32.887  50.370  47.882  1.00  0.00     0.228 C 
ATOM     11  H42 UNL     1      32.359  48.324  47.788  1.00  0.00     0.280 HD
ATOM     12  H41 UNL     1      32.358  48.948  46.409  1.00  0.00     0.280 HD
HETATM   13  C16 UNL     1      31.960  51.179  48.721  1.00  0.00     0.181 C 
HETATM   14  C17 UNL     1      30.829  50.116  48.957  1.00  0.00     0.199 C 
BRANCH  10  15
HETATM   15  C14 UNL     1      33.565  51.103  46.774  1.00  0.00     0.153 C 
BRANCH  15  16
HETATM   16  C15 UNL     1      35.031  51.346  47.018  1.00  0.00     0.389 C 
HETATM   17  F1  UNL     1      35.808  50.462  46.280  1.00  0.00    -0.171 F 
HETATM   18  F2  UNL     1      35.384  52.633  46.661  1.00  0.00    -0.171 F 
HETATM   19  F3  UNL     1      35.385  51.180  48.334  1.00  0.00    -0.171 F 
ENDBRANCH  15  16
ENDBRANCH  10  15
BRANCH  13  20
HETATM   20  O2  UNL     1      32.482  51.507  49.961  1.00  0.00    -0.391 OA
ATOM     21  H2  UNL     1      32.781  52.406  50.021  1.00  0.00     0.210 HD
ENDBRANCH  13  20
BRANCH  14  22
HETATM   22  O3  UNL     1      29.781  50.868  49.445  1.00  0.00    -0.389 OA
ATOM     23  H3  UNL     1      28.953  50.794  48.985  1.00  0.00     0.210 HD
ENDBRANCH  14  22
ENDBRANCH   7   8
BRANCH   1  24
HETATM   24  O1  UNL     1      30.990  47.000  48.655  1.00  0.00    -0.345 OA
ATOM     25  H1  UNL     1      31.803  46.651  48.309  1.00  0.00     0.219 HD
ENDBRANCH   1  24
BRANCH   6  26
HETATM   26  N2  UNL     1      28.758  50.088  45.902  1.00  0.00    -0.371 N 
ATOM     27  H2  UNL     1      28.343  50.830  46.467  1.00  0.00     0.161 HD
BRANCH  26  28
HETATM   28  C5  UNL     1      29.267  50.377  44.594  1.00  0.00     0.160 C 
BRANCH  28  29
HETATM   29  C6  UNL     1      28.196  50.516  43.561  1.00  0.00    -0.040 A 
HETATM   30  C7  UNL     1      28.498  50.334  42.225  1.00  0.00     0.010 A 
HETATM   31  C8  UNL     1      27.562  50.445  41.219  1.00  0.00     0.024 A 
HETATM   32  C9  UNL     1      26.259  50.751  41.555  1.00  0.00     0.034 A 
HETATM   33 CL1  UNL     1      25.007  50.908  40.326  1.00  0.00    -0.084 Cl
HETATM   34  C10 UNL     1      25.950  50.934  42.887  1.00  0.00     0.024 A 
HETATM   35  C11 UNL     1      26.910  50.817  43.887  1.00  0.00     0.010 A 
ENDBRANCH  28  29
ENDBRANCH  26  28
ENDBRANCH   6  26
TORSDOF 9
ENDMDL
MODEL 5
REMARK VINA RESULT: -6.927819686      3.881      5.426
REMARK  9 active torsions:
REMARK  status: ('A' for Active; 'I' for Inactive)
REMARK    1  A    between atoms: O1_1  and  C1_3 
REMARK    2  A    between atoms: C4_8  and  N2_9 
REMARK    3  A    between atoms: N2_9  and  C5_11 
REMARK    4  A    between atoms: C5_11  and  C6_12 
REMARK    5  A    between atoms: N3_19  and  C12_20 
REMARK    6  A    between atoms: C13_24  and  C14_25 
REMARK    7  A    between atoms: C14_25  and  C15_26 
REMARK    8  A    between atoms: C16_30  and  O2_31 
REMARK    9  A    between atoms: C17_33  and  O3_34 
ROOT
HETATM    1  C1  UNL     1      29.281  46.797  47.584  1.00  0.00     0.161 A 
HETATM    2  C2  UNL     1      28.205  45.935  47.317  1.00  0.00     0.144 A 
HETATM    3  N1  UNL     1      26.960  46.416  47.199  1.00  0.00    -0.368 N 
ATOM      4  H1  UNL     1      26.184  45.784  47.005  1.00  0.00     0.164 HD
HETATM    5  C3  UNL     1      26.736  47.754  47.339  1.00  0.00     0.136 A 
HETATM    6  C4  UNL     1      27.758  48.621  47.598  1.00  0.00     0.123 A 
HETATM    7  N3  UNL     1      29.035  48.090  47.715  1.00  0.00    -0.280 N 
ENDROOT
BRANCH   7   8
HETATM    8  C12 UNL     1      30.038  49.063  47.988  1.00  0.00     0.326 C 
HETATM    9  N4  UNL     1      30.927  49.208  46.807  1.00  0.00    -0.044 N 
HETATM   10  C13 UNL     1      31.999  50.095  47.300  1.00  0.00     0.228 C 
ATOM     11  H42 UNL     1      31.255  48.327  46.411  1.00  0.00     0.280 HD
ATOM     12  H41 UNL     1      30.461  49.535  45.961  1.00  0.00     0.280 HD
HETATM   13  C16 UNL     1      31.944  50.074  48.789  1.00  0.00     0.181 C 
HETATM   14  C17 UNL     1      31.090  48.772  48.998  1.00  0.00     0.199 C 
BRANCH  10  15
HETATM   15  C14 UNL     1      31.908  51.444  46.668  1.00  0.00     0.153 C 
BRANCH  15  16
HETATM   16  C15 UNL     1      33.211  52.198  46.665  1.00  0.00     0.389 C 
HETATM   17  F1  UNL     1      34.248  51.393  46.212  1.00  0.00    -0.171 F 
HETATM   18  F2  UNL     1      33.136  53.308  45.846  1.00  0.00    -0.171 F 
HETATM   19  F3  UNL     1      33.572  52.641  47.914  1.00  0.00    -0.171 F 
ENDBRANCH  15  16
ENDBRANCH  10  15
BRANCH  13  20
HETATM   20  O2  UNL     1      33.176  49.857  49.383  1.00  0.00    -0.391 OA
ATOM     21  H2  UNL     1      33.664  49.141  48.993  1.00  0.00     0.210 HD
ENDBRANCH  13  20
BRANCH  14  22
HETATM   22  O3  UNL     1      30.712  48.849  50.322  1.00  0.00    -0.389 OA
ATOM     23  H3  UNL     1      30.496  49.712  50.654  1.00  0.00     0.210 HD
ENDBRANCH  14  22
ENDBRANCH   7   8
BRANCH   1  24
HETATM   24  O1  UNL     1      30.561  46.252  47.698  1.00  0.00    -0.345 OA
ATOM     25  H1  UNL     1      30.910  45.754  46.968  1.00  0.00     0.219 HD
ENDBRANCH   1  24
BRANCH   6  26
HETATM   26  N2  UNL     1      27.592  49.896  47.741  1.00  0.00    -0.371 N 
ATOM     27  H2  UNL     1      28.102  50.404  48.464  1.00  0.00     0.161 HD
BRANCH  26  28
HETATM   28  C5  UNL     1      26.685  50.590  46.875  1.00  0.00     0.160 C 
BRANCH  28  29
HETATM   29  C6  UNL     1      27.060  50.496  45.431  1.00  0.00    -0.040 A 
HETATM   30  C7  UNL     1      26.083  50.287  44.477  1.00  0.00     0.010 A 
HETATM   31  C8  UNL     1      26.355  50.192  43.129  1.00  0.00     0.024 A 
HETATM   32  C9  UNL     1      27.662  50.312  42.705  1.00  0.00     0.034 A 
HETATM   33 CL1  UNL     1      28.088  50.202  40.999  1.00  0.00    -0.084 Cl
HETATM   34  C10 UNL     1      28.643  50.521  43.652  1.00  0.00     0.024 A 
HETATM   35  C11 UNL     1      28.347  50.613  45.008  1.00  0.00     0.010 A 
ENDBRANCH  28  29
ENDBRANCH  26  28
ENDBRANCH   6  26
TORSDOF 9
ENDMDL
