MODEL 1
REMARK VINA RESULT: -3.628194506      0.000      0.000
REMARK  1 active torsions:
REMARK  status: ('A' for Active; 'I' for Inactive)
REMARK    1  A    between atoms: C2_2  and  N1_3 
ROOT
HETATM    1  N1  UNL     1      23.258  13.613  58.573  1.00  0.00    -0.026 N 
HETATM    2  C3  UNL     1      23.362  12.722  57.442  1.00  0.00     0.280 C 
HETATM    3  C4  UNL     1      23.268  15.001  58.201  1.00  0.00     0.272 C 
HETATM    4  C5  UNL     1      21.928  15.572  58.611  1.00  0.00     0.262 C 
HETATM    5  N2  UNL     1      21.157  14.462  59.101  1.00  0.00    -0.049 N 
ATOM      6  H21 UNL     1      20.348  14.259  58.515  1.00  0.00     0.279 HD
ATOM      7  H22 UNL     1      20.656  14.684  59.961  1.00  0.00     0.279 HD
HETATM    8  C6  UNL     1      22.024  13.336  59.247  1.00  0.00     0.473 C 
ENDROOT
BRANCH   1   9
HETATM    9  C2  UNL     1      24.379  13.350  59.427  1.00  0.00     0.194 C 
HETATM   10  C1  UNL     1      24.732  12.081  59.645  1.00  0.00     0.038 C 
ENDBRANCH   1   9
TORSDOF 1
ENDMDL
MODEL 2
REMARK VINA RESULT: -3.525351260      1.295      2.362
REMARK  1 active torsions:
REMARK  status: ('A' for Active; 'I' for Inactive)
REMARK    1  A    between atoms: C2_2  and  N1_3 
ROOT
HETATM    1  N1  UNL     1      23.658  13.891  58.612  1.00  0.00    -0.026 N 
HETATM    2  C3  UNL     1      24.590  13.210  59.479  1.00  0.00     0.280 C 
HETATM    3  C4  UNL     1      22.544  14.461  59.319  1.00  0.00     0.272 C 
HETATM    4  C5  UNL     1      22.626  15.960  59.126  1.00  0.00     0.262 C 
HETATM    5  N2  UNL     1      23.849  16.201  58.411  1.00  0.00    -0.049 N 
ATOM      6  H21 UNL     1      24.530  16.721  58.964  1.00  0.00     0.279 HD
ATOM      7  H22 UNL     1      23.734  16.879  57.657  1.00  0.00     0.279 HD
HETATM    8  C6  UNL     1      24.360  14.950  57.948  1.00  0.00     0.473 C 
ENDROOT
BRANCH   1   9
HETATM    9  C2  UNL     1      23.171  12.928  57.669  1.00  0.00     0.194 C 
HETATM   10  C1  UNL     1      22.025  12.297  57.934  1.00  0.00     0.038 C 
ENDBRANCH   1   9
TORSDOF 1
ENDMDL
MODEL 3
REMARK VINA RESULT: -3.497153685      0.961      2.464
REMARK  1 active torsions:
REMARK  status: ('A' for Active; 'I' for Inactive)
REMARK    1  A    between atoms: C2_2  and  N1_3 
ROOT
HETATM    1  N1  UNL     1      23.500  13.694  58.675  1.00  0.00    -0.026 N 
HETATM    2  C3  UNL     1      24.630  13.215  59.435  1.00  0.00     0.280 C 
HETATM    3  C4  UNL     1      23.059  12.763  57.673  1.00  0.00     0.272 C 
HETATM    4  C5  UNL     1      21.650  12.354  58.047  1.00  0.00     0.262 C 
HETATM    5  N2  UNL     1      21.379  12.980  59.313  1.00  0.00    -0.049 N 
ATOM      6  H21 UNL     1      21.258  12.304  60.066  1.00  0.00     0.279 HD
ATOM      7  H22 UNL     1      20.450  13.399  59.350  1.00  0.00     0.279 HD
HETATM    8  C6  UNL     1      22.416  13.924  59.585  1.00  0.00     0.473 C 
ENDROOT
BRANCH   1   9
HETATM    9  C2  UNL     1      23.900  14.913  58.037  1.00  0.00     0.194 C 
HETATM   10  C1  UNL     1      23.370  16.061  58.464  1.00  0.00     0.038 C 
ENDBRANCH   1   9
TORSDOF 1
ENDMDL
MODEL 4
REMARK VINA RESULT: -3.399084930      1.277      3.230
REMARK  1 active torsions:
REMARK  status: ('A' for Active; 'I' for Inactive)
REMARK    1  A    between atoms: C2_2  and  N1_3 
ROOT
HETATM    1  N1  UNL     1      23.316  13.129  58.595  1.00  0.00    -0.026 N 
HETATM    2  C3  UNL     1      22.339  12.365  57.856  1.00  0.00     0.280 C 
HETATM    3  C4  UNL     1      24.184  12.310  59.395  1.00  0.00     0.272 C 
HETATM    4  C5  UNL     1      25.585  12.500  58.852  1.00  0.00     0.262 C 
HETATM    5  N2  UNL     1      25.449  13.334  57.689  1.00  0.00    -0.049 N 
ATOM      6  H21 UNL     1      25.701  12.849  56.828  1.00  0.00     0.279 HD
ATOM      7  H22 UNL     1      26.156  14.067  57.648  1.00  0.00     0.279 HD
HETATM    8  C6  UNL     1      24.119  13.853  57.654  1.00  0.00     0.473 C 
ENDROOT
BRANCH   1   9
HETATM    9  C2  UNL     1      22.597  14.025  59.452  1.00  0.00     0.194 C 
HETATM   10  C1  UNL     1      22.027  15.105  58.914  1.00  0.00     0.038 C 
ENDBRANCH   1   9
TORSDOF 1
ENDMDL
MODEL 5
REMARK VINA RESULT: -3.378943169      1.154      3.069
REMARK  1 active torsions:
REMARK  status: ('A' for Active; 'I' for Inactive)
REMARK    1  A    between atoms: C2_2  and  N1_3 
ROOT
HETATM    1  N1  UNL     1      23.015  13.456  58.755  1.00  0.00    -0.026 N 
HETATM    2  C3  UNL     1      22.268  12.716  59.744  1.00  0.00     0.280 C 
HETATM    3  C4  UNL     1      24.382  13.685  59.136  1.00  0.00     0.272 C 
HETATM    4  C5  UNL     1      25.243  12.963  58.121  1.00  0.00     0.262 C 
HETATM    5  N2  UNL     1      24.334  12.253  57.263  1.00  0.00    -0.049 N 
ATOM      6  H21 UNL     1      24.428  11.241  57.345  1.00  0.00     0.279 HD
ATOM      7  H22 UNL     1      24.581  12.338  56.277  1.00  0.00     0.279 HD
HETATM    8  C6  UNL     1      23.006  12.704  57.535  1.00  0.00     0.473 C 
ENDROOT
BRANCH   1   9
HETATM    9  C2  UNL     1      22.360  14.719  58.583  1.00  0.00     0.194 C 
HETATM   10  C1  UNL     1      23.017  15.831  58.919  1.00  0.00     0.038 C 
ENDBRANCH   1   9
TORSDOF 1
ENDMDL
