MODEL 1
REMARK VINA RESULT: -3.556842781      0.000      0.000
REMARK  1 active torsions:
REMARK  status: ('A' for Active; 'I' for Inactive)
REMARK    1  A    between atoms: C2_2  and  N1_4 
ROOT
HETATM    1  N1  UNL     1      45.716  20.841  50.882  1.00  0.00    -0.067 N 
HETATM    2  C4  UNL     1      46.899  21.558  51.384  1.00  0.00     0.272 C 
HETATM    3  C5  UNL     1      45.560  20.997  49.430  1.00  0.00     0.239 C 
HETATM    4  C6  UNL     1      44.889  22.329  49.729  1.00  0.00     0.056 C 
HETATM    5  C7  UNL     1      44.567  21.632  51.060  1.00  0.00     0.239 C 
ENDROOT
BRANCH   1   6
HETATM    6  C2  UNL     1      45.750  19.496  51.299  1.00  0.00     0.182 C 
HETATM    7  C1  UNL     1      44.430  18.841  50.861  1.00  0.00     0.040 C 
HETATM    8  C3  UNL     1      45.922  19.230  52.739  1.00  0.00     0.040 C 
ENDBRANCH   1   6
TORSDOF 1
ENDMDL
MODEL 2
REMARK VINA RESULT: -3.539501998      1.138      1.491
REMARK  1 active torsions:
REMARK  status: ('A' for Active; 'I' for Inactive)
REMARK    1  A    between atoms: C2_2  and  N1_4 
ROOT
HETATM    1  N1  UNL     1      45.964  21.120  51.759  1.00  0.00    -0.067 N 
HETATM    2  C4  UNL     1      47.059  21.857  51.109  1.00  0.00     0.272 C 
HETATM    3  C5  UNL     1      44.658  21.466  51.184  1.00  0.00     0.239 C 
HETATM    4  C6  UNL     1      44.669  22.680  52.102  1.00  0.00     0.056 C 
HETATM    5  C7  UNL     1      45.582  21.776  52.943  1.00  0.00     0.239 C 
ENDROOT
BRANCH   1   6
HETATM    6  C2  UNL     1      46.232  19.736  51.743  1.00  0.00     0.182 C 
HETATM    7  C1  UNL     1      45.581  19.152  50.480  1.00  0.00     0.040 C 
HETATM    8  C3  UNL     1      45.771  18.937  52.893  1.00  0.00     0.040 C 
ENDBRANCH   1   6
TORSDOF 1
ENDMDL
MODEL 3
REMARK VINA RESULT: -3.535042346      0.877      1.708
REMARK  1 active torsions:
REMARK  status: ('A' for Active; 'I' for Inactive)
REMARK    1  A    between atoms: C2_2  and  N1_4 
ROOT
HETATM    1  N1  UNL     1      45.169  20.750  50.568  1.00  0.00    -0.067 N 
HETATM    2  C4  UNL     1      44.026  20.454  49.689  1.00  0.00     0.272 C 
HETATM    3  C5  UNL     1      44.823  21.741  51.595  1.00  0.00     0.239 C 
HETATM    4  C6  UNL     1      45.088  22.805  50.539  1.00  0.00     0.056 C 
HETATM    5  C7  UNL     1      46.000  21.711  49.964  1.00  0.00     0.239 C 
ENDROOT
BRANCH   1   6
HETATM    6  C2  UNL     1      45.697  19.556  51.099  1.00  0.00     0.182 C 
HETATM    7  C1  UNL     1      44.558  18.526  51.146  1.00  0.00     0.040 C 
HETATM    8  C3  UNL     1      46.301  19.614  52.443  1.00  0.00     0.040 C 
ENDBRANCH   1   6
TORSDOF 1
ENDMDL
MODEL 4
REMARK VINA RESULT: -3.530429868      0.970      1.130
REMARK  1 active torsions:
REMARK  status: ('A' for Active; 'I' for Inactive)
REMARK    1  A    between atoms: C2_2  and  N1_4 
ROOT
HETATM    1  N1  UNL     1      45.731  21.035  51.616  1.00  0.00    -0.067 N 
HETATM    2  C4  UNL     1      45.750  21.662  52.948  1.00  0.00     0.272 C 
HETATM    3  C5  UNL     1      46.499  21.814  50.636  1.00  0.00     0.239 C 
HETATM    4  C6  UNL     1      45.258  22.682  50.479  1.00  0.00     0.056 C 
HETATM    5  C7  UNL     1      44.554  21.395  50.935  1.00  0.00     0.239 C 
ENDROOT
BRANCH   1   6
HETATM    6  C2  UNL     1      46.142  19.690  51.706  1.00  0.00     0.182 C 
HETATM    7  C1  UNL     1      45.575  18.949  50.485  1.00  0.00     0.040 C 
HETATM    8  C3  UNL     1      45.748  18.934  52.909  1.00  0.00     0.040 C 
ENDBRANCH   1   6
TORSDOF 1
ENDMDL
MODEL 5
REMARK VINA RESULT: -3.527674369      1.171      2.296
REMARK  1 active torsions:
REMARK  status: ('A' for Active; 'I' for Inactive)
REMARK    1  A    between atoms: C2_2  and  N1_4 
ROOT
HETATM    1  N1  UNL     1      45.433  21.499  51.153  1.00  0.00    -0.067 N 
HETATM    2  C4  UNL     1      44.620  22.402  51.984  1.00  0.00     0.272 C 
HETATM    3  C5  UNL     1      46.765  21.278  51.732  1.00  0.00     0.239 C 
HETATM    4  C6  UNL     1      47.174  22.591  51.081  1.00  0.00     0.056 C 
HETATM    5  C7  UNL     1      46.040  22.226  50.112  1.00  0.00     0.239 C 
ENDROOT
BRANCH   1   6
HETATM    6  C2  UNL     1      44.729  20.306  50.898  1.00  0.00     0.182 C 
HETATM    7  C1  UNL     1      45.727  19.144  51.015  1.00  0.00     0.040 C 
HETATM    8  C3  UNL     1      44.047  20.178  49.597  1.00  0.00     0.040 C 
ENDBRANCH   1   6
TORSDOF 1
ENDMDL
