MODEL 1
REMARK VINA RESULT: -4.787999801      0.000      0.000
REMARK  5 active torsions:
REMARK  status: ('A' for Active; 'I' for Inactive)
REMARK    1  A    between atoms: C2_2  and  C3_3 
REMARK    2  A    between atoms: C3_3  and  N1_4 
REMARK    3  A    between atoms: C3_3  and  N3_8 
REMARK    4  A    between atoms: N1_4  and  N2_5 
REMARK    5  A    between atoms: N3_8  and  C4_10 
ROOT
HETATM    1  C3  UNL     1      45.123  18.552  51.451  1.00  0.00     0.198 C 
ENDROOT
BRANCH   1   2
HETATM    2  C2  UNL     1      45.690  18.904  52.734  1.00  0.00     0.055 C 
HETATM    3  C1  UNL     1      45.749  18.025  53.714  1.00  0.00     0.016 C 
ENDBRANCH   1   2
BRANCH   1   4
HETATM    4  N1  UNL     1      44.105  17.818  51.380  1.00  0.00    -0.315 NA
BRANCH   4   5
HETATM    5  N2  UNL     1      43.312  16.887  51.541  1.00  0.00    -0.278 N 
ATOM      6  H22 UNL     1      43.895  16.389  52.214  1.00  0.00     0.191 HD
ATOM      7  H21 UNL     1      42.493  16.283  51.469  1.00  0.00     0.191 HD
ENDBRANCH   4   5
ENDBRANCH   1   4
BRANCH   1   8
HETATM    8  N3  UNL     1      45.670  19.000  50.226  1.00  0.00    -0.359 N 
ATOM      9  H3  UNL     1      46.563  18.636  49.895  1.00  0.00     0.162 HD
BRANCH   8  10
HETATM   10  C4  UNL     1      44.952  19.975  49.457  1.00  0.00     0.084 A 
HETATM   11  C5  UNL     1      45.593  21.328  49.322  1.00  0.00     0.027 A 
HETATM   12  C6  UNL     1      44.324  21.159  50.082  1.00  0.00     0.027 A 
ENDBRANCH   8  10
ENDBRANCH   1   8
TORSDOF 5
ENDMDL
MODEL 2
REMARK VINA RESULT: -4.698815748      0.771      1.016
REMARK  5 active torsions:
REMARK  status: ('A' for Active; 'I' for Inactive)
REMARK    1  A    between atoms: C2_2  and  C3_3 
REMARK    2  A    between atoms: C3_3  and  N1_4 
REMARK    3  A    between atoms: C3_3  and  N3_8 
REMARK    4  A    between atoms: N1_4  and  N2_5 
REMARK    5  A    between atoms: N3_8  and  C4_10 
ROOT
HETATM    1  C3  UNL     1      44.705  18.564  51.537  1.00  0.00     0.198 C 
ENDROOT
BRANCH   1   2
HETATM    2  C2  UNL     1      45.687  18.824  52.566  1.00  0.00     0.055 C 
HETATM    3  C1  UNL     1      45.739  18.088  53.657  1.00  0.00     0.016 C 
ENDBRANCH   1   2
BRANCH   1   4
HETATM    4  N1  UNL     1      44.065  17.482  51.521  1.00  0.00    -0.315 NA
BRANCH   4   5
HETATM    5  N2  UNL     1      43.154  16.653  51.578  1.00  0.00    -0.278 N 
ATOM      6  H22 UNL     1      43.276  16.321  50.621  1.00  0.00     0.191 HD
ATOM      7  H21 UNL     1      42.378  16.081  51.911  1.00  0.00     0.191 HD
ENDBRANCH   4   5
ENDBRANCH   1   4
BRANCH   1   8
HETATM    8  N3  UNL     1      44.413  19.490  50.509  1.00  0.00    -0.359 N 
ATOM      9  H3  UNL     1      43.914  19.191  49.671  1.00  0.00     0.162 HD
BRANCH   8  10
HETATM   10  C4  UNL     1      44.827  20.855  50.661  1.00  0.00     0.084 A 
HETATM   11  C5  UNL     1      44.087  21.876  49.843  1.00  0.00     0.027 A 
HETATM   12  C6  UNL     1      45.523  21.587  49.581  1.00  0.00     0.027 A 
ENDBRANCH   8  10
ENDBRANCH   1   8
TORSDOF 5
ENDMDL
MODEL 3
REMARK VINA RESULT: -4.273101255      2.613      3.205
REMARK  5 active torsions:
REMARK  status: ('A' for Active; 'I' for Inactive)
REMARK    1  A    between atoms: C2_2  and  C3_3 
REMARK    2  A    between atoms: C3_3  and  N1_4 
REMARK    3  A    between atoms: C3_3  and  N3_8 
REMARK    4  A    between atoms: N1_4  and  N2_5 
REMARK    5  A    between atoms: N3_8  and  C4_10 
ROOT
HETATM    1  C3  UNL     1      45.709  19.490  52.228  1.00  0.00     0.198 C 
ENDROOT
BRANCH   1   2
HETATM    2  C2  UNL     1      45.546  19.671  50.802  1.00  0.00     0.055 C 
HETATM    3  C1  UNL     1      44.348  19.778  50.264  1.00  0.00     0.016 C 
ENDBRANCH   1   2
BRANCH   1   4
HETATM    4  N1  UNL     1      45.542  18.360  52.753  1.00  0.00    -0.315 NA
BRANCH   4   5
HETATM    5  N2  UNL     1      45.651  17.163  53.027  1.00  0.00    -0.278 N 
ATOM      6  H22 UNL     1      46.372  17.298  53.735  1.00  0.00     0.191 HD
ATOM      7  H21 UNL     1      45.521  16.151  53.036  1.00  0.00     0.191 HD
ENDBRANCH   4   5
ENDBRANCH   1   4
BRANCH   1   8
HETATM    8  N3  UNL     1      46.056  20.550  53.097  1.00  0.00    -0.359 N 
ATOM      9  H3  UNL     1      46.177  20.380  54.095  1.00  0.00     0.162 HD
BRANCH   8  10
HETATM   10  C4  UNL     1      46.235  21.866  52.556  1.00  0.00     0.084 A 
HETATM   11  C5  UNL     1      46.388  22.985  53.548  1.00  0.00     0.027 A 
HETATM   12  C6  UNL     1      45.192  22.907  52.667  1.00  0.00     0.027 A 
ENDBRANCH   8  10
ENDBRANCH   1   8
TORSDOF 5
ENDMDL
MODEL 4
REMARK VINA RESULT: -4.174140775      2.228      3.039
REMARK  5 active torsions:
REMARK  status: ('A' for Active; 'I' for Inactive)
REMARK    1  A    between atoms: C2_2  and  C3_3 
REMARK    2  A    between atoms: C3_3  and  N1_4 
REMARK    3  A    between atoms: C3_3  and  N3_8 
REMARK    4  A    between atoms: N1_4  and  N2_5 
REMARK    5  A    between atoms: N3_8  and  C4_10 
ROOT
HETATM    1  C3  UNL     1      45.307  19.274  51.628  1.00  0.00     0.198 C 
ENDROOT
BRANCH   1   2
HETATM    2  C2  UNL     1      44.981  19.291  50.219  1.00  0.00     0.055 C 
HETATM    3  C1  UNL     1      44.095  20.139  49.737  1.00  0.00     0.016 C 
ENDBRANCH   1   2
BRANCH   1   4
HETATM    4  N1  UNL     1      45.329  18.192  52.267  1.00  0.00    -0.315 NA
BRANCH   4   5
HETATM    5  N2  UNL     1      45.697  17.249  52.972  1.00  0.00    -0.278 N 
ATOM      6  H22 UNL     1      44.997  17.401  53.697  1.00  0.00     0.191 HD
ATOM      7  H21 UNL     1      46.206  16.439  53.324  1.00  0.00     0.191 HD
ENDBRANCH   4   5
ENDBRANCH   1   4
BRANCH   1   8
HETATM    8  N3  UNL     1      45.611  20.449  52.354  1.00  0.00    -0.359 N 
ATOM      9  H3  UNL     1      44.975  20.789  53.076  1.00  0.00     0.162 HD
BRANCH   8  10
HETATM   10  C4  UNL     1      46.825  21.155  52.063  1.00  0.00     0.084 A 
HETATM   11  C5  UNL     1      46.987  22.504  52.706  1.00  0.00     0.027 A 
HETATM   12  C6  UNL     1      46.840  22.377  51.231  1.00  0.00     0.027 A 
ENDBRANCH   8  10
ENDBRANCH   1   8
TORSDOF 5
ENDMDL
MODEL 5
REMARK VINA RESULT: -4.132206488      2.697      3.258
REMARK  5 active torsions:
REMARK  status: ('A' for Active; 'I' for Inactive)
REMARK    1  A    between atoms: C2_2  and  C3_3 
REMARK    2  A    between atoms: C3_3  and  N1_4 
REMARK    3  A    between atoms: C3_3  and  N3_8 
REMARK    4  A    between atoms: N1_4  and  N2_5 
REMARK    5  A    between atoms: N3_8  and  C4_10 
ROOT
HETATM    1  C3  UNL     1      45.757  19.147  52.583  1.00  0.00     0.198 C 
ENDROOT
BRANCH   1   2
HETATM    2  C2  UNL     1      45.050  18.734  51.391  1.00  0.00     0.055 C 
HETATM    3  C1  UNL     1      45.479  19.079  50.194  1.00  0.00     0.016 C 
ENDBRANCH   1   2
BRANCH   1   4
HETATM    4  N1  UNL     1      45.756  18.424  53.611  1.00  0.00    -0.315 NA
BRANCH   4   5
HETATM    5  N2  UNL     1      46.017  17.959  54.723  1.00  0.00    -0.278 N 
ATOM      6  H22 UNL     1      46.164  18.866  55.166  1.00  0.00     0.191 HD
ATOM      7  H21 UNL     1      46.184  17.310  55.492  1.00  0.00     0.191 HD
ENDBRANCH   4   5
ENDBRANCH   1   4
BRANCH   1   8
HETATM    8  N3  UNL     1      46.475  20.363  52.662  1.00  0.00    -0.359 N 
ATOM      9  H3  UNL     1      47.488  20.373  52.542  1.00  0.00     0.162 HD
BRANCH   8  10
HETATM   10  C4  UNL     1      45.759  21.580  52.913  1.00  0.00     0.084 A 
HETATM   11  C5  UNL     1      46.033  22.724  51.977  1.00  0.00     0.027 A 
HETATM   12  C6  UNL     1      46.435  22.799  53.407  1.00  0.00     0.027 A 
ENDBRANCH   8  10
ENDBRANCH   1   8
TORSDOF 5
ENDMDL
