MODEL 1
REMARK VINA RESULT: -4.696350532      0.000      0.000
REMARK  5 active torsions:
REMARK  status: ('A' for Active; 'I' for Inactive)
REMARK    1  A    between atoms: C2_2  and  C3_3 
REMARK    2  A    between atoms: C3_3  and  N1_4 
REMARK    3  A    between atoms: C5_6  and  N2_7 
REMARK    4  A    between atoms: N2_7  and  N3_9 
REMARK    5  A    between atoms: N3_9  and  N4_10 
ROOT
HETATM    1  N1  UNL     1     137.632 123.934  86.229  1.00  0.00     0.096 N 
HETATM    2  C4  UNL     1     137.828 122.654  85.604  1.00  0.00     0.302 C 
HETATM    3  C5  UNL     1     138.778 123.320  84.633  1.00  0.00     0.171 C 
HETATM    4  C6  UNL     1     138.945 124.329  85.778  1.00  0.00     0.302 C 
ENDROOT
BRANCH   3   5
HETATM    5  N2  UNL     1     138.119 123.952  83.537  1.00  0.00    -0.244 N 
ATOM      6  H2  UNL     1     137.175 124.316  83.672  1.00  0.00     0.197 HD
BRANCH   5   7
HETATM    7  N3  UNL     1     138.642 124.071  82.447  1.00  0.00    -0.248 NA
BRANCH   7   8
HETATM    8  N4  UNL     1     139.079 124.390  81.356  1.00  0.00    -0.261 N 
ATOM      9  H42 UNL     1     138.128 124.611  81.063  1.00  0.00     0.193 HD
ATOM     10  H41 UNL     1     139.608 124.612  80.513  1.00  0.00     0.193 HD
ENDBRANCH   7   8
ENDBRANCH   5   7
ENDBRANCH   3   5
BRANCH   1  11
HETATM   11  C3  UNL     1     137.427 123.939  87.645  1.00  0.00     0.299 C 
BRANCH  11  12
HETATM   12  C2  UNL     1     137.907 125.280  88.146  1.00  0.00    -0.007 C 
HETATM   13  C1  UNL     1     138.603 125.358  89.266  1.00  0.00     0.008 C 
ENDBRANCH  11  12
ENDBRANCH   1  11
TORSDOF 5
ENDMDL
MODEL 2
REMARK VINA RESULT: -4.626656557      2.039      2.558
REMARK  5 active torsions:
REMARK  status: ('A' for Active; 'I' for Inactive)
REMARK    1  A    between atoms: C2_2  and  C3_3 
REMARK    2  A    between atoms: C3_3  and  N1_4 
REMARK    3  A    between atoms: C5_6  and  N2_7 
REMARK    4  A    between atoms: N2_7  and  N3_9 
REMARK    5  A    between atoms: N3_9  and  N4_10 
ROOT
HETATM    1  N1  UNL     1     138.425 124.282  85.608  1.00  0.00     0.096 N 
HETATM    2  C4  UNL     1     138.585 122.914  86.019  1.00  0.00     0.302 C 
HETATM    3  C5  UNL     1     138.226 122.493  84.611  1.00  0.00     0.171 C 
HETATM    4  C6  UNL     1     138.753 123.891  84.258  1.00  0.00     0.302 C 
ENDROOT
BRANCH   3   5
HETATM    5  N2  UNL     1     136.820 122.442  84.375  1.00  0.00    -0.244 N 
ATOM      6  H2  UNL     1     136.255 123.267  84.579  1.00  0.00     0.197 HD
BRANCH   5   7
HETATM    7  N3  UNL     1     136.272 121.450  83.939  1.00  0.00    -0.248 NA
BRANCH   7   8
HETATM    8  N4  UNL     1     135.608 120.596  83.380  1.00  0.00    -0.261 N 
ATOM      9  H42 UNL     1     135.560 120.085  84.261  1.00  0.00     0.193 HD
ATOM     10  H41 UNL     1     135.071 119.986  82.763  1.00  0.00     0.193 HD
ENDBRANCH   7   8
ENDBRANCH   5   7
ENDBRANCH   3   5
BRANCH   1  11
HETATM   11  C3  UNL     1     139.295 125.246  86.211  1.00  0.00     0.299 C 
BRANCH  11  12
HETATM   12  C2  UNL     1     138.447 126.059  87.160  1.00  0.00    -0.007 C 
HETATM   13  C1  UNL     1     138.332 125.694  88.424  1.00  0.00     0.008 C 
ENDBRANCH  11  12
ENDBRANCH   1  11
TORSDOF 5
ENDMDL
MODEL 3
REMARK VINA RESULT: -4.424784314      2.335      2.870
REMARK  5 active torsions:
REMARK  status: ('A' for Active; 'I' for Inactive)
REMARK    1  A    between atoms: C2_2  and  C3_3 
REMARK    2  A    between atoms: C3_3  and  N1_4 
REMARK    3  A    between atoms: C5_6  and  N2_7 
REMARK    4  A    between atoms: N2_7  and  N3_9 
REMARK    5  A    between atoms: N3_9  and  N4_10 
ROOT
HETATM    1  N1  UNL     1     138.641 122.800  85.397  1.00  0.00     0.096 N 
HETATM    2  C4  UNL     1     138.512 123.370  84.084  1.00  0.00     0.302 C 
HETATM    3  C5  UNL     1     137.286 122.508  83.876  1.00  0.00     0.171 C 
HETATM    4  C6  UNL     1     137.217 122.562  85.409  1.00  0.00     0.302 C 
ENDROOT
BRANCH   3   5
HETATM    5  N2  UNL     1     137.590 121.178  83.461  1.00  0.00    -0.244 N 
ATOM      6  H2  UNL     1     138.430 120.727  83.827  1.00  0.00     0.197 HD
BRANCH   5   7
HETATM    7  N3  UNL     1     136.885 120.563  82.687  1.00  0.00    -0.248 NA
BRANCH   7   8
HETATM    8  N4  UNL     1     136.117 120.144  81.840  1.00  0.00    -0.261 N 
ATOM      9  H42 UNL     1     135.496 120.926  82.045  1.00  0.00     0.193 HD
ATOM     10  H41 UNL     1     135.597 119.660  81.108  1.00  0.00     0.193 HD
ENDBRANCH   7   8
ENDBRANCH   5   7
ENDBRANCH   3   5
BRANCH   1  11
HETATM   11  C3  UNL     1     139.142 123.656  86.429  1.00  0.00     0.299 C 
BRANCH  11  12
HETATM   12  C2  UNL     1     138.814 125.070  86.014  1.00  0.00    -0.007 C 
HETATM   13  C1  UNL     1     138.762 126.031  86.919  1.00  0.00     0.008 C 
ENDBRANCH  11  12
ENDBRANCH   1  11
TORSDOF 5
ENDMDL
MODEL 4
REMARK VINA RESULT: -4.375690099      1.985      2.334
REMARK  5 active torsions:
REMARK  status: ('A' for Active; 'I' for Inactive)
REMARK    1  A    between atoms: C2_2  and  C3_3 
REMARK    2  A    between atoms: C3_3  and  N1_4 
REMARK    3  A    between atoms: C5_6  and  N2_7 
REMARK    4  A    between atoms: N2_7  and  N3_9 
REMARK    5  A    between atoms: N3_9  and  N4_10 
ROOT
HETATM    1  N1  UNL     1     138.177 123.525  85.452  1.00  0.00     0.096 N 
HETATM    2  C4  UNL     1     137.176 122.532  85.730  1.00  0.00     0.302 C 
HETATM    3  C5  UNL     1     137.795 121.668  84.652  1.00  0.00     0.171 C 
HETATM    4  C6  UNL     1     139.055 122.478  84.988  1.00  0.00     0.302 C 
ENDROOT
BRANCH   3   5
HETATM    5  N2  UNL     1     137.354 121.999  83.336  1.00  0.00    -0.244 N 
ATOM      6  H2  UNL     1     137.370 122.976  83.043  1.00  0.00     0.197 HD
BRANCH   5   7
HETATM    7  N3  UNL     1     136.961 121.158  82.554  1.00  0.00    -0.248 NA
BRANCH   7   8
HETATM    8  N4  UNL     1     136.372 120.348  81.860  1.00  0.00    -0.261 N 
ATOM      9  H42 UNL     1     136.847 120.732  81.044  1.00  0.00     0.193 HD
ATOM     10  H41 UNL     1     135.803 119.616  81.437  1.00  0.00     0.193 HD
ENDBRANCH   7   8
ENDBRANCH   5   7
ENDBRANCH   3   5
BRANCH   1  11
HETATM   11  C3  UNL     1     138.651 124.294  86.563  1.00  0.00     0.299 C 
BRANCH  11  12
HETATM   12  C2  UNL     1     137.535 124.318  87.579  1.00  0.00    -0.007 C 
HETATM   13  C1  UNL     1     137.780 124.687  88.824  1.00  0.00     0.008 C 
ENDBRANCH  11  12
ENDBRANCH   1  11
TORSDOF 5
ENDMDL
MODEL 5
REMARK VINA RESULT: -4.132172334      2.212      4.914
REMARK  5 active torsions:
REMARK  status: ('A' for Active; 'I' for Inactive)
REMARK    1  A    between atoms: C2_2  and  C3_3 
REMARK    2  A    between atoms: C3_3  and  N1_4 
REMARK    3  A    between atoms: C5_6  and  N2_7 
REMARK    4  A    between atoms: N2_7  and  N3_9 
REMARK    5  A    between atoms: N3_9  and  N4_10 
ROOT
HETATM    1  N1  UNL     1     137.753 123.214  83.972  1.00  0.00     0.096 N 
HETATM    2  C4  UNL     1     138.924 124.000  84.251  1.00  0.00     0.302 C 
HETATM    3  C5  UNL     1     138.744 123.671  85.717  1.00  0.00     0.171 C 
HETATM    4  C6  UNL     1     138.020 122.438  85.159  1.00  0.00     0.302 C 
ENDROOT
BRANCH   3   5
HETATM    5  N2  UNL     1     137.803 124.516  86.377  1.00  0.00    -0.244 N 
ATOM      6  H2  UNL     1     136.815 124.263  86.358  1.00  0.00     0.197 HD
BRANCH   5   7
HETATM    7  N3  UNL     1     138.138 125.527  86.961  1.00  0.00    -0.248 NA
BRANCH   7   8
HETATM    8  N4  UNL     1     138.268 126.604  87.514  1.00  0.00    -0.261 N 
ATOM      9  H42 UNL     1     138.434 126.112  88.391  1.00  0.00     0.193 HD
ATOM     10  H41 UNL     1     138.344 127.577  87.812  1.00  0.00     0.193 HD
ENDBRANCH   7   8
ENDBRANCH   5   7
ENDBRANCH   3   5
BRANCH   1  11
HETATM   11  C3  UNL     1     137.739 122.488  82.739  1.00  0.00     0.299 C 
BRANCH  11  12
HETATM   12  C2  UNL     1     137.108 121.149  83.033  1.00  0.00    -0.007 C 
HETATM   13  C1  UNL     1     136.510 120.472  82.068  1.00  0.00     0.008 C 
ENDBRANCH  11  12
ENDBRANCH   1  11
TORSDOF 5
ENDMDL
