MODEL 1
REMARK VINA RESULT: -8.204067104      0.000      0.000
REMARK  11 active torsions:
REMARK  status: ('A' for Active; 'I' for Inactive)
REMARK    1  A    between atoms: C2_2  and  C4_4 
REMARK    2  A    between atoms: C4_4  and  C5_5 
REMARK    3  A    between atoms: C5_5  and  C6_6 
REMARK    4  A    between atoms: C12_15  and  O4_16 
REMARK    5  A    between atoms: C12_15  and  C13_18 
REMARK    6  A    between atoms: C13_18  and  C14_19 
REMARK    7  A    between atoms: C14_19  and  C15_20 
REMARK    8  A    between atoms: C17_22  and  C18_23 
REMARK    9  A    between atoms: C19_24  and  C20_25 
REMARK   10  A    between atoms: C21_26  and  C23_28 
REMARK   11  A    between atoms: C23_28  and  O5_29 
ROOT
HETATM    1  C6  UNL     1      51.670  59.298  47.144  1.00  0.00     0.074 C 
HETATM    2  C7  UNL     1      52.349  58.569  48.289  1.00  0.00     0.029 C 
HETATM    3  C8  UNL     1      52.485  60.507  46.810  1.00  0.00     0.153 C 
HETATM    4  O1  UNL     1      53.133  61.010  47.703  1.00  0.00    -0.296 OA
HETATM    5  C9  UNL     1      52.543  61.118  45.460  1.00  0.00     0.152 C 
HETATM    6  C10 UNL     1      53.951  61.320  44.947  1.00  0.00     0.029 C 
HETATM    7  C11 UNL     1      51.769  60.329  44.474  1.00  0.00     0.272 C 
HETATM    8  O2  UNL     1      51.835  60.624  43.270  1.00  0.00    -0.264 OA
HETATM    9  O3  UNL     1      50.994  59.286  44.912  1.00  0.00    -0.282 OA
HETATM   10  C12 UNL     1      51.496  58.417  45.982  1.00  0.00     0.185 C 
ENDROOT
BRANCH  10  11
HETATM   11  O4  UNL     1      50.372  57.555  46.189  1.00  0.00    -0.364 OA
ATOM     12  H4  UNL     1      50.288  56.954  45.459  1.00  0.00     0.213 HD
ENDBRANCH  10  11
BRANCH  10  13
HETATM   13  C13 UNL     1      52.579  57.623  45.405  1.00  0.00     0.074 C 
BRANCH  13  14
HETATM   14  C14 UNL     1      52.317  56.278  44.817  1.00  0.00     0.039 C 
BRANCH  14  15
HETATM   15  C15 UNL     1      52.540  56.349  43.331  1.00  0.00    -0.084 C 
HETATM   16  C16 UNL     1      53.777  55.848  42.684  1.00  0.00     0.043 C 
HETATM   17  C17 UNL     1      51.571  56.885  42.600  1.00  0.00     0.002 C 
BRANCH  17  18
HETATM   18  C18 UNL     1      51.685  57.002  41.152  1.00  0.00     0.000 C 
HETATM   19  C19 UNL     1      50.701  56.768  40.322  1.00  0.00     0.000 C 
BRANCH  19  20
HETATM   20  C20 UNL     1      49.357  56.364  40.669  1.00  0.00     0.004 C 
HETATM   21  C21 UNL     1      48.250  56.854  40.185  1.00  0.00    -0.061 C 
HETATM   22  C22 UNL     1      48.145  57.933  39.175  1.00  0.00     0.045 C 
BRANCH  21  23
HETATM   23  C23 UNL     1      46.927  56.301  40.671  1.00  0.00     0.198 C 
BRANCH  23  24
HETATM   24  O5  UNL     1      46.892  54.958  40.281  1.00  0.00    -0.397 OA
ATOM     25  H5  UNL     1      46.893  54.445  41.080  1.00  0.00     0.209 HD
ENDBRANCH  23  24
ENDBRANCH  21  23
ENDBRANCH  19  20
ENDBRANCH  17  18
ENDBRANCH  14  15
ENDBRANCH  13  14
ENDBRANCH  10  13
BRANCH   1  26
HETATM   26  C5  UNL     1      50.334  59.710  47.758  1.00  0.00     0.027 C 
BRANCH  26  27
HETATM   27  C4  UNL     1      50.266  59.817  49.223  1.00  0.00     0.034 C 
BRANCH  27  28
HETATM   28  C2  UNL     1      50.079  61.275  49.619  1.00  0.00    -0.093 C 
HETATM   29  C1  UNL     1      48.989  61.948  49.286  1.00  0.00     0.014 C 
HETATM   30  C3  UNL     1      51.133  61.979  50.401  1.00  0.00     0.042 C 
ENDBRANCH  27  28
ENDBRANCH  26  27
ENDBRANCH   1  26
TORSDOF 11
ENDMDL
MODEL 2
REMARK VINA RESULT: -7.950242303      2.342      8.004
REMARK  11 active torsions:
REMARK  status: ('A' for Active; 'I' for Inactive)
REMARK    1  A    between atoms: C2_2  and  C4_4 
REMARK    2  A    between atoms: C4_4  and  C5_5 
REMARK    3  A    between atoms: C5_5  and  C6_6 
REMARK    4  A    between atoms: C12_15  and  O4_16 
REMARK    5  A    between atoms: C12_15  and  C13_18 
REMARK    6  A    between atoms: C13_18  and  C14_19 
REMARK    7  A    between atoms: C14_19  and  C15_20 
REMARK    8  A    between atoms: C17_22  and  C18_23 
REMARK    9  A    between atoms: C19_24  and  C20_25 
REMARK   10  A    between atoms: C21_26  and  C23_28 
REMARK   11  A    between atoms: C23_28  and  O5_29 
ROOT
HETATM    1  C6  UNL     1      52.517  57.095  41.717  1.00  0.00     0.074 C 
HETATM    2  C7  UNL     1      53.056  56.685  43.075  1.00  0.00     0.029 C 
HETATM    3  C8  UNL     1      51.374  56.192  41.375  1.00  0.00     0.153 C 
HETATM    4  O1  UNL     1      51.388  55.071  41.839  1.00  0.00    -0.296 OA
HETATM    5  C9  UNL     1      50.239  56.587  40.508  1.00  0.00     0.152 C 
HETATM    6  C10 UNL     1      48.885  56.333  41.132  1.00  0.00     0.029 C 
HETATM    7  C11 UNL     1      50.334  58.008  40.104  1.00  0.00     0.272 C 
HETATM    8  O2  UNL     1      49.388  58.536  39.497  1.00  0.00    -0.264 OA
HETATM    9  O3  UNL     1      51.469  58.716  40.407  1.00  0.00    -0.282 OA
HETATM   10  C12 UNL     1      52.120  58.508  41.706  1.00  0.00     0.185 C 
ENDROOT
BRANCH  10  11
HETATM   11  O4  UNL     1      53.277  59.338  41.572  1.00  0.00    -0.364 OA
ATOM     12  H4  UNL     1      53.018  60.215  41.317  1.00  0.00     0.213 HD
ENDBRANCH  10  11
BRANCH  10  13
HETATM   13  C13 UNL     1      51.245  59.105  42.714  1.00  0.00     0.074 C 
BRANCH  13  14
HETATM   14  C14 UNL     1      51.473  60.496  43.202  1.00  0.00     0.039 C 
BRANCH  14  15
HETATM   15  C15 UNL     1      52.305  60.438  44.454  1.00  0.00    -0.084 C 
HETATM   16  C16 UNL     1      53.401  61.398  44.731  1.00  0.00     0.043 C 
HETATM   17  C17 UNL     1      52.020  59.478  45.324  1.00  0.00     0.002 C 
BRANCH  17  18
HETATM   18  C18 UNL     1      52.765  59.331  46.568  1.00  0.00     0.000 C 
HETATM   19  C19 UNL     1      52.333  59.750  47.730  1.00  0.00     0.000 C 
BRANCH  19  20
HETATM   20  C20 UNL     1      51.077  60.415  47.994  1.00  0.00     0.004 C 
HETATM   21  C21 UNL     1      50.894  61.450  48.767  1.00  0.00    -0.061 C 
HETATM   22  C22 UNL     1      51.945  62.159  49.535  1.00  0.00     0.045 C 
BRANCH  21  23
HETATM   23  C23 UNL     1      49.498  62.013  48.924  1.00  0.00     0.198 C 
BRANCH  23  24
HETATM   24  O5  UNL     1      48.742  61.025  49.563  1.00  0.00    -0.397 OA
ATOM     25  H5  UNL     1      48.004  60.840  48.994  1.00  0.00     0.209 HD
ENDBRANCH  23  24
ENDBRANCH  21  23
ENDBRANCH  19  20
ENDBRANCH  17  18
ENDBRANCH  14  15
ENDBRANCH  13  14
ENDBRANCH  10  13
BRANCH   1  26
HETATM   26  C5  UNL     1      53.703  56.824  40.793  1.00  0.00     0.027 C 
BRANCH  26  27
HETATM   27  C4  UNL     1      54.790  55.985  41.317  1.00  0.00     0.034 C 
BRANCH  27  28
HETATM   28  C2  UNL     1      56.133  56.594  40.935  1.00  0.00    -0.093 C 
HETATM   29  C1  UNL     1      57.269  56.133  41.436  1.00  0.00     0.014 C 
HETATM   30  C3  UNL     1      56.194  57.732  39.978  1.00  0.00     0.042 C 
ENDBRANCH  27  28
ENDBRANCH  26  27
ENDBRANCH   1  26
TORSDOF 11
ENDMDL
MODEL 3
REMARK VINA RESULT: -7.940822891      1.571      2.034
REMARK  11 active torsions:
REMARK  status: ('A' for Active; 'I' for Inactive)
REMARK    1  A    between atoms: C2_2  and  C4_4 
REMARK    2  A    between atoms: C4_4  and  C5_5 
REMARK    3  A    between atoms: C5_5  and  C6_6 
REMARK    4  A    between atoms: C12_15  and  O4_16 
REMARK    5  A    between atoms: C12_15  and  C13_18 
REMARK    6  A    between atoms: C13_18  and  C14_19 
REMARK    7  A    between atoms: C14_19  and  C15_20 
REMARK    8  A    between atoms: C17_22  and  C18_23 
REMARK    9  A    between atoms: C19_24  and  C20_25 
REMARK   10  A    between atoms: C21_26  and  C23_28 
REMARK   11  A    between atoms: C23_28  and  O5_29 
ROOT
HETATM    1  C6  UNL     1      51.531  59.168  47.479  1.00  0.00     0.074 C 
HETATM    2  C7  UNL     1      52.156  58.615  48.747  1.00  0.00     0.029 C 
HETATM    3  C8  UNL     1      52.268  60.413  47.098  1.00  0.00     0.153 C 
HETATM    4  O1  UNL     1      52.781  61.054  47.991  1.00  0.00    -0.296 OA
HETATM    5  C9  UNL     1      52.403  60.901  45.705  1.00  0.00     0.152 C 
HETATM    6  C10 UNL     1      53.832  61.187  45.301  1.00  0.00     0.029 C 
HETATM    7  C11 UNL     1      51.799  59.955  44.739  1.00  0.00     0.272 C 
HETATM    8  O2  UNL     1      51.955  60.143  43.521  1.00  0.00    -0.264 OA
HETATM    9  O3  UNL     1      51.077  58.888  45.208  1.00  0.00    -0.282 OA
HETATM   10  C12 UNL     1      51.546  58.172  46.401  1.00  0.00     0.185 C 
ENDROOT
BRANCH  10  11
HETATM   11  O4  UNL     1      50.485  57.230  46.593  1.00  0.00    -0.364 OA
ATOM     12  H4  UNL     1      49.967  57.162  45.800  1.00  0.00     0.213 HD
ENDBRANCH  10  11
BRANCH  10  13
HETATM   13  C13 UNL     1      52.743  57.435  46.004  1.00  0.00     0.074 C 
BRANCH  13  14
HETATM   14  C14 UNL     1      52.721  55.949  45.866  1.00  0.00     0.039 C 
BRANCH  14  15
HETATM   15  C15 UNL     1      53.343  55.578  44.547  1.00  0.00    -0.084 C 
HETATM   16  C16 UNL     1      54.242  54.409  44.388  1.00  0.00     0.043 C 
HETATM   17  C17 UNL     1      53.052  56.346  43.505  1.00  0.00     0.002 C 
BRANCH  17  18
HETATM   18  C18 UNL     1      53.600  56.075  42.182  1.00  0.00     0.000 C 
HETATM   19  C19 UNL     1      53.168  56.640  41.085  1.00  0.00     0.000 C 
BRANCH  19  20
HETATM   20  C20 UNL     1      52.102  57.610  40.976  1.00  0.00     0.004 C 
HETATM   21  C21 UNL     1      50.842  57.356  40.753  1.00  0.00    -0.061 C 
HETATM   22  C22 UNL     1      50.246  56.012  40.565  1.00  0.00     0.045 C 
BRANCH  21  23
HETATM   23  C23 UNL     1      49.863  58.507  40.671  1.00  0.00     0.198 C 
BRANCH  23  24
HETATM   24  O5  UNL     1      50.560  59.650  41.077  1.00  0.00    -0.397 OA
ATOM     25  H5  UNL     1      50.096  59.994  41.831  1.00  0.00     0.209 HD
ENDBRANCH  23  24
ENDBRANCH  21  23
ENDBRANCH  19  20
ENDBRANCH  17  18
ENDBRANCH  14  15
ENDBRANCH  13  14
ENDBRANCH  10  13
BRANCH   1  26
HETATM   26  C5  UNL     1      50.111  59.507  47.929  1.00  0.00     0.027 C 
BRANCH  26  27
HETATM   27  C4  UNL     1      49.846  59.525  49.375  1.00  0.00     0.034 C 
BRANCH  27  28
HETATM   28  C2  UNL     1      49.880  60.961  49.881  1.00  0.00    -0.093 C 
HETATM   29  C1  UNL     1      50.672  61.323  50.878  1.00  0.00     0.014 C 
HETATM   30  C3  UNL     1      49.012  61.995  49.256  1.00  0.00     0.042 C 
ENDBRANCH  27  28
ENDBRANCH  26  27
ENDBRANCH   1  26
TORSDOF 11
ENDMDL
MODEL 4
REMARK VINA RESULT: -7.848471481      2.469      8.231
REMARK  11 active torsions:
REMARK  status: ('A' for Active; 'I' for Inactive)
REMARK    1  A    between atoms: C2_2  and  C4_4 
REMARK    2  A    between atoms: C4_4  and  C5_5 
REMARK    3  A    between atoms: C5_5  and  C6_6 
REMARK    4  A    between atoms: C12_15  and  O4_16 
REMARK    5  A    between atoms: C12_15  and  C13_18 
REMARK    6  A    between atoms: C13_18  and  C14_19 
REMARK    7  A    between atoms: C14_19  and  C15_20 
REMARK    8  A    between atoms: C17_22  and  C18_23 
REMARK    9  A    between atoms: C19_24  and  C20_25 
REMARK   10  A    between atoms: C21_26  and  C23_28 
REMARK   11  A    between atoms: C23_28  and  O5_29 
ROOT
HETATM    1  C6  UNL     1      52.415  57.362  41.093  1.00  0.00     0.074 C 
HETATM    2  C7  UNL     1      53.452  56.676  41.964  1.00  0.00     0.029 C 
HETATM    3  C8  UNL     1      51.435  56.330  40.631  1.00  0.00     0.153 C 
HETATM    4  O1  UNL     1      51.833  55.191  40.519  1.00  0.00    -0.296 OA
HETATM    5  C9  UNL     1      50.018  56.623  40.307  1.00  0.00     0.152 C 
HETATM    6  C10 UNL     1      49.036  55.722  41.021  1.00  0.00     0.029 C 
HETATM    7  C11 UNL     1      49.679  58.037  40.585  1.00  0.00     0.272 C 
HETATM    8  O2  UNL     1      48.497  58.409  40.505  1.00  0.00    -0.264 OA
HETATM    9  O3  UNL     1      50.679  58.911  40.926  1.00  0.00    -0.282 OA
HETATM   10  C12 UNL     1      51.757  58.459  41.814  1.00  0.00     0.185 C 
ENDROOT
BRANCH  10  11
HETATM   11  O4  UNL     1      52.606  59.611  41.827  1.00  0.00    -0.364 OA
ATOM     12  H4  UNL     1      52.079  60.400  41.796  1.00  0.00     0.213 HD
ENDBRANCH  10  11
BRANCH  10  13
HETATM   13  C13 UNL     1      51.170  58.309  43.143  1.00  0.00     0.074 C 
BRANCH  13  14
HETATM   14  C14 UNL     1      51.763  58.997  44.327  1.00  0.00     0.039 C 
BRANCH  14  15
HETATM   15  C15 UNL     1      51.326  58.277  45.573  1.00  0.00    -0.084 C 
HETATM   16  C16 UNL     1      51.901  56.975  45.988  1.00  0.00     0.043 C 
HETATM   17  C17 UNL     1      50.386  58.859  46.308  1.00  0.00     0.002 C 
BRANCH  17  18
HETATM   18  C18 UNL     1      49.890  58.248  47.534  1.00  0.00     0.000 C 
HETATM   19  C19 UNL     1      50.124  58.721  48.731  1.00  0.00     0.000 C 
BRANCH  19  20
HETATM   20  C20 UNL     1      50.892  59.901  49.057  1.00  0.00     0.004 C 
HETATM   21  C21 UNL     1      50.416  61.082  49.342  1.00  0.00    -0.061 C 
HETATM   22  C22 UNL     1      48.982  61.455  49.389  1.00  0.00     0.045 C 
BRANCH  21  23
HETATM   23  C23 UNL     1      51.379  62.206  49.660  1.00  0.00     0.198 C 
BRANCH  23  24
HETATM   24  O5  UNL     1      52.520  61.981  48.882  1.00  0.00    -0.397 OA
ATOM     25  H5  UNL     1      52.277  62.175  47.984  1.00  0.00     0.209 HD
ENDBRANCH  23  24
ENDBRANCH  21  23
ENDBRANCH  19  20
ENDBRANCH  17  18
ENDBRANCH  14  15
ENDBRANCH  13  14
ENDBRANCH  10  13
BRANCH   1  26
HETATM   26  C5  UNL     1      53.250  57.866  39.917  1.00  0.00     0.027 C 
BRANCH  26  27
HETATM   27  C4  UNL     1      54.712  57.773  40.037  1.00  0.00     0.034 C 
BRANCH  27  28
HETATM   28  C2  UNL     1      55.363  58.840  39.166  1.00  0.00    -0.093 C 
HETATM   29  C1  UNL     1      54.831  60.045  39.036  1.00  0.00     0.014 C 
HETATM   30  C3  UNL     1      56.625  58.542  38.436  1.00  0.00     0.042 C 
ENDBRANCH  27  28
ENDBRANCH  26  27
ENDBRANCH   1  26
TORSDOF 11
ENDMDL
MODEL 5
REMARK VINA RESULT: -7.827195511      2.197      2.960
REMARK  11 active torsions:
REMARK  status: ('A' for Active; 'I' for Inactive)
REMARK    1  A    between atoms: C2_2  and  C4_4 
REMARK    2  A    between atoms: C4_4  and  C5_5 
REMARK    3  A    between atoms: C5_5  and  C6_6 
REMARK    4  A    between atoms: C12_15  and  O4_16 
REMARK    5  A    between atoms: C12_15  and  C13_18 
REMARK    6  A    between atoms: C13_18  and  C14_19 
REMARK    7  A    between atoms: C14_19  and  C15_20 
REMARK    8  A    between atoms: C17_22  and  C18_23 
REMARK    9  A    between atoms: C19_24  and  C20_25 
REMARK   10  A    between atoms: C21_26  and  C23_28 
REMARK   11  A    between atoms: C23_28  and  O5_29 
ROOT
HETATM    1  C6  UNL     1      51.613  59.208  47.228  1.00  0.00     0.074 C 
HETATM    2  C7  UNL     1      52.261  58.532  48.422  1.00  0.00     0.029 C 
HETATM    3  C8  UNL     1      52.371  60.463  46.931  1.00  0.00     0.153 C 
HETATM    4  O1  UNL     1      52.928  61.012  47.857  1.00  0.00    -0.296 OA
HETATM    5  C9  UNL     1      52.476  61.065  45.581  1.00  0.00     0.152 C 
HETATM    6  C10 UNL     1      53.898  61.350  45.154  1.00  0.00     0.029 C 
HETATM    7  C11 UNL     1      51.817  60.221  44.558  1.00  0.00     0.272 C 
HETATM    8  O2  UNL     1      51.939  60.510  43.356  1.00  0.00    -0.264 OA
HETATM    9  O3  UNL     1      51.081  59.135  44.958  1.00  0.00    -0.282 OA
HETATM   10  C12 UNL     1      51.567  58.308  46.068  1.00  0.00     0.185 C 
ENDROOT
BRANCH  10  11
HETATM   11  O4  UNL     1      50.488  57.380  46.215  1.00  0.00    -0.364 OA
ATOM     12  H4  UNL     1      49.898  57.452  45.475  1.00  0.00     0.213 HD
ENDBRANCH  10  11
BRANCH  10  13
HETATM   13  C13 UNL     1      52.732  57.579  45.570  1.00  0.00     0.074 C 
BRANCH  13  14
HETATM   14  C14 UNL     1      52.898  56.121  45.839  1.00  0.00     0.039 C 
BRANCH  14  15
HETATM   15  C15 UNL     1      52.980  55.394  44.525  1.00  0.00    -0.084 C 
HETATM   16  C16 UNL     1      51.785  54.846  43.839  1.00  0.00     0.043 C 
HETATM   17  C17 UNL     1      54.184  55.257  43.985  1.00  0.00     0.002 C 
BRANCH  17  18
HETATM   18  C18 UNL     1      54.376  54.569  42.714  1.00  0.00     0.000 C 
HETATM   19  C19 UNL     1      54.516  55.183  41.568  1.00  0.00     0.000 C 
BRANCH  19  20
HETATM   20  C20 UNL     1      54.510  56.611  41.347  1.00  0.00     0.004 C 
HETATM   21  C21 UNL     1      53.503  57.328  40.929  1.00  0.00    -0.061 C 
HETATM   22  C22 UNL     1      52.153  56.818  40.593  1.00  0.00     0.045 C 
BRANCH  21  23
HETATM   23  C23 UNL     1      53.684  58.820  40.756  1.00  0.00     0.198 C 
BRANCH  23  24
HETATM   24  O5  UNL     1      52.402  59.380  40.779  1.00  0.00    -0.397 OA
ATOM     25  H5  UNL     1      52.460  60.166  41.309  1.00  0.00     0.209 HD
ENDBRANCH  23  24
ENDBRANCH  21  23
ENDBRANCH  19  20
ENDBRANCH  17  18
ENDBRANCH  14  15
ENDBRANCH  13  14
ENDBRANCH  10  13
BRANCH   1  26
HETATM   26  C5  UNL     1      50.217  59.541  47.752  1.00  0.00     0.027 C 
BRANCH  26  27
HETATM   27  C4  UNL     1      50.003  59.460  49.204  1.00  0.00     0.034 C 
BRANCH  27  28
HETATM   28  C2  UNL     1      50.000  60.862  49.798  1.00  0.00    -0.093 C 
HETATM   29  C1  UNL     1      50.806  61.192  50.795  1.00  0.00     0.014 C 
HETATM   30  C3  UNL     1      49.080  61.901  49.260  1.00  0.00     0.042 C 
ENDBRANCH  27  28
ENDBRANCH  26  27
ENDBRANCH   1  26
TORSDOF 11
ENDMDL
