MODEL 1
REMARK VINA RESULT: -5.334752004      0.000      0.000
REMARK  11 active torsions:
REMARK  status: ('A' for Active; 'I' for Inactive)
REMARK    1  A    between atoms: O1_2  and  C2_3 
REMARK    2  A    between atoms: C2_3  and  C3_5 
REMARK    3  A    between atoms: C4_9  and  O3_10 
REMARK    4  A    between atoms: C5_12  and  C6_13 
REMARK    5  A    between atoms: C6_13  and  O4_14 
REMARK    6  A    between atoms: C6_13  and  N3_16 
REMARK    7  A    between atoms: N3_16  and  N4_17 
REMARK    8  A    between atoms: N4_17  and  C7_19 
REMARK    9  A    between atoms: C7_19  and  C8_20 
REMARK   10  A    between atoms: C9_23  and  N6_24 
REMARK   11  A    between atoms: C11_31  and  N8_32 
ROOT
HETATM    1  C6  UNL     1      10.709  48.242  -1.497  1.00  0.00     0.269 C 
ENDROOT
BRANCH   1   2
HETATM    2  C5  UNL     1      10.206  48.807  -2.752  1.00  0.00     0.155 A 
HETATM    3  C4  UNL     1       9.024  49.350  -3.168  1.00  0.00     0.197 A 
HETATM    4  N2  UNL     1       9.117  49.815  -4.471  1.00  0.00    -0.207 N 
HETATM    5  N1  UNL     1       8.345  50.389  -5.309  1.00  0.00    -0.278 N 
HETATM    6  C14 UNL     1      10.360  49.548  -4.836  1.00  0.00     0.175 A 
HETATM    7  C3  UNL     1       8.738  50.723  -6.499  1.00  0.00     0.169 A 
ATOM      8  H1  UNL     1       7.385  50.592  -5.032  1.00  0.00     0.188 HD
HETATM    9  S1  UNL     1      10.392  50.160  -6.457  1.00  0.00    -0.027 SA
HETATM   10  N9  UNL     1      11.052  48.948  -3.855  1.00  0.00    -0.327 N 
ATOM     11  H9  UNL     1      12.026  48.648  -3.905  1.00  0.00     0.168 HD
BRANCH   3  12
HETATM   12  O3  UNL     1       7.906  49.396  -2.339  1.00  0.00    -0.343 OA
ATOM     13  H3  UNL     1       7.846  49.798  -1.480  1.00  0.00     0.219 HD
ENDBRANCH   3  12
BRANCH   7  14
HETATM   14  C2  UNL     1       8.124  51.382  -7.655  1.00  0.00     0.318 C 
HETATM   15  O2  UNL     1       8.300  50.924  -8.809  1.00  0.00    -0.257 OA
BRANCH  14  16
HETATM   16  O1  UNL     1       7.366  52.503  -7.458  1.00  0.00    -0.321 OA
HETATM   17  C1  UNL     1       8.042  53.651  -6.934  1.00  0.00     0.213 C 
ENDBRANCH  14  16
ENDBRANCH   7  14
ENDBRANCH   1   2
BRANCH   1  18
HETATM   18  O4  UNL     1      11.461  49.193  -0.839  1.00  0.00    -0.332 OA
ATOM     19  H4  UNL     1      12.287  48.808  -0.570  1.00  0.00     0.220 HD
ENDBRANCH   1  18
BRANCH   1  20
HETATM   20  N3  UNL     1      10.578  47.060  -0.920  1.00  0.00    -0.302 NA
BRANCH  20  21
HETATM   21  N4  UNL     1      10.454  45.895  -0.350  1.00  0.00    -0.264 N 
ATOM     22  H4  UNL     1      10.945  45.736   0.530  1.00  0.00     0.195 HD
BRANCH  21  23
HETATM   23  C7  UNL     1       9.666  44.821  -0.887  1.00  0.00     0.213 C 
BRANCH  23  24
HETATM   24  C8  UNL     1       8.191  45.192  -0.681  1.00  0.00     0.078 A 
HETATM   25  N5  UNL     1       7.675  46.131  -1.516  1.00  0.00    -0.192 N 
HETATM   26  C9  UNL     1       6.311  46.360  -1.489  1.00  0.00     0.679 A 
ATOM     27  H5  UNL     1       8.280  46.654  -2.149  1.00  0.00     0.184 HD
HETATM   28  N7  UNL     1       5.538  45.699  -0.680  1.00  0.00    -0.154 N 
HETATM   29  C10 UNL     1       6.050  44.759   0.160  1.00  0.00     0.288 A 
ATOM     30  H7  UNL     1       4.536  45.887  -0.675  1.00  0.00     0.187 HD
HETATM   31  O5  UNL     1       5.331  44.108   0.950  1.00  0.00    -0.265 OA
HETATM   32  C11 UNL     1       7.437  44.488   0.168  1.00  0.00     0.124 A 
BRANCH  26  33
HETATM   33  N6  UNL     1       5.896  47.288  -2.362  1.00  0.00    -0.234 N 
ATOM     34  H62 UNL     1       6.489  48.006  -2.778  1.00  0.00     0.174 HD
ATOM     35  H61 UNL     1       4.902  47.234  -2.584  1.00  0.00     0.174 HD
ENDBRANCH  26  33
BRANCH  32  36
HETATM   36  N8  UNL     1       7.906  43.546   1.111  1.00  0.00    -0.384 N 
HETATM   37  C12 UNL     1       7.897  42.134   0.698  1.00  0.00     0.149 C 
HETATM   38  C13 UNL     1       8.398  43.883   2.438  1.00  0.00     0.149 C 
ENDBRANCH  32  36
ENDBRANCH  23  24
ENDBRANCH  21  23
ENDBRANCH  20  21
ENDBRANCH   1  20
TORSDOF 11
ENDMDL
MODEL 2
REMARK VINA RESULT: -5.318593963      3.313      8.104
REMARK  11 active torsions:
REMARK  status: ('A' for Active; 'I' for Inactive)
REMARK    1  A    between atoms: O1_2  and  C2_3 
REMARK    2  A    between atoms: C2_3  and  C3_5 
REMARK    3  A    between atoms: C4_9  and  O3_10 
REMARK    4  A    between atoms: C5_12  and  C6_13 
REMARK    5  A    between atoms: C6_13  and  O4_14 
REMARK    6  A    between atoms: C6_13  and  N3_16 
REMARK    7  A    between atoms: N3_16  and  N4_17 
REMARK    8  A    between atoms: N4_17  and  C7_19 
REMARK    9  A    between atoms: C7_19  and  C8_20 
REMARK   10  A    between atoms: C9_23  and  N6_24 
REMARK   11  A    between atoms: C11_31  and  N8_32 
ROOT
HETATM    1  C6  UNL     1       6.637  47.606  -2.998  1.00  0.00     0.269 C 
ENDROOT
BRANCH   1   2
HETATM    2  C5  UNL     1       6.963  46.638  -1.946  1.00  0.00     0.155 A 
HETATM    3  C4  UNL     1       6.246  45.906  -1.045  1.00  0.00     0.197 A 
HETATM    4  N2  UNL     1       7.070  45.063  -0.315  1.00  0.00    -0.207 N 
HETATM    5  N1  UNL     1       6.926  44.199   0.612  1.00  0.00    -0.278 N 
HETATM    6  C14 UNL     1       8.286  45.294  -0.781  1.00  0.00     0.175 A 
HETATM    7  C3  UNL     1       7.927  43.538   1.106  1.00  0.00     0.169 A 
ATOM      8  H1  UNL     1       5.991  44.021   0.977  1.00  0.00     0.188 HD
HETATM    9  S1  UNL     1       9.243  44.207   0.171  1.00  0.00    -0.027 SA
HETATM   10  N9  UNL     1       8.282  46.222  -1.752  1.00  0.00    -0.327 N 
ATOM     11  H9  UNL     1       9.099  46.563  -2.258  1.00  0.00     0.168 HD
BRANCH   3  12
HETATM   12  O3  UNL     1       4.865  46.039  -0.924  1.00  0.00    -0.343 OA
ATOM     13  H3  UNL     1       4.350  45.972  -0.128  1.00  0.00     0.219 HD
ENDBRANCH   3  12
BRANCH   7  14
HETATM   14  C2  UNL     1       8.092  42.505   2.132  1.00  0.00     0.318 C 
HETATM   15  O2  UNL     1       8.522  41.369   1.820  1.00  0.00    -0.257 OA
BRANCH  14  16
HETATM   16  O1  UNL     1       7.765  42.794   3.427  1.00  0.00    -0.321 OA
HETATM   17  C1  UNL     1       8.498  43.853   4.053  1.00  0.00     0.213 C 
ENDBRANCH  14  16
ENDBRANCH   7  14
ENDBRANCH   1   2
BRANCH   1  18
HETATM   18  O4  UNL     1       5.266  47.683  -3.136  1.00  0.00    -0.332 OA
ATOM     19  H4  UNL     1       4.946  48.442  -2.661  1.00  0.00     0.220 HD
ENDBRANCH   1  18
BRANCH   1  20
HETATM   20  N3  UNL     1       7.374  48.369  -3.788  1.00  0.00    -0.302 NA
BRANCH  20  21
HETATM   21  N4  UNL     1       8.103  49.119  -4.564  1.00  0.00    -0.264 N 
ATOM     22  H4  UNL     1       7.880  50.113  -4.617  1.00  0.00     0.195 HD
BRANCH  21  23
HETATM   23  C7  UNL     1       9.202  48.630  -5.347  1.00  0.00     0.213 C 
BRANCH  23  24
HETATM   24  C8  UNL     1      10.215  48.011  -4.375  1.00  0.00     0.078 A 
HETATM   25  N5  UNL     1      10.473  48.707  -3.237  1.00  0.00    -0.192 N 
HETATM   26  C9  UNL     1      11.234  48.102  -2.252  1.00  0.00     0.679 A 
ATOM     27  H5  UNL     1      10.114  49.653  -3.112  1.00  0.00     0.184 HD
HETATM   28  N7  UNL     1      11.698  46.899  -2.410  1.00  0.00    -0.154 N 
HETATM   29  C10 UNL     1      11.444  46.198  -3.549  1.00  0.00     0.288 A 
ATOM     30  H7  UNL     1      12.259  46.475  -1.672  1.00  0.00     0.187 HD
HETATM   31  O5  UNL     1      11.878  45.040  -3.729  1.00  0.00    -0.265 OA
HETATM   32  C11 UNL     1      10.672  46.772  -4.583  1.00  0.00     0.124 A 
BRANCH  26  33
HETATM   33  N6  UNL     1      11.415  48.859  -1.162  1.00  0.00    -0.234 N 
ATOM     34  H62 UNL     1      11.292  49.871  -1.125  1.00  0.00     0.174 HD
ATOM     35  H61 UNL     1      11.709  48.336  -0.338  1.00  0.00     0.174 HD
ENDBRANCH  26  33
BRANCH  32  36
HETATM   36  N8  UNL     1      10.502  46.011  -5.761  1.00  0.00    -0.384 N 
HETATM   37  C12 UNL     1       9.336  45.116  -5.812  1.00  0.00     0.149 C 
HETATM   38  C13 UNL     1      11.390  46.068  -6.913  1.00  0.00     0.149 C 
ENDBRANCH  32  36
ENDBRANCH  23  24
ENDBRANCH  21  23
ENDBRANCH  20  21
ENDBRANCH   1  20
TORSDOF 11
ENDMDL
MODEL 3
REMARK VINA RESULT: -5.265873707      3.264      8.042
REMARK  11 active torsions:
REMARK  status: ('A' for Active; 'I' for Inactive)
REMARK    1  A    between atoms: O1_2  and  C2_3 
REMARK    2  A    between atoms: C2_3  and  C3_5 
REMARK    3  A    between atoms: C4_9  and  O3_10 
REMARK    4  A    between atoms: C5_12  and  C6_13 
REMARK    5  A    between atoms: C6_13  and  O4_14 
REMARK    6  A    between atoms: C6_13  and  N3_16 
REMARK    7  A    between atoms: N3_16  and  N4_17 
REMARK    8  A    between atoms: N4_17  and  C7_19 
REMARK    9  A    between atoms: C7_19  and  C8_20 
REMARK   10  A    between atoms: C9_23  and  N6_24 
REMARK   11  A    between atoms: C11_31  and  N8_32 
ROOT
HETATM    1  C6  UNL     1       6.622  47.588  -2.973  1.00  0.00     0.269 C 
ENDROOT
BRANCH   1   2
HETATM    2  C5  UNL     1       6.940  46.624  -1.916  1.00  0.00     0.155 A 
HETATM    3  C4  UNL     1       6.215  45.890  -1.021  1.00  0.00     0.197 A 
HETATM    4  N2  UNL     1       7.034  45.053  -0.280  1.00  0.00    -0.207 N 
HETATM    5  N1  UNL     1       6.883  44.189   0.646  1.00  0.00    -0.278 N 
HETATM    6  C14 UNL     1       8.254  45.288  -0.733  1.00  0.00     0.175 A 
HETATM    7  C3  UNL     1       7.881  43.534   1.154  1.00  0.00     0.169 A 
ATOM      8  H1  UNL     1       5.945  44.008   1.001  1.00  0.00     0.188 HD
HETATM    9  S1  UNL     1       9.205  44.207   0.232  1.00  0.00    -0.027 SA
HETATM   10  N9  UNL     1       8.258  46.214  -1.705  1.00  0.00    -0.327 N 
ATOM     11  H9  UNL     1       9.080  46.558  -2.202  1.00  0.00     0.168 HD
BRANCH   3  12
HETATM   12  O3  UNL     1       4.832  46.017  -0.917  1.00  0.00    -0.343 OA
ATOM     13  H3  UNL     1       4.201  46.009  -1.628  1.00  0.00     0.219 HD
ENDBRANCH   3  12
BRANCH   7  14
HETATM   14  C2  UNL     1       8.038  42.503   2.183  1.00  0.00     0.318 C 
HETATM   15  O2  UNL     1       8.451  41.359   1.873  1.00  0.00    -0.257 OA
BRANCH  14  16
HETATM   16  O1  UNL     1       7.725  42.803   3.479  1.00  0.00    -0.321 OA
HETATM   17  C1  UNL     1       8.491  43.839   4.102  1.00  0.00     0.213 C 
ENDBRANCH  14  16
ENDBRANCH   7  14
ENDBRANCH   1   2
BRANCH   1  18
HETATM   18  O4  UNL     1       5.252  47.742  -3.052  1.00  0.00    -0.332 OA
ATOM     19  H4  UNL     1       4.914  47.186  -3.744  1.00  0.00     0.220 HD
ENDBRANCH   1  18
BRANCH   1  20
HETATM   20  N3  UNL     1       7.364  48.292  -3.811  1.00  0.00    -0.302 NA
BRANCH  20  21
HETATM   21  N4  UNL     1       8.099  48.984  -4.634  1.00  0.00    -0.264 N 
ATOM     22  H4  UNL     1       7.639  49.433  -5.427  1.00  0.00     0.195 HD
BRANCH  21  23
HETATM   23  C7  UNL     1       9.518  49.154  -4.492  1.00  0.00     0.213 C 
BRANCH  23  24
HETATM   24  C8  UNL     1      10.108  47.780  -4.148  1.00  0.00     0.078 A 
HETATM   25  N5  UNL     1       9.727  46.737  -4.931  1.00  0.00    -0.192 N 
HETATM   26  C9  UNL     1      10.373  45.524  -4.775  1.00  0.00     0.679 A 
ATOM     27  H5  UNL     1       8.981  46.847  -5.619  1.00  0.00     0.184 HD
HETATM   28  N7  UNL     1      11.319  45.378  -3.897  1.00  0.00    -0.154 N 
HETATM   29  C10 UNL     1      11.704  46.419  -3.108  1.00  0.00     0.288 A 
ATOM     30  H7  UNL     1      11.778  44.474  -3.797  1.00  0.00     0.187 HD
HETATM   31  O5  UNL     1      12.610  46.308  -2.254  1.00  0.00    -0.265 OA
HETATM   32  C11 UNL     1      11.075  47.678  -3.231  1.00  0.00     0.124 A 
BRANCH  26  33
HETATM   33  N6  UNL     1       9.940  44.565  -5.605  1.00  0.00    -0.234 N 
ATOM     34  H62 UNL     1       9.116  43.985  -5.450  1.00  0.00     0.174 HD
ATOM     35  H61 UNL     1      10.522  44.440  -6.433  1.00  0.00     0.174 HD
ENDBRANCH  26  33
BRANCH  32  36
HETATM   36  N8  UNL     1      11.482  48.693  -2.337  1.00  0.00    -0.384 N 
HETATM   37  C12 UNL     1      10.737  48.805  -1.074  1.00  0.00     0.149 C 
HETATM   38  C13 UNL     1      12.583  49.613  -2.583  1.00  0.00     0.149 C 
ENDBRANCH  32  36
ENDBRANCH  23  24
ENDBRANCH  21  23
ENDBRANCH  20  21
ENDBRANCH   1  20
TORSDOF 11
ENDMDL
MODEL 4
REMARK VINA RESULT: -5.256353834      2.792      9.143
REMARK  11 active torsions:
REMARK  status: ('A' for Active; 'I' for Inactive)
REMARK    1  A    between atoms: O1_2  and  C2_3 
REMARK    2  A    between atoms: C2_3  and  C3_5 
REMARK    3  A    between atoms: C4_9  and  O3_10 
REMARK    4  A    between atoms: C5_12  and  C6_13 
REMARK    5  A    between atoms: C6_13  and  O4_14 
REMARK    6  A    between atoms: C6_13  and  N3_16 
REMARK    7  A    between atoms: N3_16  and  N4_17 
REMARK    8  A    between atoms: N4_17  and  C7_19 
REMARK    9  A    between atoms: C7_19  and  C8_20 
REMARK   10  A    between atoms: C9_23  and  N6_24 
REMARK   11  A    between atoms: C11_31  and  N8_32 
ROOT
HETATM    1  C6  UNL     1       8.352  48.524  -4.723  1.00  0.00     0.269 C 
ENDROOT
BRANCH   1   2
HETATM    2  C5  UNL     1       8.049  47.683  -3.561  1.00  0.00     0.155 A 
HETATM    3  C4  UNL     1       6.917  47.338  -2.881  1.00  0.00     0.197 A 
HETATM    4  N2  UNL     1       7.194  46.422  -1.877  1.00  0.00    -0.207 N 
HETATM    5  N1  UNL     1       6.533  45.793  -0.987  1.00  0.00    -0.278 N 
HETATM    6  C14 UNL     1       8.499  46.220  -1.958  1.00  0.00     0.175 A 
HETATM    7  C3  UNL     1       7.094  44.961  -0.164  1.00  0.00     0.169 A 
ATOM      8  H1  UNL     1       5.528  45.949  -0.919  1.00  0.00     0.188 HD
HETATM    9  S1  UNL     1       8.758  45.071  -0.686  1.00  0.00    -0.027 SA
HETATM   10  N9  UNL     1       9.059  46.944  -2.940  1.00  0.00    -0.327 N 
ATOM     11  H9  UNL     1      10.048  46.954  -3.188  1.00  0.00     0.168 HD
BRANCH   3  12
HETATM   12  O3  UNL     1       5.674  47.876  -3.204  1.00  0.00    -0.343 OA
ATOM     13  H3  UNL     1       5.438  48.331  -4.005  1.00  0.00     0.219 HD
ENDBRANCH   3  12
BRANCH   7  14
HETATM   14  C2  UNL     1       6.631  44.100   0.927  1.00  0.00     0.318 C 
HETATM   15  O2  UNL     1       5.513  43.535   0.854  1.00  0.00    -0.257 OA
BRANCH  14  16
HETATM   16  O1  UNL     1       7.429  43.927   2.024  1.00  0.00    -0.321 OA
HETATM   17  C1  UNL     1       8.062  42.650   2.162  1.00  0.00     0.213 C 
ENDBRANCH  14  16
ENDBRANCH   7  14
ENDBRANCH   1   2
BRANCH   1  18
HETATM   18  O4  UNL     1       8.594  47.718  -5.817  1.00  0.00    -0.332 OA
ATOM     19  H4  UNL     1       7.960  47.011  -5.831  1.00  0.00     0.220 HD
ENDBRANCH   1  18
BRANCH   1  20
HETATM   20  N3  UNL     1       8.429  49.832  -4.899  1.00  0.00    -0.302 NA
BRANCH  20  21
HETATM   21  N4  UNL     1       8.508  51.120  -5.075  1.00  0.00    -0.264 N 
ATOM     22  H4  UNL     1       8.004  51.725  -4.426  1.00  0.00     0.195 HD
BRANCH  21  23
HETATM   23  C7  UNL     1       9.262  51.739  -6.129  1.00  0.00     0.213 C 
BRANCH  23  24
HETATM   24  C8  UNL     1       8.672  51.251  -7.459  1.00  0.00     0.078 A 
HETATM   25  N5  UNL     1       7.359  51.519  -7.679  1.00  0.00    -0.192 N 
HETATM   26  C9  UNL     1       6.835  51.263  -8.934  1.00  0.00     0.679 A 
ATOM     27  H5  UNL     1       6.773  51.900  -6.936  1.00  0.00     0.184 HD
HETATM   28  N7  UNL     1       7.577  50.773  -9.881  1.00  0.00    -0.154 N 
HETATM   29  C10 UNL     1       8.893  50.501  -9.665  1.00  0.00     0.288 A 
ATOM     30  H7  UNL     1       7.168  50.590 -10.797  1.00  0.00     0.187 HD
HETATM   31  O5  UNL     1       9.631  50.028 -10.556  1.00  0.00    -0.265 OA
HETATM   32  C11 UNL     1       9.474  50.746  -8.401  1.00  0.00     0.124 A 
BRANCH  26  33
HETATM   33  N6  UNL     1       5.539  51.579  -9.058  1.00  0.00    -0.234 N 
ATOM     34  H62 UNL     1       5.135  52.091  -9.842  1.00  0.00     0.174 HD
ATOM     35  H61 UNL     1       4.959  51.269  -8.279  1.00  0.00     0.174 HD
ENDBRANCH  26  33
BRANCH  32  36
HETATM   36  N8  UNL     1      10.828  50.381  -8.230  1.00  0.00    -0.384 N 
HETATM   37  C12 UNL     1      11.094  49.010  -7.768  1.00  0.00     0.149 C 
HETATM   38  C13 UNL     1      11.957  51.262  -8.491  1.00  0.00     0.149 C 
ENDBRANCH  32  36
ENDBRANCH  23  24
ENDBRANCH  21  23
ENDBRANCH  20  21
ENDBRANCH   1  20
TORSDOF 11
ENDMDL
MODEL 5
REMARK VINA RESULT: -5.244913109      3.197      8.638
REMARK  11 active torsions:
REMARK  status: ('A' for Active; 'I' for Inactive)
REMARK    1  A    between atoms: O1_2  and  C2_3 
REMARK    2  A    between atoms: C2_3  and  C3_5 
REMARK    3  A    between atoms: C4_9  and  O3_10 
REMARK    4  A    between atoms: C5_12  and  C6_13 
REMARK    5  A    between atoms: C6_13  and  O4_14 
REMARK    6  A    between atoms: C6_13  and  N3_16 
REMARK    7  A    between atoms: N3_16  and  N4_17 
REMARK    8  A    between atoms: N4_17  and  C7_19 
REMARK    9  A    between atoms: C7_19  and  C8_20 
REMARK   10  A    between atoms: C9_23  and  N6_24 
REMARK   11  A    between atoms: C11_31  and  N8_32 
ROOT
HETATM    1  C6  UNL     1       6.681  47.574  -2.988  1.00  0.00     0.269 C 
ENDROOT
BRANCH   1   2
HETATM    2  C5  UNL     1       6.994  46.612  -1.927  1.00  0.00     0.155 A 
HETATM    3  C4  UNL     1       6.266  45.889  -1.027  1.00  0.00     0.197 A 
HETATM    4  N2  UNL     1       7.079  45.047  -0.284  1.00  0.00    -0.207 N 
HETATM    5  N1  UNL     1       6.923  44.190   0.647  1.00  0.00    -0.278 N 
HETATM    6  C14 UNL     1       8.300  45.268  -0.743  1.00  0.00     0.175 A 
HETATM    7  C3  UNL     1       7.917  43.527   1.154  1.00  0.00     0.169 A 
ATOM      8  H1  UNL     1       5.984  44.020   1.006  1.00  0.00     0.188 HD
HETATM    9  S1  UNL     1       9.244  44.183   0.224  1.00  0.00    -0.027 SA
HETATM   10  N9  UNL     1       8.309  46.190  -1.719  1.00  0.00    -0.327 N 
ATOM     11  H9  UNL     1       9.132  46.523  -2.221  1.00  0.00     0.168 HD
BRANCH   3  12
HETATM   12  O3  UNL     1       4.884  46.030  -0.918  1.00  0.00    -0.343 OA
ATOM     13  H3  UNL     1       4.412  46.748  -0.513  1.00  0.00     0.219 HD
ENDBRANCH   3  12
BRANCH   7  14
HETATM   14  C2  UNL     1       8.068  42.500   2.188  1.00  0.00     0.318 C 
HETATM   15  O2  UNL     1       8.477  41.354   1.884  1.00  0.00    -0.257 OA
BRANCH  14  16
HETATM   16  O1  UNL     1       7.752  42.806   3.482  1.00  0.00    -0.321 OA
HETATM   17  C1  UNL     1       8.525  43.839   4.105  1.00  0.00     0.213 C 
ENDBRANCH  14  16
ENDBRANCH   7  14
ENDBRANCH   1   2
BRANCH   1  18
HETATM   18  O4  UNL     1       5.313  47.643  -3.151  1.00  0.00    -0.332 OA
ATOM     19  H4  UNL     1       5.112  47.731  -4.075  1.00  0.00     0.220 HD
ENDBRANCH   1  18
BRANCH   1  20
HETATM   20  N3  UNL     1       7.428  48.337  -3.768  1.00  0.00    -0.302 NA
BRANCH  20  21
HETATM   21  N4  UNL     1       8.167  49.090  -4.532  1.00  0.00    -0.264 N 
ATOM     22  H4  UNL     1       8.169  48.899  -5.534  1.00  0.00     0.195 HD
BRANCH  21  23
HETATM   23  C7  UNL     1       8.977  50.172  -4.048  1.00  0.00     0.213 C 
BRANCH  23  24
HETATM   24  C8  UNL     1      10.257  49.557  -3.465  1.00  0.00     0.078 A 
HETATM   25  N5  UNL     1      10.184  49.086  -2.194  1.00  0.00    -0.192 N 
HETATM   26  C9  UNL     1      11.252  48.361  -1.696  1.00  0.00     0.679 A 
ATOM     27  H5  UNL     1       9.360  49.263  -1.619  1.00  0.00     0.184 HD
HETATM   28  N7  UNL     1      12.305  48.138  -2.423  1.00  0.00    -0.154 N 
HETATM   29  C10 UNL     1      12.385  48.610  -3.698  1.00  0.00     0.288 A 
ATOM     30  H7  UNL     1      13.082  47.604  -2.034  1.00  0.00     0.187 HD
HETATM   31  O5  UNL     1      13.386  48.412  -4.420  1.00  0.00    -0.265 OA
HETATM   32  C11 UNL     1      11.319  49.355  -4.250  1.00  0.00     0.124 A 
BRANCH  26  33
HETATM   33  N6  UNL     1      11.077  47.923  -0.442  1.00  0.00    -0.234 N 
ATOM     34  H62 UNL     1      10.934  46.949  -0.178  1.00  0.00     0.174 HD
ATOM     35  H61 UNL     1      11.084  48.662   0.261  1.00  0.00     0.174 HD
ENDBRANCH  26  33
BRANCH  32  36
HETATM   36  N8  UNL     1      11.497  49.865  -5.556  1.00  0.00    -0.384 N 
HETATM   37  C12 UNL     1      12.073  51.214  -5.669  1.00  0.00     0.149 C 
HETATM   38  C13 UNL     1      11.161  49.145  -6.774  1.00  0.00     0.149 C 
ENDBRANCH  32  36
ENDBRANCH  23  24
ENDBRANCH  21  23
ENDBRANCH  20  21
ENDBRANCH   1  20
TORSDOF 11
ENDMDL
