MODEL 1
REMARK VINA RESULT: -6.774585473      0.000      0.000
REMARK  6 active torsions:
REMARK  status: ('A' for Active; 'I' for Inactive)
REMARK       I    between atoms: N1_2  and  C2_4 
REMARK    1  A    between atoms: C2_4  and  C3_6 
REMARK    2  A    between atoms: C4_10  and  C5_11 
REMARK    3  A    between atoms: C5_11  and  S1_12 
REMARK    4  A    between atoms: S1_12  and  C6_13 
REMARK    5  A    between atoms: C10_21  and  N5_22 
REMARK    6  A    between atoms: C11_27  and  N7_28 
ROOT
HETATM    1  C6  UNL     1       8.629  43.565   1.078  1.00  0.00     0.161 A 
HETATM    2  N3  UNL     1       7.332  43.428   1.429  1.00  0.00    -0.278 N 
ATOM      3  H3  UNL     1       6.967  42.803   2.148  1.00  0.00     0.189 HD
HETATM    4  N4  UNL     1       6.623  44.241   0.679  1.00  0.00    -0.282 N 
ATOM      5  H4  UNL     1       5.609  44.341   0.736  1.00  0.00     0.188 HD
HETATM    6  C7  UNL     1       7.419  44.934  -0.183  1.00  0.00     0.149 A 
HETATM    7  C8  UNL     1       6.940  45.909  -1.134  1.00  0.00     0.098 A 
HETATM    8  C9  UNL     1       5.593  46.201  -1.203  1.00  0.00     0.082 A 
HETATM    9  C10 UNL     1       5.091  47.125  -2.093  1.00  0.00     0.117 A 
HETATM   10  N6  UNL     1       5.931  47.765  -2.918  1.00  0.00    -0.177 N 
ATOM     11  H6  UNL     1       5.581  48.453  -3.584  1.00  0.00     0.185 HD
HETATM   12  C11 UNL     1       7.245  47.482  -2.851  1.00  0.00     0.682 A 
HETATM   13  N9  UNL     1       7.743  46.567  -1.973  1.00  0.00    -0.188 N 
ATOM     14  H9  UNL     1       8.746  46.383  -1.955  1.00  0.00     0.184 HD
HETATM   15  N10 UNL     1       8.650  44.483   0.099  1.00  0.00    -0.319 N 
ATOM     16  H10 UNL     1       9.498  44.800  -0.372  1.00  0.00     0.169 HD
ENDROOT
BRANCH   1  17
HETATM   17  S1  UNL     1      10.019  42.678   1.827  1.00  0.00    -0.084 SA
BRANCH  17  18
HETATM   18  C5  UNL     1      10.542  43.658   3.272  1.00  0.00     0.169 C 
BRANCH  18  19
HETATM   19  C4  UNL     1       9.458  43.615   4.270  1.00  0.00     0.158 A 
HETATM   20  O2  UNL     1       8.586  44.616   4.378  1.00  0.00    -0.222 OA
HETATM   21  N2  UNL     1       7.738  44.355   5.307  1.00  0.00    -0.238 N 
HETATM   22  C3  UNL     1       8.033  43.163   5.841  1.00  0.00     0.196 A 
ATOM     23  H2  UNL     1       6.966  44.958   5.591  1.00  0.00     0.196 HD
HETATM   24  N11 UNL     1       9.116  42.717   5.173  1.00  0.00    -0.318 N 
ATOM     25  H11 UNL     1       9.593  41.831   5.340  1.00  0.00     0.169 HD
BRANCH  22  26
HETATM   26  C2  UNL     1       7.349  42.470   6.913  1.00  0.00     0.287 C 
HETATM   27  N1  UNL     1       5.942  42.556   7.081  1.00  0.00    -0.359 N 
HETATM   28  C1  UNL     1       5.244  41.869   8.149  1.00  0.00     0.149 C 
ATOM     29  H1  UNL     1       5.402  43.122   6.427  1.00  0.00     0.162 HD
HETATM   30  O1  UNL     1       8.062  41.773   7.708  1.00  0.00    -0.264 OA
ENDBRANCH  22  26
ENDBRANCH  18  19
ENDBRANCH  17  18
ENDBRANCH   1  17
BRANCH   9  31
HETATM   31  N5  UNL     1       3.834  47.395  -2.150  1.00  0.00    -0.385 N 
ATOM     32  H52 UNL     1       3.322  47.182  -3.007  1.00  0.00     0.157 HD
ATOM     33  H51 UNL     1       3.341  47.819  -1.365  1.00  0.00     0.157 HD
ENDBRANCH   9  31
BRANCH  12  34
HETATM   34  N7  UNL     1       8.084  48.178  -3.769  1.00  0.00    -0.214 N 
HETATM   35  C12 UNL     1       8.509  47.483  -4.960  1.00  0.00     0.160 C 
HETATM   36  C13 UNL     1       9.195  48.323  -5.981  1.00  0.00     0.134 C 
HETATM   37  N8  UNL     1       9.732  49.564  -5.543  1.00  0.00    -0.418 N 
HETATM   38  C14 UNL     1       9.831  49.764  -4.136  1.00  0.00     0.134 C 
ATOM     39  H8  UNL     1      10.031  50.279  -6.206  1.00  0.00     0.153 HD
HETATM   40  C15 UNL     1       8.464  49.538  -3.469  1.00  0.00     0.160 C 
ENDBRANCH  12  34
TORSDOF 6
ENDMDL
MODEL 2
REMARK VINA RESULT: -6.692008796      3.566      7.364
REMARK  6 active torsions:
REMARK  status: ('A' for Active; 'I' for Inactive)
REMARK       I    between atoms: N1_2  and  C2_4 
REMARK    1  A    between atoms: C2_4  and  C3_6 
REMARK    2  A    between atoms: C4_10  and  C5_11 
REMARK    3  A    between atoms: C5_11  and  S1_12 
REMARK    4  A    between atoms: S1_12  and  C6_13 
REMARK    5  A    between atoms: C10_21  and  N5_22 
REMARK    6  A    between atoms: C11_27  and  N7_28 
ROOT
HETATM    1  C6  UNL     1       8.698  47.711  -3.687  1.00  0.00     0.161 A 
HETATM    2  N3  UNL     1       7.428  48.156  -3.804  1.00  0.00    -0.278 N 
ATOM      3  H3  UNL     1       7.096  48.859  -4.464  1.00  0.00     0.189 HD
HETATM    4  N4  UNL     1       6.695  47.523  -2.915  1.00  0.00    -0.282 N 
ATOM      5  H4  UNL     1       5.694  47.666  -2.786  1.00  0.00     0.188 HD
HETATM    6  C7  UNL     1       7.448  46.650  -2.190  1.00  0.00     0.149 A 
HETATM    7  C8  UNL     1       6.935  45.803  -1.140  1.00  0.00     0.098 A 
HETATM    8  C9  UNL     1       5.592  45.836  -0.822  1.00  0.00     0.082 A 
HETATM    9  C10 UNL     1       5.057  45.045   0.171  1.00  0.00     0.117 A 
HETATM   10  N6  UNL     1       5.858  44.213   0.851  1.00  0.00    -0.177 N 
ATOM     11  H6  UNL     1       5.482  43.618   1.589  1.00  0.00     0.185 HD
HETATM   12  C11 UNL     1       7.168  44.178   0.541  1.00  0.00     0.682 A 
HETATM   13  N9  UNL     1       7.699  44.961  -0.439  1.00  0.00    -0.188 N 
ATOM     14  H9  UNL     1       8.697  44.904  -0.642  1.00  0.00     0.184 HD
HETATM   15  N10 UNL     1       8.679  46.800  -2.701  1.00  0.00    -0.319 N 
ATOM     16  H10 UNL     1       9.500  46.286  -2.380  1.00  0.00     0.169 HD
ENDROOT
BRANCH   1  17
HETATM   17  S1  UNL     1      10.098  48.254  -4.699  1.00  0.00    -0.084 SA
BRANCH  17  18
HETATM   18  C5  UNL     1      11.135  49.303  -3.630  1.00  0.00     0.169 C 
BRANCH  18  19
HETATM   19  C4  UNL     1      11.135  48.718  -2.277  1.00  0.00     0.158 A 
HETATM   20  O2  UNL     1      10.354  49.211  -1.317  1.00  0.00    -0.222 OA
HETATM   21  N2  UNL     1      10.522  48.542  -0.234  1.00  0.00    -0.238 N 
HETATM   22  C3  UNL     1      11.428  47.581  -0.453  1.00  0.00     0.196 A 
ATOM     23  H2  UNL     1      10.042  48.716   0.650  1.00  0.00     0.196 HD
HETATM   24  N11 UNL     1      11.798  47.710  -1.743  1.00  0.00    -0.318 N 
ATOM     25  H11 UNL     1      12.478  47.125  -2.227  1.00  0.00     0.169 HD
BRANCH  22  26
HETATM   26  C2  UNL     1      11.925  46.593   0.480  1.00  0.00     0.287 C 
HETATM   27  N1  UNL     1      11.141  45.478   0.879  1.00  0.00    -0.359 N 
HETATM   28  C1  UNL     1      11.626  44.481   1.813  1.00  0.00     0.149 C 
ATOM     29  H1  UNL     1      10.202  45.375   0.494  1.00  0.00     0.162 HD
HETATM   30  O1  UNL     1      13.104  46.759   0.936  1.00  0.00    -0.264 OA
ENDBRANCH  22  26
ENDBRANCH  18  19
ENDBRANCH  17  18
ENDBRANCH   1  17
BRANCH   9  31
HETATM   31  N5  UNL     1       3.804  45.079   0.461  1.00  0.00    -0.385 N 
ATOM     32  H52 UNL     1       3.150  45.472  -0.217  1.00  0.00     0.157 HD
ATOM     33  H51 UNL     1       3.450  44.728   1.350  1.00  0.00     0.157 HD
ENDBRANCH   9  31
BRANCH  12  34
HETATM   34  N7  UNL     1       7.971  43.291   1.314  1.00  0.00    -0.214 N 
HETATM   35  C12 UNL     1       8.539  42.141   0.652  1.00  0.00     0.160 C 
HETATM   36  C13 UNL     1       9.539  41.375   1.445  1.00  0.00     0.134 C 
HETATM   37  N8  UNL     1       9.532  41.566   2.853  1.00  0.00    -0.418 N 
HETATM   38  C14 UNL     1       8.401  42.229   3.409  1.00  0.00     0.134 C 
ATOM     39  H8  UNL     1      10.303  41.244   3.439  1.00  0.00     0.153 HD
HETATM   40  C15 UNL     1       8.182  43.582   2.712  1.00  0.00     0.160 C 
ENDBRANCH  12  34
TORSDOF 6
ENDMDL
MODEL 3
REMARK VINA RESULT: -6.622766283      3.648      6.102
REMARK  6 active torsions:
REMARK  status: ('A' for Active; 'I' for Inactive)
REMARK       I    between atoms: N1_2  and  C2_4 
REMARK    1  A    between atoms: C2_4  and  C3_6 
REMARK    2  A    between atoms: C4_10  and  C5_11 
REMARK    3  A    between atoms: C5_11  and  S1_12 
REMARK    4  A    between atoms: S1_12  and  C6_13 
REMARK    5  A    between atoms: C10_21  and  N5_22 
REMARK    6  A    between atoms: C11_27  and  N7_28 
ROOT
HETATM    1  C6  UNL     1       9.894  44.800  -0.033  1.00  0.00     0.161 A 
HETATM    2  N3  UNL     1      10.803  45.299   0.832  1.00  0.00    -0.278 N 
ATOM      3  H3  UNL     1      11.085  44.877   1.717  1.00  0.00     0.189 HD
HETATM    4  N4  UNL     1      11.259  46.426   0.333  1.00  0.00    -0.282 N 
ATOM      5  H4  UNL     1      11.961  47.013   0.784  1.00  0.00     0.188 HD
HETATM    6  C7  UNL     1      10.672  46.706  -0.864  1.00  0.00     0.149 A 
HETATM    7  C8  UNL     1      10.965  47.870  -1.665  1.00  0.00     0.098 A 
HETATM    8  C9  UNL     1      11.904  48.785  -1.235  1.00  0.00     0.082 A 
HETATM    9  C10 UNL     1      12.217  49.909  -1.967  1.00  0.00     0.117 A 
HETATM   10  N6  UNL     1      11.595  50.127  -3.134  1.00  0.00    -0.177 N 
ATOM     11  H6  UNL     1      11.812  50.953  -3.692  1.00  0.00     0.185 HD
HETATM   12  C11 UNL     1      10.679  49.236  -3.555  1.00  0.00     0.682 A 
HETATM   13  N9  UNL     1      10.368  48.124  -2.832  1.00  0.00    -0.188 N 
ATOM     14  H9  UNL     1       9.667  47.474  -3.188  1.00  0.00     0.184 HD
HETATM   15  N10 UNL     1       9.836  45.674  -1.050  1.00  0.00    -0.319 N 
ATOM     16  H10 UNL     1       9.230  45.568  -1.864  1.00  0.00     0.169 HD
ENDROOT
BRANCH   1  17
HETATM   17  S1  UNL     1       8.983  43.249   0.178  1.00  0.00    -0.084 SA
BRANCH  17  18
HETATM   18  C5  UNL     1       7.656  43.585   1.381  1.00  0.00     0.169 C 
BRANCH  18  19
HETATM   19  C4  UNL     1       6.595  44.341   0.690  1.00  0.00     0.158 A 
HETATM   20  O2  UNL     1       5.316  44.195   1.031  1.00  0.00    -0.222 OA
HETATM   21  N2  UNL     1       4.582  44.951   0.298  1.00  0.00    -0.238 N 
HETATM   22  C3  UNL     1       5.365  45.622  -0.555  1.00  0.00     0.196 A 
ATOM     23  H2  UNL     1       3.566  45.028   0.357  1.00  0.00     0.196 HD
HETATM   24  N11 UNL     1       6.626  45.224  -0.290  1.00  0.00    -0.318 N 
ATOM     25  H11 UNL     1       7.465  45.551  -0.768  1.00  0.00     0.169 HD
BRANCH  22  26
HETATM   26  C2  UNL     1       4.971  46.584  -1.563  1.00  0.00     0.287 C 
HETATM   27  N1  UNL     1       3.610  46.921  -1.785  1.00  0.00    -0.359 N 
HETATM   28  C1  UNL     1       3.201  47.881  -2.791  1.00  0.00     0.149 C 
ATOM     29  H1  UNL     1       2.893  46.471  -1.216  1.00  0.00     0.162 HD
HETATM   30  O1  UNL     1       5.899  47.123  -2.252  1.00  0.00    -0.264 OA
ENDBRANCH  22  26
ENDBRANCH  18  19
ENDBRANCH  17  18
ENDBRANCH   1  17
BRANCH   9  31
HETATM   31  N5  UNL     1      13.096  50.757  -1.561  1.00  0.00    -0.385 N 
ATOM     32  H52 UNL     1      13.562  50.597  -0.668  1.00  0.00     0.157 HD
ATOM     33  H51 UNL     1      13.334  51.585  -2.107  1.00  0.00     0.157 HD
ENDBRANCH   9  31
BRANCH  12  34
HETATM   34  N7  UNL     1      10.037  49.534  -4.792  1.00  0.00    -0.214 N 
HETATM   35  C12 UNL     1       8.988  50.525  -4.790  1.00  0.00     0.160 C 
HETATM   36  C13 UNL     1       8.508  50.952  -6.133  1.00  0.00     0.134 C 
HETATM   37  N8  UNL     1       8.793  50.090  -7.226  1.00  0.00    -0.418 N 
HETATM   38  C14 UNL     1       9.241  48.775  -6.911  1.00  0.00     0.134 C 
ATOM     39  H8  UNL     1       8.682  50.399  -8.192  1.00  0.00     0.153 HD
HETATM   40  C15 UNL     1      10.464  48.838  -5.983  1.00  0.00     0.160 C 
ENDBRANCH  12  34
TORSDOF 6
ENDMDL
MODEL 4
REMARK VINA RESULT: -6.541960209      4.750     10.861
REMARK  6 active torsions:
REMARK  status: ('A' for Active; 'I' for Inactive)
REMARK       I    between atoms: N1_2  and  C2_4 
REMARK    1  A    between atoms: C2_4  and  C3_6 
REMARK    2  A    between atoms: C4_10  and  C5_11 
REMARK    3  A    between atoms: C5_11  and  S1_12 
REMARK    4  A    between atoms: S1_12  and  C6_13 
REMARK    5  A    between atoms: C10_21  and  N5_22 
REMARK    6  A    between atoms: C11_27  and  N7_28 
ROOT
HETATM    1  C6  UNL     1       8.742  47.938  -3.660  1.00  0.00     0.161 A 
HETATM    2  N3  UNL     1       7.468  48.368  -3.788  1.00  0.00    -0.278 N 
ATOM      3  H3  UNL     1       7.138  49.086  -4.434  1.00  0.00     0.189 HD
HETATM    4  N4  UNL     1       6.727  47.698  -2.934  1.00  0.00    -0.282 N 
ATOM      5  H4  UNL     1       5.722  47.823  -2.821  1.00  0.00     0.188 HD
HETATM    6  C7  UNL     1       7.480  46.815  -2.221  1.00  0.00     0.149 A 
HETATM    7  C8  UNL     1       6.958  45.929  -1.207  1.00  0.00     0.098 A 
HETATM    8  C9  UNL     1       5.610  45.933  -0.915  1.00  0.00     0.082 A 
HETATM    9  C10 UNL     1       5.067  45.105   0.043  1.00  0.00     0.117 A 
HETATM   10  N6  UNL     1       5.867  44.264   0.713  1.00  0.00    -0.177 N 
ATOM     11  H6  UNL     1       5.486  43.642   1.426  1.00  0.00     0.185 HD
HETATM   12  C11 UNL     1       7.183  44.258   0.429  1.00  0.00     0.682 A 
HETATM   13  N9  UNL     1       7.721  45.077  -0.517  1.00  0.00    -0.188 N 
ATOM     14  H9  UNL     1       8.723  45.040  -0.701  1.00  0.00     0.184 HD
HETATM   15  N10 UNL     1       8.718  46.998  -2.702  1.00  0.00    -0.319 N 
ATOM     16  H10 UNL     1       9.539  46.486  -2.381  1.00  0.00     0.169 HD
ENDROOT
BRANCH   1  17
HETATM   17  S1  UNL     1      10.153  48.532  -4.628  1.00  0.00    -0.084 SA
BRANCH  17  18
HETATM   18  C5  UNL     1       9.696  48.342  -6.382  1.00  0.00     0.169 C 
BRANCH  18  19
HETATM   19  C4  UNL     1       8.911  49.524  -6.779  1.00  0.00     0.158 A 
HETATM   20  O2  UNL     1       8.542  50.436  -5.881  1.00  0.00    -0.222 OA
HETATM   21  N2  UNL     1       7.874  51.369  -6.457  1.00  0.00    -0.238 N 
HETATM   22  C3  UNL     1       7.782  51.093  -7.764  1.00  0.00     0.196 A 
ATOM     23  H2  UNL     1       7.477  52.187  -5.994  1.00  0.00     0.196 HD
HETATM   24  N11 UNL     1       8.443  49.931  -7.943  1.00  0.00    -0.318 N 
ATOM     25  H11 UNL     1       8.560  49.446  -8.833  1.00  0.00     0.169 HD
BRANCH  22  26
HETATM   26  C2  UNL     1       7.122  51.864  -8.796  1.00  0.00     0.287 C 
HETATM   27  N1  UNL     1       5.733  51.728  -9.059  1.00  0.00    -0.359 N 
HETATM   28  C1  UNL     1       5.059  52.492 -10.090  1.00  0.00     0.149 C 
ATOM     29  H1  UNL     1       5.190  51.068  -8.503  1.00  0.00     0.162 HD
HETATM   30  O1  UNL     1       7.838  52.678  -9.467  1.00  0.00    -0.264 OA
ENDBRANCH  22  26
ENDBRANCH  18  19
ENDBRANCH  17  18
ENDBRANCH   1  17
BRANCH   9  31
HETATM   31  N5  UNL     1       3.808  45.112   0.308  1.00  0.00    -0.385 N 
ATOM     32  H52 UNL     1       3.311  46.004   0.326  1.00  0.00     0.157 HD
ATOM     33  H51 UNL     1       3.297  44.252   0.506  1.00  0.00     0.157 HD
ENDBRANCH   9  31
BRANCH  12  34
HETATM   34  N7  UNL     1       7.984  43.358   1.191  1.00  0.00    -0.214 N 
HETATM   35  C12 UNL     1       8.406  42.130   0.563  1.00  0.00     0.160 C 
HETATM   36  C13 UNL     1       9.414  41.338   1.320  1.00  0.00     0.134 C 
HETATM   37  N8  UNL     1       9.545  41.614   2.708  1.00  0.00    -0.418 N 
HETATM   38  C14 UNL     1       8.517  42.396   3.309  1.00  0.00     0.134 C 
ATOM     39  H8  UNL     1      10.338  41.269   3.248  1.00  0.00     0.153 HD
HETATM   40  C15 UNL     1       8.337  43.717   2.543  1.00  0.00     0.160 C 
ENDBRANCH  12  34
TORSDOF 6
ENDMDL
MODEL 5
REMARK VINA RESULT: -6.528187752      3.160      4.844
REMARK  6 active torsions:
REMARK  status: ('A' for Active; 'I' for Inactive)
REMARK       I    between atoms: N1_2  and  C2_4 
REMARK    1  A    between atoms: C2_4  and  C3_6 
REMARK    2  A    between atoms: C4_10  and  C5_11 
REMARK    3  A    between atoms: C5_11  and  S1_12 
REMARK    4  A    between atoms: S1_12  and  C6_13 
REMARK    5  A    between atoms: C10_21  and  N5_22 
REMARK    6  A    between atoms: C11_27  and  N7_28 
ROOT
HETATM    1  C6  UNL     1       8.023  43.065   0.886  1.00  0.00     0.161 A 
HETATM    2  N3  UNL     1       6.714  43.130   1.210  1.00  0.00    -0.278 N 
ATOM      3  H3  UNL     1       6.231  42.530   1.879  1.00  0.00     0.189 HD
HETATM    4  N4  UNL     1       6.172  44.102   0.512  1.00  0.00    -0.282 N 
ATOM      5  H4  UNL     1       5.189  44.371   0.564  1.00  0.00     0.188 HD
HETATM    6  C7  UNL     1       7.095  44.704  -0.289  1.00  0.00     0.149 A 
HETATM    7  C8  UNL     1       6.812  45.810  -1.173  1.00  0.00     0.098 A 
HETATM    8  C9  UNL     1       5.537  46.333  -1.238  1.00  0.00     0.082 A 
HETATM    9  C10 UNL     1       5.222  47.388  -2.065  1.00  0.00     0.117 A 
HETATM   10  N6  UNL     1       6.178  47.929  -2.833  1.00  0.00    -0.177 N 
ATOM     11  H6  UNL     1       5.966  48.711  -3.452  1.00  0.00     0.185 HD
HETATM   12  C11 UNL     1       7.423  47.420  -2.771  1.00  0.00     0.682 A 
HETATM   13  N9  UNL     1       7.736  46.376  -1.954  1.00  0.00    -0.188 N 
ATOM     14  H9  UNL     1       8.692  46.021  -1.937  1.00  0.00     0.184 HD
HETATM   15  N10 UNL     1       8.224  44.031  -0.025  1.00  0.00    -0.319 N 
ATOM     16  H10 UNL     1       9.124  44.228  -0.462  1.00  0.00     0.169 HD
ENDROOT
BRANCH   1  17
HETATM   17  S1  UNL     1       9.223  41.904   1.586  1.00  0.00    -0.084 SA
BRANCH  17  18
HETATM   18  C5  UNL     1      10.464  42.907   2.466  1.00  0.00     0.169 C 
BRANCH  18  19
HETATM   19  C4  UNL     1      10.936  43.959   1.547  1.00  0.00     0.158 A 
HETATM   20  O2  UNL     1      11.461  43.650   0.363  1.00  0.00    -0.222 OA
HETATM   21  N2  UNL     1      11.795  44.723  -0.258  1.00  0.00    -0.238 N 
HETATM   22  C3  UNL     1      11.496  45.779   0.509  1.00  0.00     0.196 A 
ATOM     23  H2  UNL     1      12.218  44.764  -1.185  1.00  0.00     0.196 HD
HETATM   24  N11 UNL     1      10.956  45.275   1.637  1.00  0.00    -0.318 N 
ATOM     25  H11 UNL     1      10.620  45.822   2.430  1.00  0.00     0.169 HD
BRANCH  22  26
HETATM   26  C2  UNL     1      11.696  47.182   0.215  1.00  0.00     0.287 C 
HETATM   27  N1  UNL     1      11.814  47.658  -1.118  1.00  0.00    -0.359 N 
HETATM   28  C1  UNL     1      12.015  49.060  -1.427  1.00  0.00     0.149 C 
ATOM     29  H1  UNL     1      11.754  46.990  -1.886  1.00  0.00     0.162 HD
HETATM   30  O1  UNL     1      11.765  47.984   1.204  1.00  0.00    -0.264 OA
ENDBRANCH  22  26
ENDBRANCH  18  19
ENDBRANCH  17  18
ENDBRANCH   1  17
BRANCH   9  31
HETATM   31  N5  UNL     1       4.031  47.874  -2.118  1.00  0.00    -0.385 N 
ATOM     32  H52 UNL     1       3.288  47.316  -2.542  1.00  0.00     0.157 HD
ATOM     33  H51 UNL     1       3.813  48.800  -1.752  1.00  0.00     0.157 HD
ENDBRANCH   9  31
BRANCH  12  34
HETATM   34  N7  UNL     1       8.390  48.023  -3.627  1.00  0.00    -0.214 N 
HETATM   35  C12 UNL     1       8.664  49.429  -3.454  1.00  0.00     0.160 C 
HETATM   36  C13 UNL     1       9.830  49.952  -4.219  1.00  0.00     0.134 C 
HETATM   37  N8  UNL     1      10.281  49.178  -5.321  1.00  0.00    -0.418 N 
HETATM   38  C14 UNL     1       9.416  48.142  -5.779  1.00  0.00     0.134 C 
ATOM     39  H8  UNL     1      11.182  49.355  -5.764  1.00  0.00     0.153 HD
HETATM   40  C15 UNL     1       9.048  47.205  -4.617  1.00  0.00     0.160 C 
ENDBRANCH  12  34
TORSDOF 6
ENDMDL
