MODEL 1
REMARK VINA RESULT: -5.029245540      0.000      0.000
REMARK  4 active torsions:
REMARK  status: ('A' for Active; 'I' for Inactive)
REMARK    1  A    between atoms: C3_3  and  C4_4 
REMARK    2  A    between atoms: C4_4  and  N1_5 
REMARK    3  A    between atoms: N1_5  and  C5_7 
REMARK    4  A    between atoms: C5_7  and  N2_9 
ROOT
HETATM    1  C1  UNL     1      87.382  69.648 -11.711  1.00  0.00     0.112 C 
HETATM    2  C2  UNL     1      86.384  69.616 -10.621  1.00  0.00    -0.109 C 
HETATM    3  C3  UNL     1      85.544  69.595  -9.737  1.00  0.00    -0.087 C 
ENDROOT
BRANCH   3   4
HETATM    4  C4  UNL     1      84.511  69.572  -8.700  1.00  0.00     0.216 C 
BRANCH   4   5
HETATM    5  N1  UNL     1      83.329  70.215  -9.204  1.00  0.00    -0.357 N 
ATOM      6  H1  UNL     1      83.418  71.091  -9.720  1.00  0.00     0.162 HD
BRANCH   5   7
HETATM    7  C5  UNL     1      82.046  69.660  -9.000  1.00  0.00     0.169 C 
HETATM    8  S1  UNL     1      81.518  68.475 -10.025  1.00  0.00    -0.041 SA
BRANCH   7   9
HETATM    9  N2  UNL     1      81.170  70.054  -7.970  1.00  0.00    -0.367 N 
HETATM   10  C6  UNL     1      79.750  69.678  -7.994  1.00  0.00     0.151 C 
HETATM   11  C7  UNL     1      81.550  70.857  -6.822  1.00  0.00     0.151 C 
ENDBRANCH   7   9
ENDBRANCH   5   7
ENDBRANCH   4   5
ENDBRANCH   3   4
TORSDOF 4
ENDMDL
MODEL 2
REMARK VINA RESULT: -5.014510849      0.041      1.097
REMARK  4 active torsions:
REMARK  status: ('A' for Active; 'I' for Inactive)
REMARK    1  A    between atoms: C3_3  and  C4_4 
REMARK    2  A    between atoms: C4_4  and  N1_5 
REMARK    3  A    between atoms: N1_5  and  C5_7 
REMARK    4  A    between atoms: C5_7  and  N2_9 
ROOT
HETATM    1  C1  UNL     1      87.361  69.631 -11.698  1.00  0.00     0.112 C 
HETATM    2  C2  UNL     1      86.360  69.612 -10.610  1.00  0.00    -0.109 C 
HETATM    3  C3  UNL     1      85.517  69.593  -9.729  1.00  0.00    -0.087 C 
ENDROOT
BRANCH   3   4
HETATM    4  C4  UNL     1      84.483  69.564  -8.693  1.00  0.00     0.216 C 
BRANCH   4   5
HETATM    5  N1  UNL     1      83.304  70.216  -9.194  1.00  0.00    -0.357 N 
ATOM      6  H1  UNL     1      83.395  71.106  -9.684  1.00  0.00     0.162 HD
BRANCH   5   7
HETATM    7  C5  UNL     1      82.020  69.651  -9.020  1.00  0.00     0.169 C 
HETATM    8  S1  UNL     1      81.531  68.454 -10.052  1.00  0.00    -0.041 SA
BRANCH   7   9
HETATM    9  N2  UNL     1      81.115  70.043  -8.016  1.00  0.00    -0.367 N 
HETATM   10  C6  UNL     1      81.555  70.851  -6.870  1.00  0.00     0.151 C 
HETATM   11  C7  UNL     1      79.705  69.696  -7.990  1.00  0.00     0.151 C 
ENDBRANCH   7   9
ENDBRANCH   5   7
ENDBRANCH   4   5
ENDBRANCH   3   4
TORSDOF 4
ENDMDL
MODEL 3
REMARK VINA RESULT: -4.882991301      1.778      1.974
REMARK  4 active torsions:
REMARK  status: ('A' for Active; 'I' for Inactive)
REMARK    1  A    between atoms: C3_3  and  C4_4 
REMARK    2  A    between atoms: C4_4  and  N1_5 
REMARK    3  A    between atoms: N1_5  and  C5_7 
REMARK    4  A    between atoms: C5_7  and  N2_9 
ROOT
HETATM    1  C1  UNL     1      87.224  69.948 -11.412  1.00  0.00     0.112 C 
HETATM    2  C2  UNL     1      85.859  69.399 -11.553  1.00  0.00    -0.109 C 
HETATM    3  C3  UNL     1      84.739  68.927 -11.655  1.00  0.00    -0.087 C 
ENDROOT
BRANCH   3   4
HETATM    4  C4  UNL     1      83.402  68.338 -11.755  1.00  0.00     0.216 C 
BRANCH   4   5
HETATM    5  N1  UNL     1      82.438  69.285 -11.266  1.00  0.00    -0.357 N 
ATOM      6  H1  UNL     1      82.325  70.177 -11.748  1.00  0.00     0.162 HD
BRANCH   5   7
HETATM    7  C5  UNL     1      81.643  69.006 -10.132  1.00  0.00     0.169 C 
HETATM    8  S1  UNL     1      80.166  68.295 -10.349  1.00  0.00    -0.041 SA
BRANCH   7   9
HETATM    9  N2  UNL     1      82.026  69.299  -8.809  1.00  0.00    -0.367 N 
HETATM   10  C6  UNL     1      81.116  69.051  -7.681  1.00  0.00     0.151 C 
HETATM   11  C7  UNL     1      83.303  69.871  -8.423  1.00  0.00     0.151 C 
ENDBRANCH   7   9
ENDBRANCH   5   7
ENDBRANCH   4   5
ENDBRANCH   3   4
TORSDOF 4
ENDMDL
MODEL 4
REMARK VINA RESULT: -4.811914413      1.585      2.206
REMARK  4 active torsions:
REMARK  status: ('A' for Active; 'I' for Inactive)
REMARK    1  A    between atoms: C3_3  and  C4_4 
REMARK    2  A    between atoms: C4_4  and  N1_5 
REMARK    3  A    between atoms: N1_5  and  C5_7 
REMARK    4  A    between atoms: C5_7  and  N2_9 
ROOT
HETATM    1  C1  UNL     1      87.243  69.660 -11.699  1.00  0.00     0.112 C 
HETATM    2  C2  UNL     1      86.279  69.671 -10.579  1.00  0.00    -0.109 C 
HETATM    3  C3  UNL     1      85.469  69.665  -9.667  1.00  0.00    -0.087 C 
ENDROOT
BRANCH   3   4
HETATM    4  C4  UNL     1      84.479  69.635  -8.588  1.00  0.00     0.216 C 
BRANCH   4   5
HETATM    5  N1  UNL     1      83.302  70.340  -9.016  1.00  0.00    -0.357 N 
ATOM      6  H1  UNL     1      83.392  71.293  -9.369  1.00  0.00     0.162 HD
BRANCH   5   7
HETATM    7  C5  UNL     1      82.024  69.741  -8.958  1.00  0.00     0.169 C 
HETATM    8  S1  UNL     1      81.164  69.832  -7.548  1.00  0.00    -0.041 SA
BRANCH   7   9
HETATM    9  N2  UNL     1      81.422  69.060 -10.033  1.00  0.00    -0.367 N 
HETATM   10  C6  UNL     1      82.229  68.521 -11.138  1.00  0.00     0.151 C 
HETATM   11  C7  UNL     1      79.996  68.834 -10.177  1.00  0.00     0.151 C 
ENDBRANCH   7   9
ENDBRANCH   5   7
ENDBRANCH   4   5
ENDBRANCH   3   4
TORSDOF 4
ENDMDL
MODEL 5
REMARK VINA RESULT: -4.795597769      1.462      1.887
REMARK  4 active torsions:
REMARK  status: ('A' for Active; 'I' for Inactive)
REMARK    1  A    between atoms: C3_3  and  C4_4 
REMARK    2  A    between atoms: C4_4  and  N1_5 
REMARK    3  A    between atoms: N1_5  and  C5_7 
REMARK    4  A    between atoms: C5_7  and  N2_9 
ROOT
HETATM    1  C1  UNL     1      87.258  69.663 -11.747  1.00  0.00     0.112 C 
HETATM    2  C2  UNL     1      86.258  69.668 -10.659  1.00  0.00    -0.109 C 
HETATM    3  C3  UNL     1      85.429  69.648  -9.764  1.00  0.00    -0.087 C 
ENDROOT
BRANCH   3   4
HETATM    4  C4  UNL     1      84.432  69.593  -8.693  1.00  0.00     0.216 C 
BRANCH   4   5
HETATM    5  N1  UNL     1      83.251  70.291  -9.120  1.00  0.00    -0.357 N 
ATOM      6  H1  UNL     1      83.325  70.997  -9.852  1.00  0.00     0.162 HD
BRANCH   5   7
HETATM    7  C5  UNL     1      81.988  70.018  -8.546  1.00  0.00     0.169 C 
HETATM    8  S1  UNL     1      81.621  70.681  -7.076  1.00  0.00    -0.041 SA
BRANCH   7   9
HETATM    9  N2  UNL     1      81.006  69.207  -9.148  1.00  0.00    -0.367 N 
HETATM   10  C6  UNL     1      79.850  68.721  -8.383  1.00  0.00     0.151 C 
HETATM   11  C7  UNL     1      81.031  68.764 -10.530  1.00  0.00     0.151 C 
ENDBRANCH   7   9
ENDBRANCH   5   7
ENDBRANCH   4   5
ENDBRANCH   3   4
TORSDOF 4
ENDMDL
