MODEL 1
REMARK VINA RESULT: -5.045673800      0.000      0.000
REMARK  1 active torsions:
REMARK  status: ('A' for Active; 'I' for Inactive)
REMARK    1  A    between atoms: C2_2  and  N1_3 
REMARK       I    between atoms: C3_5  and  N2_6 
REMARK       I    between atoms: C3_5  and  N4_11 
ROOT
HETATM    1  N1  UNL     1      84.042  69.417  -9.882  1.00  0.00    -0.227 N 
ATOM      2  H1  UNL     1      83.422  69.403  -9.072  1.00  0.00     0.177 HD
HETATM    3  C3  UNL     1      83.512  69.099 -10.971  1.00  0.00     0.676 C 
HETATM    4  N2  UNL     1      82.153  68.753 -11.042  1.00  0.00    -0.183 N 
ATOM      5  H2  UNL     1      81.864  68.156 -11.817  1.00  0.00     0.185 HD
HETATM    6  C4  UNL     1      81.247  69.118 -10.221  1.00  0.00     0.105 C 
HETATM    7  C5  UNL     1      79.848  68.683 -10.407  1.00  0.00     0.086 C 
HETATM    8  N3  UNL     1      81.533  69.950  -9.102  1.00  0.00    -0.087 NA
HETATM    9  N4  UNL     1      84.270  69.082 -12.155  1.00  0.00    -0.227 N 
HETATM   10  C6  UNL     1      84.805  67.834 -12.661  1.00  0.00     0.168 C 
HETATM   11  C7  UNL     1      84.540  70.290 -12.898  1.00  0.00     0.168 C 
ENDROOT
BRANCH   1  12
HETATM   12  C2  UNL     1      85.391  69.794  -9.614  1.00  0.00     0.133 C 
HETATM   13  C1  UNL     1      86.363  68.670  -9.542  1.00  0.00     0.027 C 
ENDBRANCH   1  12
TORSDOF 1
ENDMDL
MODEL 2
REMARK VINA RESULT: -4.947440466      1.030      1.084
REMARK  1 active torsions:
REMARK  status: ('A' for Active; 'I' for Inactive)
REMARK    1  A    between atoms: C2_2  and  N1_3 
REMARK       I    between atoms: C3_5  and  N2_6 
REMARK       I    between atoms: C3_5  and  N4_11 
ROOT
HETATM    1  N1  UNL     1      84.894  69.086  -9.748  1.00  0.00    -0.227 N 
ATOM      2  H1  UNL     1      84.544  69.133  -8.791  1.00  0.00     0.177 HD
HETATM    3  C3  UNL     1      84.016  69.007 -10.638  1.00  0.00     0.676 C 
HETATM    4  N2  UNL     1      82.651  68.985 -10.311  1.00  0.00    -0.183 N 
ATOM      5  H2  UNL     1      82.019  68.549 -10.982  1.00  0.00     0.185 HD
HETATM    6  C4  UNL     1      82.132  69.462  -9.247  1.00  0.00     0.105 C 
HETATM    7  C5  UNL     1      80.675  69.375  -9.021  1.00  0.00     0.086 C 
HETATM    8  N3  UNL     1      82.917  70.093  -8.241  1.00  0.00    -0.087 NA
HETATM    9  N4  UNL     1      84.382  68.936 -11.994  1.00  0.00    -0.227 N 
HETATM   10  C6  UNL     1      84.429  67.657 -12.672  1.00  0.00     0.168 C 
HETATM   11  C7  UNL     1      84.718  70.120 -12.750  1.00  0.00     0.168 C 
ENDROOT
BRANCH   1  12
HETATM   12  C2  UNL     1      86.313  69.121  -9.883  1.00  0.00     0.133 C 
HETATM   13  C1  UNL     1      86.949  67.826 -10.245  1.00  0.00     0.027 C 
ENDBRANCH   1  12
TORSDOF 1
ENDMDL
MODEL 3
REMARK VINA RESULT: -4.773288970      1.435      2.925
REMARK  1 active torsions:
REMARK  status: ('A' for Active; 'I' for Inactive)
REMARK    1  A    between atoms: C2_2  and  N1_3 
REMARK       I    between atoms: C3_5  and  N2_6 
REMARK       I    between atoms: C3_5  and  N4_11 
ROOT
HETATM    1  N1  UNL     1      83.931  69.187 -11.480  1.00  0.00    -0.227 N 
ATOM      2  H1  UNL     1      82.928  69.369 -11.511  1.00  0.00     0.177 HD
HETATM    3  C3  UNL     1      84.407  68.994 -10.338  1.00  0.00     0.676 C 
HETATM    4  N2  UNL     1      83.591  69.033  -9.196  1.00  0.00    -0.183 N 
ATOM      5  H2  UNL     1      84.043  69.252  -8.309  1.00  0.00     0.185 HD
HETATM    6  C4  UNL     1      82.334  68.818  -9.172  1.00  0.00     0.105 C 
HETATM    7  C5  UNL     1      81.587  68.889  -7.899  1.00  0.00     0.086 C 
HETATM    8  N3  UNL     1      81.598  68.504 -10.349  1.00  0.00    -0.087 NA
HETATM    9  N4  UNL     1      85.779  68.733 -10.173  1.00  0.00    -0.227 N 
HETATM   10  C6  UNL     1      86.683  69.798  -9.789  1.00  0.00     0.168 C 
HETATM   11  C7  UNL     1      86.329  67.414 -10.376  1.00  0.00     0.168 C 
ENDROOT
BRANCH   1  12
HETATM   12  C2  UNL     1      84.593  69.187 -12.743  1.00  0.00     0.133 C 
HETATM   13  C1  UNL     1      85.042  70.521 -13.225  1.00  0.00     0.027 C 
ENDBRANCH   1  12
TORSDOF 1
ENDMDL
MODEL 4
REMARK VINA RESULT: -4.388710743      1.628      4.784
REMARK  1 active torsions:
REMARK  status: ('A' for Active; 'I' for Inactive)
REMARK    1  A    between atoms: C2_2  and  N1_3 
REMARK       I    between atoms: C3_5  and  N2_6 
REMARK       I    between atoms: C3_5  and  N4_11 
ROOT
HETATM    1  N1  UNL     1      82.179  69.087 -10.339  1.00  0.00    -0.227 N 
ATOM      2  H1  UNL     1      82.845  68.841 -11.071  1.00  0.00     0.177 HD
HETATM    3  C3  UNL     1      82.677  69.308  -9.211  1.00  0.00     0.676 C 
HETATM    4  N2  UNL     1      84.061  69.216  -8.999  1.00  0.00    -0.183 N 
ATOM      5  H2  UNL     1      84.375  69.025  -8.048  1.00  0.00     0.185 HD
HETATM    6  C4  UNL     1      84.962  69.349  -9.893  1.00  0.00     0.105 C 
HETATM    7  C5  UNL     1      86.391  69.229  -9.539  1.00  0.00     0.086 C 
HETATM    8  N3  UNL     1      84.643  69.617 -11.253  1.00  0.00    -0.087 NA
HETATM    9  N4  UNL     1      81.854  69.656  -8.125  1.00  0.00    -0.227 N 
HETATM   10  C6  UNL     1      81.453  68.651  -7.162  1.00  0.00     0.168 C 
HETATM   11  C7  UNL     1      81.386  71.009  -7.933  1.00  0.00     0.168 C 
ENDROOT
BRANCH   1  12
HETATM   12  C2  UNL     1      80.812  69.131 -10.744  1.00  0.00     0.133 C 
HETATM   13  C1  UNL     1      80.041  67.880 -10.513  1.00  0.00     0.027 C 
ENDBRANCH   1  12
TORSDOF 1
ENDMDL
MODEL 5
REMARK VINA RESULT: -4.263944081      1.598      4.315
REMARK  1 active torsions:
REMARK  status: ('A' for Active; 'I' for Inactive)
REMARK    1  A    between atoms: C2_2  and  N1_3 
REMARK       I    between atoms: C3_5  and  N2_6 
REMARK       I    between atoms: C3_5  and  N4_11 
ROOT
HETATM    1  N1  UNL     1      82.153  68.964  -9.031  1.00  0.00    -0.227 N 
ATOM      2  H1  UNL     1      83.122  69.274  -8.958  1.00  0.00     0.177 HD
HETATM    3  C3  UNL     1      81.752  68.722 -10.193  1.00  0.00     0.676 C 
HETATM    4  N2  UNL     1      82.602  68.877 -11.300  1.00  0.00    -0.183 N 
ATOM      5  H2  UNL     1      82.162  69.043 -12.205  1.00  0.00     0.185 HD
HETATM    6  C4  UNL     1      83.877  68.827 -11.273  1.00  0.00     0.105 C 
HETATM    7  C5  UNL     1      84.659  69.006 -12.513  1.00  0.00     0.086 C 
HETATM    8  N3  UNL     1      84.598  68.600 -10.068  1.00  0.00    -0.087 NA
HETATM    9  N4  UNL     1      80.433  68.287 -10.416  1.00  0.00    -0.227 N 
HETATM   10  C6  UNL     1      79.415  69.229 -10.833  1.00  0.00     0.168 C 
HETATM   11  C7  UNL     1      80.052  66.906 -10.241  1.00  0.00     0.168 C 
ENDROOT
BRANCH   1  12
HETATM   12  C2  UNL     1      81.445  68.867  -7.797  1.00  0.00     0.133 C 
HETATM   13  C1  UNL     1      80.907  70.150  -7.271  1.00  0.00     0.027 C 
ENDBRANCH   1  12
TORSDOF 1
ENDMDL
