MODEL 1
REMARK VINA RESULT: -6.021304611      0.000      0.000
REMARK  6 active torsions:
REMARK  status: ('A' for Active; 'I' for Inactive)
REMARK       I    between atoms: C1_4  and  N3_6 
REMARK    1  A    between atoms: N3_6  and  N4_8 
REMARK    2  A    between atoms: C2_10  and  C3_11 
REMARK    3  A    between atoms: C5_15  and  C6_16 
REMARK    4  A    between atoms: C6_16  and  C7_17 
REMARK    5  A    between atoms: C7_17  and  N6_18 
REMARK    6  A    between atoms: C7_17  and  C8_22 
ROOT
HETATM    1  C3  UNL     1       8.272  13.953  39.092  1.00  0.00     0.164 A 
HETATM    2  N5  UNL     1       9.332  14.642  39.491  1.00  0.00    -0.343 N 
ATOM      3  H5  UNL     1       9.541  14.894  40.458  1.00  0.00     0.167 HD
HETATM    4  C4  UNL     1      10.086  14.957  38.427  1.00  0.00     0.123 A 
HETATM    5  C5  UNL     1       9.439  14.428  37.336  1.00  0.00     0.073 A 
HETATM    6  O2  UNL     1       8.364  13.837  37.771  1.00  0.00    -0.295 OA
ENDROOT
BRANCH   1   7
HETATM    7  C2  UNL     1       7.172  13.388  39.857  1.00  0.00     0.163 C 
HETATM    8  N4  UNL     1       5.986  13.312  39.484  1.00  0.00    -0.305 N 
ATOM      9  H4  UNL     1       5.346  12.884  40.152  1.00  0.00     0.186 HD
BRANCH   8  10
HETATM   10  N3  UNL     1       5.428  13.711  38.329  1.00  0.00    -0.274 N 
HETATM   11  C1  UNL     1       4.055  14.149  38.318  1.00  0.00     0.200 C 
HETATM   12  N1  UNL     1       3.065  13.349  38.442  1.00  0.00    -0.372 N 
HETATM   13  N2  UNL     1       3.867  15.551  38.156  1.00  0.00    -0.062 NA
ATOM     14  H12 UNL     1       2.093  13.659  38.434  1.00  0.00     0.158 HD
ATOM     15  H11 UNL     1       3.200  12.344  38.558  1.00  0.00     0.158 HD
ATOM     16  H3  UNL     1       5.973  13.705  37.465  1.00  0.00     0.189 HD
ENDBRANCH   8  10
ENDBRANCH   1   7
BRANCH   5  17
HETATM   17  C6  UNL     1       9.894  14.515  35.897  1.00  0.00     0.108 C 
BRANCH  17  18
HETATM   18  C7  UNL     1       9.834  13.149  35.249  1.00  0.00     0.277 C 
BRANCH  18  19
HETATM   19  N6  UNL     1      11.025  13.039  34.430  1.00  0.00    -0.067 N 
ATOM     20  H63 UNL     1      10.863  13.254  33.446  1.00  0.00     0.275 HD
ATOM     21  H62 UNL     1      11.709  13.774  34.606  1.00  0.00     0.275 HD
ATOM     22  H61 UNL     1      11.390  12.099  34.586  1.00  0.00     0.275 HD
ENDBRANCH  18  19
BRANCH  18  23
HETATM   23  C8  UNL     1       8.641  13.038  34.377  1.00  0.00     0.262 C 
HETATM   24  N7  UNL     1       8.014  14.201  33.834  1.00  0.00    -0.060 NA
HETATM   25  O1  UNL     1       8.155  11.922  34.097  1.00  0.00    -0.275 OA
ENDBRANCH  18  23
ENDBRANCH  17  18
ENDBRANCH   5  17
TORSDOF 6
ENDMDL
MODEL 2
REMARK VINA RESULT: -5.848347920      1.209      1.470
REMARK  6 active torsions:
REMARK  status: ('A' for Active; 'I' for Inactive)
REMARK       I    between atoms: C1_4  and  N3_6 
REMARK    1  A    between atoms: N3_6  and  N4_8 
REMARK    2  A    between atoms: C2_10  and  C3_11 
REMARK    3  A    between atoms: C5_15  and  C6_16 
REMARK    4  A    between atoms: C6_16  and  C7_17 
REMARK    5  A    between atoms: C7_17  and  N6_18 
REMARK    6  A    between atoms: C7_17  and  C8_22 
ROOT
HETATM    1  C3  UNL     1       9.319  14.658  39.308  1.00  0.00     0.164 A 
HETATM    2  N5  UNL     1      10.286  15.566  39.329  1.00  0.00    -0.343 N 
ATOM      3  H5  UNL     1      10.598  16.076  40.156  1.00  0.00     0.167 HD
HETATM    4  C4  UNL     1      10.789  15.709  38.094  1.00  0.00     0.123 A 
HETATM    5  C5  UNL     1      10.083  14.841  37.295  1.00  0.00     0.073 A 
HETATM    6  O2  UNL     1       9.217  14.233  38.054  1.00  0.00    -0.295 OA
ENDROOT
BRANCH   1   7
HETATM    7  C2  UNL     1       8.477  14.154  40.381  1.00  0.00     0.163 C 
HETATM    8  N4  UNL     1       7.237  14.251  40.444  1.00  0.00    -0.305 N 
ATOM      9  H4  UNL     1       6.809  13.837  41.272  1.00  0.00     0.186 HD
BRANCH   8  10
HETATM   10  N3  UNL     1       6.382  14.821  39.579  1.00  0.00    -0.274 N 
HETATM   11  C1  UNL     1       5.639  13.992  38.664  1.00  0.00     0.200 C 
HETATM   12  N1  UNL     1       6.172  13.414  37.654  1.00  0.00    -0.372 N 
HETATM   13  N2  UNL     1       4.253  13.853  38.958  1.00  0.00    -0.062 NA
ATOM     14  H12 UNL     1       5.646  12.827  37.006  1.00  0.00     0.158 HD
ATOM     15  H11 UNL     1       7.165  13.513  37.443  1.00  0.00     0.158 HD
ATOM     16  H3  UNL     1       6.259  15.834  39.570  1.00  0.00     0.189 HD
ENDBRANCH   8  10
ENDBRANCH   1   7
BRANCH   5  17
HETATM   17  C6  UNL     1      10.278  14.631  35.811  1.00  0.00     0.108 C 
BRANCH  17  18
HETATM   18  C7  UNL     1      10.226  13.155  35.484  1.00  0.00     0.277 C 
BRANCH  18  19
HETATM   19  N6  UNL     1      11.255  12.927  34.487  1.00  0.00    -0.067 N 
ATOM     20  H63 UNL     1      10.934  13.076  33.531  1.00  0.00     0.275 HD
ATOM     21  H62 UNL     1      11.984  13.640  34.486  1.00  0.00     0.275 HD
ATOM     22  H61 UNL     1      11.608  11.985  34.655  1.00  0.00     0.275 HD
ENDBRANCH  18  19
BRANCH  18  23
HETATM   23  C8  UNL     1       8.911  12.795  34.904  1.00  0.00     0.262 C 
HETATM   24  N7  UNL     1       8.545  13.218  33.590  1.00  0.00    -0.060 NA
HETATM   25  O1  UNL     1       8.091  12.114  35.553  1.00  0.00    -0.275 OA
ENDBRANCH  18  23
ENDBRANCH  17  18
ENDBRANCH   5  17
TORSDOF 6
ENDMDL
MODEL 3
REMARK VINA RESULT: -5.706799060      1.050      1.263
REMARK  6 active torsions:
REMARK  status: ('A' for Active; 'I' for Inactive)
REMARK       I    between atoms: C1_4  and  N3_6 
REMARK    1  A    between atoms: N3_6  and  N4_8 
REMARK    2  A    between atoms: C2_10  and  C3_11 
REMARK    3  A    between atoms: C5_15  and  C6_16 
REMARK    4  A    between atoms: C6_16  and  C7_17 
REMARK    5  A    between atoms: C7_17  and  N6_18 
REMARK    6  A    between atoms: C7_17  and  C8_22 
ROOT
HETATM    1  C3  UNL     1       8.127  14.274  38.928  1.00  0.00     0.164 A 
HETATM    2  N5  UNL     1       9.276  14.653  39.472  1.00  0.00    -0.343 N 
ATOM      3  H5  UNL     1       9.432  14.810  40.468  1.00  0.00     0.167 HD
HETATM    4  C4  UNL     1      10.199  14.797  38.509  1.00  0.00     0.123 A 
HETATM    5  C5  UNL     1       9.565  14.489  37.329  1.00  0.00     0.073 A 
HETATM    6  O2  UNL     1       8.333  14.182  37.618  1.00  0.00    -0.295 OA
ENDROOT
BRANCH   1   7
HETATM    7  C2  UNL     1       6.841  13.989  39.544  1.00  0.00     0.163 C 
HETATM    8  N4  UNL     1       5.780  14.607  39.340  1.00  0.00    -0.305 N 
ATOM      9  H4  UNL     1       4.971  14.268  39.860  1.00  0.00     0.186 HD
BRANCH   8  10
HETATM   10  N3  UNL     1       5.546  15.657  38.534  1.00  0.00    -0.274 N 
HETATM   11  C1  UNL     1       5.070  15.429  37.193  1.00  0.00     0.200 C 
HETATM   12  N1  UNL     1       5.809  14.961  36.258  1.00  0.00    -0.372 N 
HETATM   13  N2  UNL     1       3.705  15.765  36.968  1.00  0.00    -0.062 NA
ATOM     14  H12 UNL     1       5.472  14.801  35.309  1.00  0.00     0.158 HD
ATOM     15  H11 UNL     1       6.787  14.721  36.419  1.00  0.00     0.158 HD
ATOM     16  H3  UNL     1       5.704  16.607  38.869  1.00  0.00     0.189 HD
ENDBRANCH   8  10
ENDBRANCH   1   7
BRANCH   5  17
HETATM   17  C6  UNL     1      10.185  14.502  35.950  1.00  0.00     0.108 C 
BRANCH  17  18
HETATM   18  C7  UNL     1      10.015  13.152  35.291  1.00  0.00     0.277 C 
BRANCH  18  19
HETATM   19  N6  UNL     1      11.149  12.992  34.401  1.00  0.00    -0.067 N 
ATOM     20  H63 UNL     1      11.852  12.341  34.752  1.00  0.00     0.275 HD
ATOM     21  H62 UNL     1      10.926  12.483  33.546  1.00  0.00     0.275 HD
ATOM     22  H61 UNL     1      11.511  13.930  34.232  1.00  0.00     0.275 HD
ENDBRANCH  18  19
BRANCH  18  23
HETATM   23  C8  UNL     1       8.769  13.116  34.489  1.00  0.00     0.262 C 
HETATM   24  N7  UNL     1       8.143  14.321  34.047  1.00  0.00    -0.060 NA
HETATM   25  O1  UNL     1       8.236  12.029  34.184  1.00  0.00    -0.275 OA
ENDBRANCH  18  23
ENDBRANCH  17  18
ENDBRANCH   5  17
TORSDOF 6
ENDMDL
MODEL 4
REMARK VINA RESULT: -5.642974258      2.279      5.956
REMARK  6 active torsions:
REMARK  status: ('A' for Active; 'I' for Inactive)
REMARK       I    between atoms: C1_4  and  N3_6 
REMARK    1  A    between atoms: N3_6  and  N4_8 
REMARK    2  A    between atoms: C2_10  and  C3_11 
REMARK    3  A    between atoms: C5_15  and  C6_16 
REMARK    4  A    between atoms: C6_16  and  C7_17 
REMARK    5  A    between atoms: C7_17  and  N6_18 
REMARK    6  A    between atoms: C7_17  and  C8_22 
ROOT
HETATM    1  C3  UNL     1       7.399  13.666  35.881  1.00  0.00     0.164 A 
HETATM    2  N5  UNL     1       6.554  14.630  36.217  1.00  0.00    -0.343 N 
ATOM      3  H5  UNL     1       5.963  15.149  35.566  1.00  0.00     0.167 HD
HETATM    4  C4  UNL     1       6.595  14.818  37.544  1.00  0.00     0.123 A 
HETATM    5  C5  UNL     1       7.516  13.917  38.024  1.00  0.00     0.073 A 
HETATM    6  O2  UNL     1       7.974  13.249  37.005  1.00  0.00    -0.295 OA
ENDROOT
BRANCH   1   7
HETATM    7  C2  UNL     1       7.714  13.099  34.579  1.00  0.00     0.163 C 
HETATM    8  N4  UNL     1       8.795  12.574  34.253  1.00  0.00    -0.305 N 
ATOM      9  H4  UNL     1       8.840  12.228  33.294  1.00  0.00     0.186 HD
BRANCH   8  10
HETATM   10  N3  UNL     1       9.911  12.397  34.980  1.00  0.00    -0.274 N 
HETATM   11  C1  UNL     1      10.924  13.422  34.986  1.00  0.00     0.200 C 
HETATM   12  N1  UNL     1      11.691  13.654  33.988  1.00  0.00    -0.372 N 
HETATM   13  N2  UNL     1      11.021  14.173  36.191  1.00  0.00    -0.062 NA
ATOM     14  H12 UNL     1      12.408  14.379  33.992  1.00  0.00     0.158 HD
ATOM     15  H11 UNL     1      11.622  13.116  33.124  1.00  0.00     0.158 HD
ATOM     16  H3  UNL     1      10.040  11.544  35.524  1.00  0.00     0.189 HD
ENDBRANCH   8  10
ENDBRANCH   1   7
BRANCH   5  17
HETATM   17  C6  UNL     1       7.922  13.736  39.469  1.00  0.00     0.108 C 
BRANCH  17  18
HETATM   18  C7  UNL     1       8.945  14.780  39.856  1.00  0.00     0.277 C 
BRANCH  18  19
HETATM   19  N6  UNL     1       9.991  14.710  38.855  1.00  0.00    -0.067 N 
ATOM     20  H63 UNL     1       9.663  14.381  37.947  1.00  0.00     0.275 HD
ATOM     21  H62 UNL     1      10.319  15.624  38.544  1.00  0.00     0.275 HD
ATOM     22  H61 UNL     1      10.727  14.128  39.255  1.00  0.00     0.275 HD
ENDBRANCH  18  19
BRANCH  18  23
HETATM   23  C8  UNL     1       9.530  14.471  41.182  1.00  0.00     0.262 C 
HETATM   24  N7  UNL     1      10.458  15.361  41.804  1.00  0.00    -0.060 NA
HETATM   25  O1  UNL     1       9.224  13.422  41.787  1.00  0.00    -0.275 OA
ENDBRANCH  18  23
ENDBRANCH  17  18
ENDBRANCH   5  17
TORSDOF 6
ENDMDL
MODEL 5
REMARK VINA RESULT: -5.573131578      1.834      2.168
REMARK  6 active torsions:
REMARK  status: ('A' for Active; 'I' for Inactive)
REMARK       I    between atoms: C1_4  and  N3_6 
REMARK    1  A    between atoms: N3_6  and  N4_8 
REMARK    2  A    between atoms: C2_10  and  C3_11 
REMARK    3  A    between atoms: C5_15  and  C6_16 
REMARK    4  A    between atoms: C6_16  and  C7_17 
REMARK    5  A    between atoms: C7_17  and  N6_18 
REMARK    6  A    between atoms: C7_17  and  C8_22 
ROOT
HETATM    1  C3  UNL     1       6.311  13.625  39.526  1.00  0.00     0.164 A 
HETATM    2  N5  UNL     1       7.488  14.135  39.864  1.00  0.00    -0.343 N 
ATOM      3  H5  UNL     1       7.710  14.557  40.765  1.00  0.00     0.167 HD
HETATM    4  C4  UNL     1       8.339  14.008  38.835  1.00  0.00     0.123 A 
HETATM    5  C5  UNL     1       7.630  13.391  37.831  1.00  0.00     0.073 A 
HETATM    6  O2  UNL     1       6.427  13.179  38.280  1.00  0.00    -0.295 OA
ENDROOT
BRANCH   1   7
HETATM    7  C2  UNL     1       5.076  13.522  40.287  1.00  0.00     0.163 C 
HETATM    8  N4  UNL     1       3.927  13.450  39.810  1.00  0.00    -0.305 N 
ATOM      9  H4  UNL     1       3.174  13.383  40.495  1.00  0.00     0.186 HD
BRANCH   8  10
HETATM   10  N3  UNL     1       3.537  13.450  38.525  1.00  0.00    -0.274 N 
HETATM   11  C1  UNL     1       2.925  14.631  37.968  1.00  0.00     0.200 C 
HETATM   12  N1  UNL     1       1.737  15.007  38.260  1.00  0.00    -0.372 N 
HETATM   13  N2  UNL     1       3.738  15.364  37.058  1.00  0.00    -0.062 NA
ATOM     14  H12 UNL     1       1.304  15.842  37.866  1.00  0.00     0.158 HD
ATOM     15  H11 UNL     1       1.155  14.481  38.912  1.00  0.00     0.158 HD
ATOM     16  H3  UNL     1       3.672  12.620  37.946  1.00  0.00     0.189 HD
ENDBRANCH   8  10
ENDBRANCH   1   7
BRANCH   5  17
HETATM   17  C6  UNL     1       8.153  13.027  36.460  1.00  0.00     0.108 C 
BRANCH  17  18
HETATM   18  C7  UNL     1       7.789  14.103  35.462  1.00  0.00     0.277 C 
BRANCH  18  19
HETATM   19  N6  UNL     1       6.510  14.636  35.894  1.00  0.00    -0.067 N 
ATOM     20  H63 UNL     1       6.544  15.078  36.813  1.00  0.00     0.275 HD
ATOM     21  H62 UNL     1       6.217  15.461  35.371  1.00  0.00     0.275 HD
ATOM     22  H61 UNL     1       5.848  13.863  35.839  1.00  0.00     0.275 HD
ENDBRANCH  18  19
BRANCH  18  23
HETATM   23  C8  UNL     1       7.633  13.526  34.106  1.00  0.00     0.262 C 
HETATM   24  N7  UNL     1       7.209  14.333  33.006  1.00  0.00    -0.060 NA
HETATM   25  O1  UNL     1       7.869  12.319  33.895  1.00  0.00    -0.275 OA
ENDBRANCH  18  23
ENDBRANCH  17  18
ENDBRANCH   5  17
TORSDOF 6
ENDMDL
