MODEL 1
REMARK VINA RESULT: -6.095829106      0.000      0.000
REMARK  3 active torsions:
REMARK  status: ('A' for Active; 'I' for Inactive)
REMARK    1  A    between atoms: C3_3  and  N1_5 
REMARK    2  A    between atoms: C3_3  and  C5_9 
REMARK       I    between atoms: C5_9  and  N2_11 
REMARK       I    between atoms: N2_11  and  C6_13 
REMARK       I    between atoms: C6_13  and  N3_15 
REMARK    3  A    between atoms: N3_15  and  N4_17 
ROOT
HETATM    1  C1  UNL     1      -3.412   9.732   8.774  1.00  0.00     0.015 C 
HETATM    2  C2  UNL     1      -2.319   9.884   9.251  1.00  0.00    -0.069 C 
HETATM    3  C3  UNL     1      -0.974  10.080   9.849  1.00  0.00     0.261 C 
HETATM    4  C4  UNL     1      -0.100  10.909   8.973  1.00  0.00     0.071 C 
ENDROOT
BRANCH   3   5
HETATM    5  N1  UNL     1      -1.194  10.772  11.101  1.00  0.00    -0.051 N 
ATOM      6  H13 UNL     1      -1.857  11.545  11.029  1.00  0.00     0.276 HD
ATOM      7  H12 UNL     1      -1.719  10.224  11.783  1.00  0.00     0.276 HD
ATOM      8  H11 UNL     1      -0.272  11.056  11.429  1.00  0.00     0.276 HD
ENDBRANCH   3   5
BRANCH   3   9
HETATM    9  C5  UNL     1      -0.408   8.730  10.134  1.00  0.00     0.274 C 
HETATM   10  O1  UNL     1      -0.337   8.381  11.327  1.00  0.00    -0.269 OA
HETATM   11  N2  UNL     1       0.038   7.869   9.118  1.00  0.00    -0.275 N 
HETATM   12  C6  UNL     1       0.589   6.580   9.246  1.00  0.00     0.341 C 
ATOM     13  H2  UNL     1      -0.050   8.222   8.164  1.00  0.00     0.173 HD
HETATM   14  O2  UNL     1       0.945   5.928   8.190  1.00  0.00    -0.245 OA
HETATM   15  N3  UNL     1       0.813   5.874  10.454  1.00  0.00    -0.258 N 
ATOM     16  H3  UNL     1       0.564   6.306  11.344  1.00  0.00     0.191 HD
BRANCH  15  17
HETATM   17  N4  UNL     1       1.379   4.572  10.439  1.00  0.00    -0.341 N 
ATOM     18  H42 UNL     1       2.072   4.349   9.724  1.00  0.00     0.177 HD
ATOM     19  H41 UNL     1       1.099   3.874  11.128  1.00  0.00     0.177 HD
ENDBRANCH  15  17
ENDBRANCH   3   9
TORSDOF 3
ENDMDL
MODEL 2
REMARK VINA RESULT: -6.093439569      1.523      1.928
REMARK  3 active torsions:
REMARK  status: ('A' for Active; 'I' for Inactive)
REMARK    1  A    between atoms: C3_3  and  N1_5 
REMARK    2  A    between atoms: C3_3  and  C5_9 
REMARK       I    between atoms: C5_9  and  N2_11 
REMARK       I    between atoms: N2_11  and  C6_13 
REMARK       I    between atoms: C6_13  and  N3_15 
REMARK    3  A    between atoms: N3_15  and  N4_17 
ROOT
HETATM    1  C1  UNL     1      -3.330   9.737   8.785  1.00  0.00     0.015 C 
HETATM    2  C2  UNL     1      -2.252   9.998   9.247  1.00  0.00    -0.069 C 
HETATM    3  C3  UNL     1      -0.926  10.328   9.827  1.00  0.00     0.261 C 
HETATM    4  C4  UNL     1      -0.160  11.259   8.952  1.00  0.00     0.071 C 
ENDROOT
BRANCH   3   5
HETATM    5  N1  UNL     1      -1.196  10.973  11.094  1.00  0.00    -0.051 N 
ATOM      6  H13 UNL     1      -1.648  11.883  11.000  1.00  0.00     0.276 HD
ATOM      7  H12 UNL     1      -1.938  10.523  11.630  1.00  0.00     0.276 HD
ATOM      8  H11 UNL     1      -0.304  11.010  11.585  1.00  0.00     0.276 HD
ENDBRANCH   3   5
BRANCH   3   9
HETATM    9  C5  UNL     1      -0.213   9.043  10.079  1.00  0.00     0.274 C 
HETATM   10  O1  UNL     1       0.222   8.427   9.089  1.00  0.00    -0.269 OA
HETATM   11  N2  UNL     1      -0.026   8.523  11.371  1.00  0.00    -0.275 N 
HETATM   12  C6  UNL     1       0.622   7.333  11.748  1.00  0.00     0.341 C 
ATOM     13  H2  UNL     1      -0.410   9.082  12.135  1.00  0.00     0.173 HD
HETATM   14  O2  UNL     1       0.698   7.013  12.997  1.00  0.00    -0.245 OA
HETATM   15  N3  UNL     1       1.232   6.393  10.881  1.00  0.00    -0.258 N 
ATOM     16  H3  UNL     1       1.223   6.556   9.874  1.00  0.00     0.191 HD
BRANCH  15  17
HETATM   17  N4  UNL     1       1.854   5.226  11.398  1.00  0.00    -0.341 N 
ATOM     18  H42 UNL     1       2.752   5.321  11.874  1.00  0.00     0.177 HD
ATOM     19  H41 UNL     1       1.414   4.312  11.296  1.00  0.00     0.177 HD
ENDBRANCH  15  17
ENDBRANCH   3   9
TORSDOF 3
ENDMDL
MODEL 3
REMARK VINA RESULT: -5.861697384      2.876      5.021
REMARK  3 active torsions:
REMARK  status: ('A' for Active; 'I' for Inactive)
REMARK    1  A    between atoms: C3_3  and  N1_5 
REMARK    2  A    between atoms: C3_3  and  C5_9 
REMARK       I    between atoms: C5_9  and  N2_11 
REMARK       I    between atoms: N2_11  and  C6_13 
REMARK       I    between atoms: C6_13  and  N3_15 
REMARK    3  A    between atoms: N3_15  and  N4_17 
ROOT
HETATM    1  C1  UNL     1       1.621   6.005  11.496  1.00  0.00     0.015 C 
HETATM    2  C2  UNL     1       0.743   6.551  12.110  1.00  0.00    -0.069 C 
HETATM    3  C3  UNL     1      -0.333   7.226  12.879  1.00  0.00     0.261 C 
HETATM    4  C4  UNL     1      -1.345   6.254  13.377  1.00  0.00     0.071 C 
ENDROOT
BRANCH   3   5
HETATM    5  N1  UNL     1       0.321   7.858  14.005  1.00  0.00    -0.051 N 
ATOM      6  H13 UNL     1       1.179   8.351  13.754  1.00  0.00     0.276 HD
ATOM      7  H12 UNL     1      -0.184   8.667  14.367  1.00  0.00     0.276 HD
ATOM      8  H11 UNL     1       0.461   7.122  14.696  1.00  0.00     0.276 HD
ENDBRANCH   3   5
BRANCH   3   9
HETATM    9  C5  UNL     1      -0.916   8.282  12.002  1.00  0.00     0.274 C 
HETATM   10  O1  UNL     1      -2.155   8.413  12.011  1.00  0.00    -0.269 OA
HETATM   11  N2  UNL     1      -0.126   9.109  11.186  1.00  0.00    -0.275 N 
HETATM   12  C6  UNL     1      -0.543  10.135  10.319  1.00  0.00     0.341 C 
ATOM     13  H2  UNL     1       0.881   8.945  11.229  1.00  0.00     0.173 HD
HETATM   14  O2  UNL     1       0.335  10.798   9.642  1.00  0.00    -0.245 OA
HETATM   15  N3  UNL     1      -1.877  10.552  10.084  1.00  0.00    -0.258 N 
ATOM     16  H3  UNL     1      -2.643  10.089  10.573  1.00  0.00     0.191 HD
BRANCH  15  17
HETATM   17  N4  UNL     1      -2.158  11.607   9.177  1.00  0.00    -0.341 N 
ATOM     18  H42 UNL     1      -2.999  11.548   8.603  1.00  0.00     0.177 HD
ATOM     19  H41 UNL     1      -1.532  12.409   9.101  1.00  0.00     0.177 HD
ENDBRANCH  15  17
ENDBRANCH   3   9
TORSDOF 3
ENDMDL
MODEL 4
REMARK VINA RESULT: -5.849635487      3.102      5.086
REMARK  3 active torsions:
REMARK  status: ('A' for Active; 'I' for Inactive)
REMARK    1  A    between atoms: C3_3  and  N1_5 
REMARK    2  A    between atoms: C3_3  and  C5_9 
REMARK       I    between atoms: C5_9  and  N2_11 
REMARK       I    between atoms: N2_11  and  C6_13 
REMARK       I    between atoms: C6_13  and  N3_15 
REMARK    3  A    between atoms: N3_15  and  N4_17 
ROOT
HETATM    1  C1  UNL     1      -3.200   6.485  14.470  1.00  0.00     0.015 C 
HETATM    2  C2  UNL     1      -2.220   6.804  13.850  1.00  0.00    -0.069 C 
HETATM    3  C3  UNL     1      -1.009   7.186  13.082  1.00  0.00     0.261 C 
HETATM    4  C4  UNL     1       0.103   7.602  13.981  1.00  0.00     0.071 C 
ENDROOT
BRANCH   3   5
HETATM    5  N1  UNL     1      -0.615   6.002  12.348  1.00  0.00    -0.051 N 
ATOM      6  H13 UNL     1       0.343   5.707  12.534  1.00  0.00     0.276 HD
ATOM      7  H12 UNL     1      -1.072   5.150  12.674  1.00  0.00     0.276 HD
ATOM      8  H11 UNL     1      -0.794   6.210  11.366  1.00  0.00     0.276 HD
ENDBRANCH   3   5
BRANCH   3   9
HETATM    9  C5  UNL     1      -1.407   8.247  12.113  1.00  0.00     0.274 C 
HETATM   10  O1  UNL     1      -2.613   8.321  11.810  1.00  0.00    -0.269 OA
HETATM   11  N2  UNL     1      -0.481   9.140  11.548  1.00  0.00    -0.275 N 
HETATM   12  C6  UNL     1      -0.720  10.179  10.629  1.00  0.00     0.341 C 
ATOM     13  H2  UNL     1       0.489   9.019  11.841  1.00  0.00     0.173 HD
HETATM   14  O2  UNL     1       0.264  10.906  10.216  1.00  0.00    -0.245 OA
HETATM   15  N3  UNL     1      -1.971  10.544  10.074  1.00  0.00    -0.258 N 
ATOM     16  H3  UNL     1      -2.811  10.028  10.339  1.00  0.00     0.191 HD
BRANCH  15  17
HETATM   17  N4  UNL     1      -2.070  11.620   9.153  1.00  0.00    -0.341 N 
ATOM     18  H42 UNL     1      -2.887  11.671   8.545  1.00  0.00     0.177 HD
ATOM     19  H41 UNL     1      -1.337  12.329   9.099  1.00  0.00     0.177 HD
ENDBRANCH  15  17
ENDBRANCH   3   9
TORSDOF 3
ENDMDL
MODEL 5
REMARK VINA RESULT: -5.835912120      2.960      3.980
REMARK  3 active torsions:
REMARK  status: ('A' for Active; 'I' for Inactive)
REMARK    1  A    between atoms: C3_3  and  N1_5 
REMARK    2  A    between atoms: C3_3  and  C5_9 
REMARK       I    between atoms: C5_9  and  N2_11 
REMARK       I    between atoms: N2_11  and  C6_13 
REMARK       I    between atoms: C6_13  and  N3_15 
REMARK    3  A    between atoms: N3_15  and  N4_17 
ROOT
HETATM    1  C1  UNL     1      -3.383   9.399   9.192  1.00  0.00     0.015 C 
HETATM    2  C2  UNL     1      -2.338   9.415   9.786  1.00  0.00    -0.069 C 
HETATM    3  C3  UNL     1      -1.048   9.448  10.521  1.00  0.00     0.261 C 
HETATM    4  C4  UNL     1       0.095   9.078   9.640  1.00  0.00     0.071 C 
ENDROOT
BRANCH   3   5
HETATM    5  N1  UNL     1      -0.884  10.813  10.973  1.00  0.00    -0.051 N 
ATOM      6  H13 UNL     1       0.091  11.109  11.030  1.00  0.00     0.276 HD
ATOM      7  H12 UNL     1      -1.182  11.508  10.288  1.00  0.00     0.276 HD
ATOM      8  H11 UNL     1      -1.382  10.876  11.860  1.00  0.00     0.276 HD
ENDBRANCH   3   5
BRANCH   3   9
HETATM    9  C5  UNL     1      -1.184   8.557  11.709  1.00  0.00     0.274 C 
HETATM   10  O1  UNL     1      -1.032   7.335  11.526  1.00  0.00    -0.269 OA
HETATM   11  N2  UNL     1      -1.473   9.049  12.992  1.00  0.00    -0.275 N 
HETATM   12  C6  UNL     1      -1.627   8.325  14.189  1.00  0.00     0.341 C 
ATOM     13  H2  UNL     1      -1.585  10.060  13.066  1.00  0.00     0.173 HD
HETATM   14  O2  UNL     1      -1.893   8.952  15.286  1.00  0.00    -0.245 OA
HETATM   15  N3  UNL     1      -1.520   6.921  14.347  1.00  0.00    -0.258 N 
ATOM     16  H3  UNL     1      -1.313   6.337  13.537  1.00  0.00     0.191 HD
BRANCH  15  17
HETATM   17  N4  UNL     1      -1.700   6.318  15.620  1.00  0.00    -0.341 N 
ATOM     18  H42 UNL     1      -1.115   6.630  16.396  1.00  0.00     0.177 HD
ATOM     19  H41 UNL     1      -2.400   5.588  15.757  1.00  0.00     0.177 HD
ENDBRANCH  15  17
ENDBRANCH   3   9
TORSDOF 3
ENDMDL
