MODEL 1
REMARK VINA RESULT: -6.848093339      0.000      0.000
REMARK  5 active torsions:
REMARK  status: ('A' for Active; 'I' for Inactive)
REMARK    1  A    between atoms: C2_5  and  N3_6 
REMARK    2  A    between atoms: N3_6  and  N4_8 
REMARK    3  A    between atoms: N4_8  and  C3_10 
REMARK    4  A    between atoms: C5_17  and  N7_18 
REMARK    5  A    between atoms: N7_18  and  N8_20 
REMARK       I    between atoms: N8_20  and  C6_21 
ROOT
HETATM    1  C1  UNL     1       6.586  18.393  15.929  1.00  0.00     0.180 C 
HETATM    2  N1  UNL     1       7.810  18.018  15.202  1.00  0.00    -0.260 N 
HETATM    3  N2  UNL     1       8.377  18.931  14.418  1.00  0.00    -0.127 N 
ATOM      4  H2  UNL     1       7.972  19.864  14.340  1.00  0.00     0.206 HD
HETATM    5  C2  UNL     1       9.489  18.616  13.729  1.00  0.00     0.714 A 
HETATM    6  N6  UNL     1       9.989  17.382  13.857  1.00  0.00    -0.150 N 
ATOM      7  H6  UNL     1      10.832  17.151  13.330  1.00  0.00     0.188 HD
HETATM    8  C4  UNL     1       9.461  16.443  14.623  1.00  0.00     0.307 A 
HETATM    9  O1  UNL     1       9.891  15.273  14.773  1.00  0.00    -0.263 OA
HETATM   10  C5  UNL     1       8.280  16.763  15.362  1.00  0.00     0.217 A 
ENDROOT
BRANCH   5  11
HETATM   11  N3  UNL     1      10.038  19.522  12.950  1.00  0.00    -0.129 N 
ATOM     12  H3  UNL     1      10.212  20.473  13.278  1.00  0.00     0.205 HD
BRANCH  11  13
HETATM   13  N4  UNL     1      10.376  19.120  11.641  1.00  0.00    -0.264 N 
ATOM     14  H4  UNL     1      11.169  18.493  11.505  1.00  0.00     0.189 HD
BRANCH  13  15
HETATM   15  C3  UNL     1       9.653  19.557  10.517  1.00  0.00     0.200 C 
HETATM   16  N5  UNL     1       9.976  19.077   9.218  1.00  0.00    -0.068 NA
HETATM   17  S1  UNL     1       8.423  20.617  10.637  1.00  0.00    -0.043 SA
ENDBRANCH  13  15
ENDBRANCH  11  13
ENDBRANCH   5  11
BRANCH  10  18
HETATM   18  N7  UNL     1       7.779  15.906  16.081  1.00  0.00    -0.208 N 
ATOM     19  H7  UNL     1       7.497  16.409  16.923  1.00  0.00     0.204 HD
BRANCH  18  20
HETATM   20  N8  UNL     1       7.441  14.719  16.294  1.00  0.00    -0.266 NA
HETATM   21  C6  UNL     1       7.074  13.432  16.527  1.00  0.00     0.424 C 
HETATM   22  N9  UNL     1       7.253  12.503  15.410  1.00  0.00    -0.024 NA
HETATM   23  O2  UNL     1       6.599  12.858  17.540  1.00  0.00    -0.232 OA
ENDBRANCH  18  20
ENDBRANCH  10  18
TORSDOF 5
ENDMDL
MODEL 2
REMARK VINA RESULT: -6.645744239      1.521      1.594
REMARK  5 active torsions:
REMARK  status: ('A' for Active; 'I' for Inactive)
REMARK    1  A    between atoms: C2_5  and  N3_6 
REMARK    2  A    between atoms: N3_6  and  N4_8 
REMARK    3  A    between atoms: N4_8  and  C3_10 
REMARK    4  A    between atoms: C5_17  and  N7_18 
REMARK    5  A    between atoms: N7_18  and  N8_20 
REMARK       I    between atoms: N8_20  and  C6_21 
ROOT
HETATM    1  C1  UNL     1       6.214  18.669  15.956  1.00  0.00     0.180 C 
HETATM    2  N1  UNL     1       7.393  17.893  15.537  1.00  0.00    -0.260 N 
HETATM    3  N2  UNL     1       8.251  18.464  14.694  1.00  0.00    -0.127 N 
ATOM      4  H2  UNL     1       8.090  19.416  14.364  1.00  0.00     0.206 HD
HETATM    5  C2  UNL     1       9.331  17.777  14.280  1.00  0.00     0.714 A 
HETATM    6  N6  UNL     1       9.506  16.531  14.734  1.00  0.00    -0.150 N 
ATOM      7  H6  UNL     1      10.327  16.017  14.415  1.00  0.00     0.188 HD
HETATM    8  C4  UNL     1       8.682  15.923  15.571  1.00  0.00     0.307 A 
HETATM    9  O1  UNL     1       8.802  14.758  16.023  1.00  0.00    -0.263 OA
HETATM   10  C5  UNL     1       7.531  16.640  16.020  1.00  0.00     0.217 A 
ENDROOT
BRANCH   5  11
HETATM   11  N3  UNL     1      10.169  18.346  13.441  1.00  0.00    -0.129 N 
ATOM     12  H3  UNL     1      11.036  17.888  13.159  1.00  0.00     0.205 HD
BRANCH  11  13
HETATM   13  N4  UNL     1       9.814  19.621  12.950  1.00  0.00    -0.264 N 
ATOM     14  H4  UNL     1       9.849  20.421  13.580  1.00  0.00     0.189 HD
BRANCH  13  15
HETATM   15  C3  UNL     1       9.413  19.819  11.617  1.00  0.00     0.200 C 
HETATM   16  N5  UNL     1      10.192  19.304  10.545  1.00  0.00    -0.068 NA
HETATM   17  S1  UNL     1       8.055  20.631  11.231  1.00  0.00    -0.043 SA
ENDBRANCH  13  15
ENDBRANCH  11  13
ENDBRANCH   5  11
BRANCH  10  18
HETATM   18  N7  UNL     1       6.758  16.095  16.800  1.00  0.00    -0.208 N 
ATOM     19  H7  UNL     1       6.961  16.521  17.704  1.00  0.00     0.204 HD
BRANCH  18  20
HETATM   20  N8  UNL     1       5.842  15.273  17.036  1.00  0.00    -0.266 NA
HETATM   21  C6  UNL     1       4.850  14.383  17.294  1.00  0.00     0.424 C 
HETATM   22  N9  UNL     1       4.840  13.176  16.466  1.00  0.00    -0.024 NA
HETATM   23  O2  UNL     1       3.908  14.384  18.128  1.00  0.00    -0.232 OA
ENDBRANCH  18  20
ENDBRANCH  10  18
TORSDOF 5
ENDMDL
MODEL 3
REMARK VINA RESULT: -6.545593587      4.095      6.834
REMARK  5 active torsions:
REMARK  status: ('A' for Active; 'I' for Inactive)
REMARK    1  A    between atoms: C2_5  and  N3_6 
REMARK    2  A    between atoms: N3_6  and  N4_8 
REMARK    3  A    between atoms: N4_8  and  C3_10 
REMARK    4  A    between atoms: C5_17  and  N7_18 
REMARK    5  A    between atoms: N7_18  and  N8_20 
REMARK       I    between atoms: N8_20  and  C6_21 
ROOT
HETATM    1  C1  UNL     1       9.383  19.970  11.290  1.00  0.00     0.180 C 
HETATM    2  N1  UNL     1       9.109  19.474  12.650  1.00  0.00    -0.260 N 
HETATM    3  N2  UNL     1       9.906  18.529  13.143  1.00  0.00    -0.127 N 
ATOM      4  H2  UNL     1      10.687  18.176  12.590  1.00  0.00     0.206 HD
HETATM    5  C2  UNL     1       9.675  18.044  14.376  1.00  0.00     0.714 A 
HETATM    6  N6  UNL     1       8.641  18.533  15.070  1.00  0.00    -0.150 N 
ATOM      7  H6  UNL     1       8.473  18.159  16.004  1.00  0.00     0.188 HD
HETATM    8  C4  UNL     1       7.823  19.470  14.621  1.00  0.00     0.307 A 
HETATM    9  O1  UNL     1       6.840  19.958  15.232  1.00  0.00    -0.263 OA
HETATM   10  C5  UNL     1       8.056  19.996  13.313  1.00  0.00     0.217 A 
ENDROOT
BRANCH   5  11
HETATM   11  N3  UNL     1      10.463  17.105  14.853  1.00  0.00    -0.129 N 
ATOM     12  H3  UNL     1      11.432  17.300  15.109  1.00  0.00     0.205 HD
BRANCH  11  13
HETATM   13  N4  UNL     1       9.908  15.816  14.994  1.00  0.00    -0.264 N 
ATOM     14  H4  UNL     1      10.055  15.130  14.255  1.00  0.00     0.189 HD
BRANCH  13  15
HETATM   15  C3  UNL     1       9.157  15.449  16.125  1.00  0.00     0.200 C 
HETATM   16  N5  UNL     1       9.713  15.566  17.429  1.00  0.00    -0.068 NA
HETATM   17  S1  UNL     1       7.635  14.883  16.010  1.00  0.00    -0.043 SA
ENDBRANCH  13  15
ENDBRANCH  11  13
ENDBRANCH   5  11
BRANCH  10  18
HETATM   18  N7  UNL     1       7.311  20.869  12.882  1.00  0.00    -0.208 N 
ATOM     19  H7  UNL     1       6.699  20.383  12.226  1.00  0.00     0.204 HD
BRANCH  18  20
HETATM   20  N8  UNL     1       6.928  22.061  12.848  1.00  0.00    -0.266 NA
HETATM   21  C6  UNL     1       6.513  23.353  12.810  1.00  0.00     0.424 C 
HETATM   22  N9  UNL     1       6.563  24.080  14.079  1.00  0.00    -0.024 NA
HETATM   23  O2  UNL     1       6.083  24.076  11.875  1.00  0.00    -0.232 OA
ENDBRANCH  18  20
ENDBRANCH  10  18
TORSDOF 5
ENDMDL
MODEL 4
REMARK VINA RESULT: -6.503469067      4.160      6.742
REMARK  5 active torsions:
REMARK  status: ('A' for Active; 'I' for Inactive)
REMARK    1  A    between atoms: C2_5  and  N3_6 
REMARK    2  A    between atoms: N3_6  and  N4_8 
REMARK    3  A    between atoms: N4_8  and  C3_10 
REMARK    4  A    between atoms: C5_17  and  N7_18 
REMARK    5  A    between atoms: N7_18  and  N8_20 
REMARK       I    between atoms: N8_20  and  C6_21 
ROOT
HETATM    1  C1  UNL     1       6.564  19.960  15.181  1.00  0.00     0.180 C 
HETATM    2  N1  UNL     1       7.754  19.462  14.470  1.00  0.00    -0.260 N 
HETATM    3  N2  UNL     1       8.465  18.493  15.041  1.00  0.00    -0.127 N 
ATOM      4  H2  UNL     1       8.178  18.108  15.941  1.00  0.00     0.206 HD
HETATM    5  C2  UNL     1       9.566  18.026  14.424  1.00  0.00     0.714 A 
HETATM    6  N6  UNL     1       9.910  18.558  13.247  1.00  0.00    -0.150 N 
ATOM      7  H6  UNL     1      10.746  18.198  12.786  1.00  0.00     0.188 HD
HETATM    8  C4  UNL     1       9.235  19.520  12.641  1.00  0.00     0.307 A 
HETATM    9  O1  UNL     1       9.519  20.052  11.539  1.00  0.00    -0.263 OA
HETATM   10  C5  UNL     1       8.063  20.027  13.284  1.00  0.00     0.217 A 
ENDROOT
BRANCH   5  11
HETATM   11  N3  UNL     1      10.267  17.074  15.000  1.00  0.00    -0.129 N 
ATOM     12  H3  UNL     1      11.188  17.255  15.398  1.00  0.00     0.205 HD
BRANCH  11  13
HETATM   13  N4  UNL     1       9.685  15.789  15.042  1.00  0.00    -0.264 N 
ATOM     14  H4  UNL     1       9.741  15.193  14.216  1.00  0.00     0.189 HD
BRANCH  13  15
HETATM   15  C3  UNL     1       9.030  15.305  16.189  1.00  0.00     0.200 C 
HETATM   16  N5  UNL     1       9.571  15.542  17.482  1.00  0.00    -0.068 NA
HETATM   17  S1  UNL     1       7.638  14.464  16.103  1.00  0.00    -0.043 SA
ENDBRANCH  13  15
ENDBRANCH  11  13
ENDBRANCH   5  11
BRANCH  10  18
HETATM   18  N7  UNL     1       7.423  20.916  12.735  1.00  0.00    -0.208 N 
ATOM     19  H7  UNL     1       7.072  20.489  11.878  1.00  0.00     0.204 HD
BRANCH  18  20
HETATM   20  N8  UNL     1       6.985  22.089  12.705  1.00  0.00    -0.266 NA
HETATM   21  C6  UNL     1       6.512  23.362  12.672  1.00  0.00     0.424 C 
HETATM   22  N9  UNL     1       6.512  24.080  13.947  1.00  0.00    -0.024 NA
HETATM   23  O2  UNL     1       6.060  24.072  11.737  1.00  0.00    -0.232 OA
ENDBRANCH  18  20
ENDBRANCH  10  18
TORSDOF 5
ENDMDL
MODEL 5
REMARK VINA RESULT: -6.411522371      4.450      7.278
REMARK  5 active torsions:
REMARK  status: ('A' for Active; 'I' for Inactive)
REMARK    1  A    between atoms: C2_5  and  N3_6 
REMARK    2  A    between atoms: N3_6  and  N4_8 
REMARK    3  A    between atoms: N4_8  and  C3_10 
REMARK    4  A    between atoms: C5_17  and  N7_18 
REMARK    5  A    between atoms: N7_18  and  N8_20 
REMARK       I    between atoms: N8_20  and  C6_21 
ROOT
HETATM    1  C1  UNL     1       7.076  21.305  12.684  1.00  0.00     0.180 C 
HETATM    2  N1  UNL     1       8.195  20.416  12.326  1.00  0.00    -0.260 N 
HETATM    3  N2  UNL     1       8.713  19.647  13.280  1.00  0.00    -0.127 N 
ATOM      4  H2  UNL     1       8.329  19.673  14.226  1.00  0.00     0.206 HD
HETATM    5  C2  UNL     1       9.745  18.834  12.991  1.00  0.00     0.714 A 
HETATM    6  N6  UNL     1      10.220  18.829  11.740  1.00  0.00    -0.150 N 
ATOM      7  H6  UNL     1      11.003  18.210  11.529  1.00  0.00     0.188 HD
HETATM    8  C4  UNL     1       9.739  19.575  10.760  1.00  0.00     0.307 A 
HETATM    9  O1  UNL     1      10.151  19.607   9.575  1.00  0.00    -0.263 OA
HETATM   10  C5  UNL     1       8.642  20.443  11.053  1.00  0.00     0.217 A 
ENDROOT
BRANCH   5  11
HETATM   11  N3  UNL     1      10.255  18.083  13.942  1.00  0.00    -0.129 N 
ATOM     12  H3  UNL     1      11.089  17.515  13.785  1.00  0.00     0.205 HD
BRANCH  11  13
HETATM   13  N4  UNL     1       9.595  18.097  15.189  1.00  0.00    -0.264 N 
ATOM     14  H4  UNL     1       8.683  18.547  15.262  1.00  0.00     0.189 HD
BRANCH  13  15
HETATM   15  C3  UNL     1      10.159  17.509  16.336  1.00  0.00     0.200 C 
HETATM   16  N5  UNL     1      11.243  18.135  17.009  1.00  0.00    -0.068 NA
HETATM   17  S1  UNL     1       9.610  16.104  16.949  1.00  0.00    -0.043 SA
ENDBRANCH  13  15
ENDBRANCH  11  13
ENDBRANCH   5  11
BRANCH  10  18
HETATM   18  N7  UNL     1       8.180  21.139  10.156  1.00  0.00    -0.208 N 
ATOM     19  H7  UNL     1       8.533  22.077  10.350  1.00  0.00     0.204 HD
BRANCH  18  20
HETATM   20  N8  UNL     1       7.489  21.270   9.119  1.00  0.00    -0.266 NA
HETATM   21  C6  UNL     1       6.741  21.411   7.995  1.00  0.00     0.424 C 
HETATM   22  N9  UNL     1       6.722  22.748   7.400  1.00  0.00    -0.024 NA
HETATM   23  O2  UNL     1       6.039  20.599   7.339  1.00  0.00    -0.232 OA
ENDBRANCH  18  20
ENDBRANCH  10  18
TORSDOF 5
ENDMDL
