MODEL 1
REMARK VINA RESULT: -5.948286383      0.000      0.000
REMARK  4 active torsions:
REMARK  status: ('A' for Active; 'I' for Inactive)
REMARK    1  A    between atoms: N1_2  and  C2_4 
REMARK    2  A    between atoms: C3_7  and  N3_8 
REMARK    3  A    between atoms: C5_15  and  C6_16 
REMARK    4  A    between atoms: C6_16  and  N5_17 
ROOT
HETATM    1  C2  UNL     1      28.256  50.706  59.028  1.00  0.00     0.127 A 
HETATM    2  N2  UNL     1      27.930  49.795  59.978  1.00  0.00    -0.177 N 
ATOM      3  H2  UNL     1      27.790  48.812  59.739  1.00  0.00     0.186 HD
HETATM    4  C3  UNL     1      27.798  50.225  61.241  1.00  0.00     0.678 A 
HETATM    5  N4  UNL     1      27.980  51.523  61.576  1.00  0.00    -0.181 N 
ATOM      6  H4  UNL     1      27.870  51.809  62.549  1.00  0.00     0.185 HD
HETATM    7  C4  UNL     1      28.304  52.449  60.645  1.00  0.00     0.131 A 
HETATM    8 CL1  UNL     1      28.530  54.132  61.132  1.00  0.00    -0.063 Cl
HETATM    9  C5  UNL     1      28.446  52.043  59.350  1.00  0.00     0.051 A 
ENDROOT
BRANCH   9  10
HETATM   10  C6  UNL     1      28.799  52.996  58.277  1.00  0.00     0.275 C 
BRANCH  10  11
HETATM   11  N5  UNL     1      30.195  53.245  58.310  1.00  0.00    -0.075 N 
ATOM     12  H53 UNL     1      30.458  53.870  59.072  1.00  0.00     0.274 HD
ATOM     13  H52 UNL     1      30.727  52.426  58.603  1.00  0.00     0.274 HD
ATOM     14  H51 UNL     1      30.498  53.596  57.401  1.00  0.00     0.274 HD
ENDBRANCH  10  11
ENDBRANCH   9  10
BRANCH   1  15
HETATM   15  N1  UNL     1      28.384  50.295  57.816  1.00  0.00    -0.380 N 
HETATM   16  C1  UNL     1      29.655  49.790  57.363  1.00  0.00     0.147 C 
ATOM     17  H1  UNL     1      27.589  50.327  57.178  1.00  0.00     0.160 HD
ENDBRANCH   1  15
BRANCH   4  18
HETATM   18  N3  UNL     1      27.492  49.396  62.170  1.00  0.00    -0.234 N 
ATOM     19  H32 UNL     1      28.214  48.758  62.504  1.00  0.00     0.174 HD
ATOM     20  H31 UNL     1      26.547  49.388  62.553  1.00  0.00     0.174 HD
ENDBRANCH   4  18
TORSDOF 4
ENDMDL
MODEL 2
REMARK VINA RESULT: -5.618684366      1.998      3.014
REMARK  4 active torsions:
REMARK  status: ('A' for Active; 'I' for Inactive)
REMARK    1  A    between atoms: N1_2  and  C2_4 
REMARK    2  A    between atoms: C3_7  and  N3_8 
REMARK    3  A    between atoms: C5_15  and  C6_16 
REMARK    4  A    between atoms: C6_16  and  N5_17 
ROOT
HETATM    1  C2  UNL     1      28.183  52.197  60.208  1.00  0.00     0.127 A 
HETATM    2  N2  UNL     1      27.974  51.421  61.300  1.00  0.00    -0.177 N 
ATOM      3  H2  UNL     1      27.621  51.821  62.170  1.00  0.00     0.186 HD
HETATM    4  C3  UNL     1      28.246  50.113  61.201  1.00  0.00     0.678 A 
HETATM    5  N4  UNL     1      28.715  49.565  60.057  1.00  0.00    -0.181 N 
ATOM      6  H4  UNL     1      28.908  48.564  60.023  1.00  0.00     0.185 HD
HETATM    7  C4  UNL     1      28.931  50.320  58.955  1.00  0.00     0.131 A 
HETATM    8 CL1  UNL     1      29.545  49.559  57.483  1.00  0.00    -0.063 Cl
HETATM    9  C5  UNL     1      28.663  51.656  59.024  1.00  0.00     0.051 A 
ENDROOT
BRANCH   9  10
HETATM   10  C6  UNL     1      28.874  52.546  57.862  1.00  0.00     0.275 C 
BRANCH  10  11
HETATM   11  N5  UNL     1      30.243  52.910  57.791  1.00  0.00    -0.075 N 
ATOM     12  H53 UNL     1      30.531  53.484  58.584  1.00  0.00     0.274 HD
ATOM     13  H52 UNL     1      30.863  52.117  57.953  1.00  0.00     0.274 HD
ATOM     14  H51 UNL     1      30.426  53.366  56.897  1.00  0.00     0.274 HD
ENDBRANCH  10  11
ENDBRANCH   9  10
BRANCH   1  15
HETATM   15  N1  UNL     1      27.922  53.454  60.301  1.00  0.00    -0.380 N 
HETATM   16  C1  UNL     1      28.921  54.355  60.816  1.00  0.00     0.147 C 
ATOM     17  H1  UNL     1      27.011  53.810  60.010  1.00  0.00     0.160 HD
ENDBRANCH   1  15
BRANCH   4  18
HETATM   18  N3  UNL     1      28.062  49.343  62.211  1.00  0.00    -0.234 N 
ATOM     19  H32 UNL     1      28.047  48.336  62.052  1.00  0.00     0.174 HD
ATOM     20  H31 UNL     1      27.936  49.744  63.140  1.00  0.00     0.174 HD
ENDBRANCH   4  18
TORSDOF 4
ENDMDL
MODEL 3
REMARK VINA RESULT: -5.271873225      2.225      3.165
REMARK  4 active torsions:
REMARK  status: ('A' for Active; 'I' for Inactive)
REMARK    1  A    between atoms: N1_2  and  C2_4 
REMARK    2  A    between atoms: C3_7  and  N3_8 
REMARK    3  A    between atoms: C5_15  and  C6_16 
REMARK    4  A    between atoms: C6_16  and  N5_17 
ROOT
HETATM    1  C2  UNL     1      28.218  52.239  59.685  1.00  0.00     0.127 A 
HETATM    2  N2  UNL     1      27.960  52.109  61.010  1.00  0.00    -0.177 N 
ATOM      3  H2  UNL     1      27.939  52.923  61.625  1.00  0.00     0.186 HD
HETATM    4  C3  UNL     1      27.733  50.876  61.486  1.00  0.00     0.678 A 
HETATM    5  N4  UNL     1      27.757  49.785  60.687  1.00  0.00    -0.181 N 
ATOM      6  H4  UNL     1      27.578  48.865  61.089  1.00  0.00     0.185 HD
HETATM    7  C4  UNL     1      28.012  49.892  59.363  1.00  0.00     0.131 A 
HETATM    8 CL1  UNL     1      28.033  48.438  58.358  1.00  0.00    -0.063 Cl
HETATM    9  C5  UNL     1      28.247  51.133  58.846  1.00  0.00     0.051 A 
ENDROOT
BRANCH   9  10
HETATM   10  C6  UNL     1      28.534  51.330  57.410  1.00  0.00     0.275 C 
BRANCH  10  11
HETATM   11  N5  UNL     1      27.342  51.146  56.663  1.00  0.00    -0.075 N 
ATOM     12  H53 UNL     1      26.757  51.982  56.657  1.00  0.00     0.274 HD
ATOM     13  H52 UNL     1      27.519  51.086  55.660  1.00  0.00     0.274 HD
ATOM     14  H51 UNL     1      26.844  50.329  57.016  1.00  0.00     0.274 HD
ENDBRANCH  10  11
ENDBRANCH   9  10
BRANCH   1  15
HETATM   15  N1  UNL     1      28.435  53.421  59.226  1.00  0.00    -0.380 N 
HETATM   16  C1  UNL     1      29.606  54.148  59.647  1.00  0.00     0.147 C 
ATOM     17  H1  UNL     1      27.781  53.842  58.566  1.00  0.00     0.160 HD
ENDBRANCH   1  15
BRANCH   4  18
HETATM   18  N3  UNL     1      27.485  50.708  62.733  1.00  0.00    -0.234 N 
ATOM     19  H32 UNL     1      28.006  51.269  63.408  1.00  0.00     0.174 HD
ATOM     20  H31 UNL     1      26.783  50.028  63.025  1.00  0.00     0.174 HD
ENDBRANCH   4  18
TORSDOF 4
ENDMDL
MODEL 4
REMARK VINA RESULT: -4.812344025      1.601      3.523
REMARK  4 active torsions:
REMARK  status: ('A' for Active; 'I' for Inactive)
REMARK    1  A    between atoms: N1_2  and  C2_4 
REMARK    2  A    between atoms: C3_7  and  N3_8 
REMARK    3  A    between atoms: C5_15  and  C6_16 
REMARK    4  A    between atoms: C6_16  and  N5_17 
ROOT
HETATM    1  C2  UNL     1      28.060  50.387  59.949  1.00  0.00     0.127 A 
HETATM    2  N2  UNL     1      28.197  51.473  59.149  1.00  0.00    -0.177 N 
ATOM      3  H2  UNL     1      28.209  51.381  58.133  1.00  0.00     0.186 HD
HETATM    4  C3  UNL     1      28.318  52.673  59.735  1.00  0.00     0.678 A 
HETATM    5  N4  UNL     1      28.306  52.815  61.080  1.00  0.00    -0.181 N 
ATOM      6  H4  UNL     1      28.399  53.746  61.486  1.00  0.00     0.185 HD
HETATM    7  C4  UNL     1      28.170  51.746  61.897  1.00  0.00     0.131 A 
HETATM    8 CL1  UNL     1      28.160  51.982  63.649  1.00  0.00    -0.063 Cl
HETATM    9  C5  UNL     1      28.045  50.511  61.332  1.00  0.00     0.051 A 
ENDROOT
BRANCH   9  10
HETATM   10  C6  UNL     1      27.893  49.295  62.159  1.00  0.00     0.275 C 
BRANCH  10  11
HETATM   11  N5  UNL     1      26.515  49.061  62.403  1.00  0.00    -0.075 N 
ATOM     12  H53 UNL     1      26.348  48.673  63.331  1.00  0.00     0.274 HD
ATOM     13  H52 UNL     1      25.989  49.929  62.512  1.00  0.00     0.274 HD
ATOM     14  H51 UNL     1      26.136  48.471  61.663  1.00  0.00     0.274 HD
ENDBRANCH  10  11
ENDBRANCH   9  10
BRANCH   1  15
HETATM   15  N1  UNL     1      27.943  49.235  59.389  1.00  0.00    -0.380 N 
HETATM   16  C1  UNL     1      28.041  49.124  57.955  1.00  0.00     0.147 C 
ATOM     17  H1  UNL     1      27.782  48.404  59.957  1.00  0.00     0.160 HD
ENDBRANCH   1  15
BRANCH   4  18
HETATM   18  N3  UNL     1      28.450  53.726  59.015  1.00  0.00    -0.234 N 
ATOM     19  H32 UNL     1      27.660  54.369  58.953  1.00  0.00     0.174 HD
ATOM     20  H31 UNL     1      29.327  53.901  58.526  1.00  0.00     0.174 HD
ENDBRANCH   4  18
TORSDOF 4
ENDMDL
MODEL 5
REMARK VINA RESULT: -4.480698562      1.623      3.181
REMARK  4 active torsions:
REMARK  status: ('A' for Active; 'I' for Inactive)
REMARK    1  A    between atoms: N1_2  and  C2_4 
REMARK    2  A    between atoms: C3_7  and  N3_8 
REMARK    3  A    between atoms: C5_15  and  C6_16 
REMARK    4  A    between atoms: C6_16  and  N5_17 
ROOT
HETATM    1  C2  UNL     1      27.938  51.003  61.129  1.00  0.00     0.127 A 
HETATM    2  N2  UNL     1      27.888  49.785  60.536  1.00  0.00    -0.177 N 
ATOM      3  H2  UNL     1      27.738  48.938  61.086  1.00  0.00     0.186 HD
HETATM    4  C3  UNL     1      28.042  49.728  59.206  1.00  0.00     0.678 A 
HETATM    5  N4  UNL     1      28.242  50.839  58.461  1.00  0.00    -0.181 N 
ATOM      6  H4  UNL     1      28.354  50.752  57.451  1.00  0.00     0.185 HD
HETATM    7  C4  UNL     1      28.297  52.064  59.031  1.00  0.00     0.131 A 
HETATM    8 CL1  UNL     1      28.561  53.487  58.017  1.00  0.00    -0.063 Cl
HETATM    9  C5  UNL     1      28.143  52.157  60.384  1.00  0.00     0.051 A 
ENDROOT
BRANCH   9  10
HETATM   10  C6  UNL     1      28.190  53.461  61.078  1.00  0.00     0.275 C 
BRANCH  10  11
HETATM   11  N5  UNL     1      29.270  54.226  60.569  1.00  0.00    -0.075 N 
ATOM     12  H53 UNL     1      29.790  53.728  59.847  1.00  0.00     0.274 HD
ATOM     13  H52 UNL     1      28.952  55.013  60.003  1.00  0.00     0.274 HD
ATOM     14  H51 UNL     1      29.868  54.523  61.340  1.00  0.00     0.274 HD
ENDBRANCH  10  11
ENDBRANCH   9  10
BRANCH   1  15
HETATM   15  N1  UNL     1      27.790  51.061  62.406  1.00  0.00    -0.380 N 
HETATM   16  C1  UNL     1      28.046  49.892  63.208  1.00  0.00     0.147 C 
ATOM     17  H1  UNL     1      27.492  51.930  62.847  1.00  0.00     0.160 HD
ENDBRANCH   1  15
BRANCH   4  18
HETATM   18  N3  UNL     1      28.001  48.595  58.605  1.00  0.00    -0.234 N 
ATOM     19  H32 UNL     1      27.444  48.521  57.754  1.00  0.00     0.174 HD
ATOM     20  H31 UNL     1      28.516  47.801  58.983  1.00  0.00     0.174 HD
ENDBRANCH   4  18
TORSDOF 4
ENDMDL
