MODEL 1
REMARK VINA RESULT: -3.298033329      0.000      0.000
REMARK  1 active torsions:
REMARK  status: ('A' for Active; 'I' for Inactive)
REMARK    1  A    between atoms: N1_2  and  C2_3 
ROOT
HETATM    1  C1  UNL     1      -2.088   5.812  19.387  1.00  0.00     0.275 C 
HETATM    2  N1  UNL     1      -1.990   6.771  20.440  1.00  0.00    -0.041 N 
HETATM    3  C5  UNL     1      -1.158   7.920  20.053  1.00  0.00     0.267 C 
HETATM    4  C6  UNL     1      -2.088   8.652  19.123  1.00  0.00     0.262 C 
HETATM    5  N2  UNL     1      -3.436   8.186  19.466  1.00  0.00    -0.049 N 
ATOM      6  H21 UNL     1      -3.912   7.695  18.710  1.00  0.00     0.279 HD
ATOM      7  H22 UNL     1      -4.123   8.934  19.565  1.00  0.00     0.279 HD
HETATM    8  C7  UNL     1      -3.246   7.379  20.683  1.00  0.00     0.467 C 
ENDROOT
BRANCH   2   9
HETATM    9  C2  UNL     1      -1.370   6.164  21.586  1.00  0.00     0.192 A 
HETATM   10  C3  UNL     1      -1.215   4.716  21.746  1.00  0.00     0.035 A 
HETATM   11  C4  UNL     1      -2.175   5.490  22.644  1.00  0.00     0.035 A 
ENDBRANCH   2   9
TORSDOF 1
ENDMDL
MODEL 2
REMARK VINA RESULT: -3.206323456      1.412      3.576
REMARK  1 active torsions:
REMARK  status: ('A' for Active; 'I' for Inactive)
REMARK    1  A    between atoms: N1_2  and  C2_3 
ROOT
HETATM    1  C1  UNL     1      -3.934   6.861  19.633  1.00  0.00     0.275 C 
HETATM    2  N1  UNL     1      -2.713   7.443  20.088  1.00  0.00    -0.041 N 
HETATM    3  C5  UNL     1      -2.264   6.842  21.354  1.00  0.00     0.267 C 
HETATM    4  C6  UNL     1      -1.753   5.509  20.877  1.00  0.00     0.262 C 
HETATM    5  N2  UNL     1      -1.478   5.680  19.447  1.00  0.00    -0.049 N 
ATOM      6  H21 UNL     1      -2.046   5.089  18.840  1.00  0.00     0.279 HD
ATOM      7  H22 UNL     1      -0.574   5.312  19.149  1.00  0.00     0.279 HD
HETATM    8  C7  UNL     1      -1.647   7.124  19.212  1.00  0.00     0.467 C 
ENDROOT
BRANCH   2   9
HETATM    9  C2  UNL     1      -2.910   8.846  20.331  1.00  0.00     0.192 A 
HETATM   10  C3  UNL     1      -3.945   9.640  19.665  1.00  0.00     0.035 A 
HETATM   11  C4  UNL     1      -2.471   9.877  19.349  1.00  0.00     0.035 A 
ENDBRANCH   2   9
TORSDOF 1
ENDMDL
MODEL 3
REMARK VINA RESULT: -2.942964469      1.164      3.377
REMARK  1 active torsions:
REMARK  status: ('A' for Active; 'I' for Inactive)
REMARK    1  A    between atoms: N1_2  and  C2_3 
ROOT
HETATM    1  C1  UNL     1      -0.870   7.610  19.957  1.00  0.00     0.275 C 
HETATM    2  N1  UNL     1      -2.070   6.878  20.204  1.00  0.00    -0.041 N 
HETATM    3  C5  UNL     1      -2.018   5.533  19.610  1.00  0.00     0.267 C 
HETATM    4  C6  UNL     1      -1.087   4.831  20.561  1.00  0.00     0.262 C 
HETATM    5  N2  UNL     1      -1.128   5.612  21.802  1.00  0.00    -0.049 N 
ATOM      6  H21 UNL     1      -0.234   6.029  22.062  1.00  0.00     0.279 HD
ATOM      7  H22 UNL     1      -1.239   5.049  22.645  1.00  0.00     0.279 HD
HETATM    8  C7  UNL     1      -2.208   6.590  21.583  1.00  0.00     0.467 C 
ENDROOT
BRANCH   2   9
HETATM    9  C2  UNL     1      -3.183   7.563  19.605  1.00  0.00     0.192 A 
HETATM   10  C3  UNL     1      -3.306   9.023  19.572  1.00  0.00     0.035 A 
HETATM   11  C4  UNL     1      -4.250   8.191  20.434  1.00  0.00     0.035 A 
ENDBRANCH   2   9
TORSDOF 1
ENDMDL
MODEL 4
REMARK VINA RESULT: -2.925431036      3.665      5.182
REMARK  1 active torsions:
REMARK  status: ('A' for Active; 'I' for Inactive)
REMARK    1  A    between atoms: N1_2  and  C2_3 
ROOT
HETATM    1  C1  UNL     1      -2.451   3.737  24.159  1.00  0.00     0.275 C 
HETATM    2  N1  UNL     1      -1.084   3.408  23.915  1.00  0.00    -0.041 N 
HETATM    3  C5  UNL     1      -0.908   2.743  22.615  1.00  0.00     0.267 C 
HETATM    4  C6  UNL     1      -1.068   3.905  21.671  1.00  0.00     0.262 C 
HETATM    5  N2  UNL     1      -0.795   5.103  22.470  1.00  0.00    -0.049 N 
ATOM      6  H21 UNL     1      -1.589   5.739  22.552  1.00  0.00     0.279 HD
ATOM      7  H22 UNL     1      -0.164   5.768  22.023  1.00  0.00     0.279 HD
HETATM    8  C7  UNL     1      -0.306   4.581  23.758  1.00  0.00     0.467 C 
ENDROOT
BRANCH   2   9
HETATM    9  C2  UNL     1      -0.621   2.496  24.925  1.00  0.00     0.192 A 
HETATM   10  C3  UNL     1      -0.488   2.858  26.338  1.00  0.00     0.035 A 
HETATM   11  C4  UNL     1       0.753   2.591  25.492  1.00  0.00     0.035 A 
ENDBRANCH   2   9
TORSDOF 1
ENDMDL
MODEL 5
REMARK VINA RESULT: -2.891933094      1.824      3.311
REMARK  1 active torsions:
REMARK  status: ('A' for Active; 'I' for Inactive)
REMARK    1  A    between atoms: N1_2  and  C2_3 
ROOT
HETATM    1  C1  UNL     1      -3.978   9.241  20.330  1.00  0.00     0.275 C 
HETATM    2  N1  UNL     1      -3.423   7.965  20.013  1.00  0.00    -0.041 N 
HETATM    3  C5  UNL     1      -3.046   7.220  21.224  1.00  0.00     0.267 C 
HETATM    4  C6  UNL     1      -4.397   6.793  21.733  1.00  0.00     0.262 C 
HETATM    5  N2  UNL     1      -5.294   6.860  20.576  1.00  0.00    -0.049 N 
ATOM      6  H21 UNL     1      -6.053   7.534  20.674  1.00  0.00     0.279 HD
ATOM      7  H22 UNL     1      -5.889   6.038  20.461  1.00  0.00     0.279 HD
HETATM    8  C7  UNL     1      -4.401   7.121  19.434  1.00  0.00     0.467 C 
ENDROOT
BRANCH   2   9
HETATM    9  C2  UNL     1      -2.227   8.142  19.234  1.00  0.00     0.192 A 
HETATM   10  C3  UNL     1      -0.893   7.769  19.711  1.00  0.00     0.035 A 
HETATM   11  C4  UNL     1      -1.261   9.238  19.526  1.00  0.00     0.035 A 
ENDBRANCH   2   9
TORSDOF 1
ENDMDL
