MODEL 1
REMARK VINA RESULT: -7.564666962      0.000      0.000
REMARK  4 active torsions:
REMARK  status: ('A' for Active; 'I' for Inactive)
REMARK    1  A    between atoms: C12_14  and  C13_15 
REMARK    2  A    between atoms: C13_15  and  N1_16 
REMARK    3  A    between atoms: N2_25  and  C21_26 
REMARK    4  A    between atoms: C21_26  and  C22_27 
ROOT
HETATM    1 BR1  UNL     1      53.393  66.665 -30.179  1.00  0.00    -0.051 Br
HETATM    2  C1  UNL     1      52.683  67.647 -31.639  1.00  0.00     0.018 A 
HETATM    3  C2  UNL     1      52.778  68.942 -31.788  1.00  0.00    -0.026 A 
HETATM    4  C3  UNL     1      53.473  69.740 -30.778  1.00  0.00     0.066 C 
HETATM    5  C4  UNL     1      53.914  71.120 -31.206  1.00  0.00     0.088 C 
HETATM    6  C5  UNL     1      54.523  71.099 -32.603  1.00  0.00     0.027 C 
HETATM    7  C6  UNL     1      53.763  71.955 -33.595  1.00  0.00     0.024 C 
HETATM    8  C7  UNL     1      52.323  71.804 -33.378  1.00  0.00     0.067 C 
HETATM    9  C8  UNL     1      51.864  70.408 -33.738  1.00  0.00     0.073 C 
HETATM   10  C9  UNL     1      52.087  69.311 -33.050  1.00  0.00     0.002 A 
HETATM   11  C10 UNL     1      51.592  68.062 -33.592  1.00  0.00     0.016 A 
HETATM   12  C11 UNL     1      51.947  67.076 -32.754  1.00  0.00     0.020 A 
HETATM   13  O1  UNL     1      51.298  70.983 -34.840  1.00  0.00    -0.336 OA
HETATM   14  C12 UNL     1      51.323  72.371 -34.340  1.00  0.00     0.115 C 
HETATM   15  C18 UNL     1      50.180  72.676 -33.463  1.00  0.00     0.047 C 
HETATM   16  C19 UNL     1      50.855  73.100 -32.110  1.00  0.00     0.030 C 
HETATM   17  C20 UNL     1      51.844  72.013 -31.960  1.00  0.00     0.102 C 
HETATM   18  N2  UNL     1      52.919  72.117 -31.054  1.00  0.00    -0.382 N 
ENDROOT
BRANCH  14  19
HETATM   19  C13 UNL     1      51.864  73.274 -35.366  1.00  0.00     0.098 C 
BRANCH  19  20
HETATM   20  N1  UNL     1      51.304  73.288 -36.632  1.00  0.00    -0.386 N 
HETATM   21  C14 UNL     1      51.922  72.770 -37.774  1.00  0.00     0.148 C 
HETATM   22  C15 UNL     1      50.830  72.653 -38.866  1.00  0.00     0.187 C 
HETATM   23  O2  UNL     1      50.547  73.960 -39.226  1.00  0.00    -0.388 OA
HETATM   24  C16 UNL     1      49.971  74.678 -38.207  1.00  0.00     0.187 C 
HETATM   25  C17 UNL     1      50.558  74.513 -36.858  1.00  0.00     0.148 C 
ENDBRANCH  19  20
ENDBRANCH  14  19
BRANCH  18  26
HETATM   26  C21 UNL     1      53.017  73.167 -30.167  1.00  0.00     0.064 C 
BRANCH  26  27
HETATM   27  C22 UNL     1      54.075  74.195 -30.280  1.00  0.00     0.028 C 
HETATM   28  C23 UNL     1      53.857  75.269 -29.196  1.00  0.00     0.036 C 
HETATM   29  C24 UNL     1      53.013  76.351 -29.813  1.00  0.00     0.168 C 
HETATM   30  O3  UNL     1      53.825  77.170 -30.607  1.00  0.00    -0.391 OA
HETATM   31  C25 UNL     1      54.764  76.375 -31.261  1.00  0.00     0.168 C 
HETATM   32  C26 UNL     1      54.158  74.989 -31.548  1.00  0.00     0.036 C 
ENDBRANCH  26  27
ENDBRANCH  18  26
TORSDOF 4
ENDMDL
MODEL 2
REMARK VINA RESULT: -7.533982395      3.355      6.358
REMARK  4 active torsions:
REMARK  status: ('A' for Active; 'I' for Inactive)
REMARK    1  A    between atoms: C12_14  and  C13_15 
REMARK    2  A    between atoms: C13_15  and  N1_16 
REMARK    3  A    between atoms: N2_25  and  C21_26 
REMARK    4  A    between atoms: C21_26  and  C22_27 
ROOT
HETATM    1 BR1  UNL     1      47.562  76.674 -29.520  1.00  0.00    -0.051 Br
HETATM    2  C1  UNL     1      48.322  74.964 -29.835  1.00  0.00     0.018 A 
HETATM    3  C2  UNL     1      49.217  74.698 -30.751  1.00  0.00    -0.026 A 
HETATM    4  C3  UNL     1      49.699  75.767 -31.625  1.00  0.00     0.066 C 
HETATM    5  C4  UNL     1      51.001  75.503 -32.346  1.00  0.00     0.088 C 
HETATM    6  C5  UNL     1      52.026  74.860 -31.419  1.00  0.00     0.027 C 
HETATM    7  C6  UNL     1      52.467  73.487 -31.882  1.00  0.00     0.024 C 
HETATM    8  C7  UNL     1      51.314  72.744 -32.394  1.00  0.00     0.067 C 
HETATM    9  C8  UNL     1      50.345  72.411 -31.281  1.00  0.00     0.073 C 
HETATM   10  C9  UNL     1      49.539  73.251 -30.671  1.00  0.00     0.002 A 
HETATM   11  C10 UNL     1      48.714  72.735 -29.597  1.00  0.00     0.016 A 
HETATM   12  C11 UNL     1      47.994  73.753 -29.102  1.00  0.00     0.020 A 
HETATM   13  O1  UNL     1      50.801  71.128 -31.398  1.00  0.00    -0.336 OA
HETATM   14  C12 UNL     1      51.412  71.286 -32.732  1.00  0.00     0.115 C 
HETATM   15  C18 UNL     1      50.430  71.150 -33.822  1.00  0.00     0.047 C 
HETATM   16  C19 UNL     1      50.524  72.523 -34.577  1.00  0.00     0.030 C 
HETATM   17  C20 UNL     1      50.478  73.454 -33.432  1.00  0.00     0.102 C 
HETATM   18  N2  UNL     1      50.853  74.806 -33.570  1.00  0.00    -0.382 N 
ENDROOT
BRANCH  14  19
HETATM   19  C13 UNL     1      52.768  70.721 -32.743  1.00  0.00     0.098 C 
BRANCH  19  20
HETATM   20  N1  UNL     1      52.946  69.357 -32.588  1.00  0.00    -0.386 N 
HETATM   21  C14 UNL     1      52.075  68.386 -33.092  1.00  0.00     0.148 C 
HETATM   22  C15 UNL     1      52.821  67.030 -33.024  1.00  0.00     0.187 C 
HETATM   23  O2  UNL     1      52.884  66.727 -31.675  1.00  0.00    -0.388 OA
HETATM   24  C16 UNL     1      53.664  67.611 -30.969  1.00  0.00     0.187 C 
HETATM   25  C17 UNL     1      53.496  69.048 -31.281  1.00  0.00     0.148 C 
ENDBRANCH  19  20
ENDBRANCH  14  19
BRANCH  18  26
HETATM   26  C21 UNL     1      51.138  75.355 -34.802  1.00  0.00     0.064 C 
BRANCH  26  27
HETATM   27  C22 UNL     1      52.421  76.038 -35.078  1.00  0.00     0.028 C 
HETATM   28  C23 UNL     1      52.421  76.548 -36.534  1.00  0.00     0.036 C 
HETATM   29  C24 UNL     1      53.039  75.467 -37.378  1.00  0.00     0.168 C 
HETATM   30  O3  UNL     1      54.432  75.525 -37.249  1.00  0.00    -0.391 OA
HETATM   31  C25 UNL     1      54.750  75.829 -35.928  1.00  0.00     0.168 C 
HETATM   32  C26 UNL     1      53.684  75.236 -34.989  1.00  0.00     0.036 C 
ENDBRANCH  26  27
ENDBRANCH  18  26
TORSDOF 4
ENDMDL
MODEL 3
REMARK VINA RESULT: -7.383195331      3.758      6.262
REMARK  4 active torsions:
REMARK  status: ('A' for Active; 'I' for Inactive)
REMARK    1  A    between atoms: C12_14  and  C13_15 
REMARK    2  A    between atoms: C13_15  and  N1_16 
REMARK    3  A    between atoms: N2_25  and  C21_26 
REMARK    4  A    between atoms: C21_26  and  C22_27 
ROOT
HETATM    1 BR1  UNL     1      49.962  76.594 -29.932  1.00  0.00    -0.051 Br
HETATM    2  C1  UNL     1      50.161  74.757 -30.359  1.00  0.00     0.018 A 
HETATM    3  C2  UNL     1      51.282  74.187 -30.717  1.00  0.00    -0.026 A 
HETATM    4  C3  UNL     1      52.504  74.986 -30.811  1.00  0.00     0.066 C 
HETATM    5  C4  UNL     1      53.805  74.218 -30.805  1.00  0.00     0.088 C 
HETATM    6  C5  UNL     1      53.789  73.109 -29.758  1.00  0.00     0.027 C 
HETATM    7  C6  UNL     1      53.952  71.727 -30.356  1.00  0.00     0.024 C 
HETATM    8  C7  UNL     1      53.182  71.630 -31.596  1.00  0.00     0.067 C 
HETATM    9  C8  UNL     1      51.695  71.686 -31.318  1.00  0.00     0.073 C 
HETATM   10  C9  UNL     1      51.007  72.750 -30.969  1.00  0.00     0.002 A 
HETATM   11  C10 UNL     1      49.591  72.581 -30.709  1.00  0.00     0.016 A 
HETATM   12  C11 UNL     1      49.092  73.773 -30.347  1.00  0.00     0.020 A 
HETATM   13  O1  UNL     1      51.689  70.350 -31.603  1.00  0.00    -0.336 OA
HETATM   14  C12 UNL     1      52.991  70.318 -32.298  1.00  0.00     0.115 C 
HETATM   15  C18 UNL     1      52.888  70.728 -33.709  1.00  0.00     0.047 C 
HETATM   16  C19 UNL     1      53.852  71.963 -33.806  1.00  0.00     0.030 C 
HETATM   17  C20 UNL     1      53.425  72.721 -32.612  1.00  0.00     0.102 C 
HETATM   18  N2  UNL     1      54.214  73.762 -32.082  1.00  0.00    -0.382 N 
ENDROOT
BRANCH  14  19
HETATM   19  C13 UNL     1      53.807  69.202 -31.800  1.00  0.00     0.098 C 
BRANCH  19  20
HETATM   20  N1  UNL     1      53.192  68.040 -31.368  1.00  0.00    -0.386 N 
HETATM   21  C14 UNL     1      53.770  67.123 -30.485  1.00  0.00     0.148 C 
HETATM   22  C15 UNL     1      52.634  66.194 -29.988  1.00  0.00     0.187 C 
HETATM   23  O2  UNL     1      52.308  65.415 -31.085  1.00  0.00    -0.388 OA
HETATM   24  C16 UNL     1      51.762  66.145 -32.112  1.00  0.00     0.187 C 
HETATM   25  C17 UNL     1      52.411  67.437 -32.433  1.00  0.00     0.148 C 
ENDBRANCH  19  20
ENDBRANCH  14  19
BRANCH  18  26
HETATM   26  C21 UNL     1      55.341  74.217 -32.732  1.00  0.00     0.064 C 
BRANCH  26  27
HETATM   27  C22 UNL     1      56.664  74.262 -32.070  1.00  0.00     0.028 C 
HETATM   28  C23 UNL     1      57.498  75.406 -32.682  1.00  0.00     0.036 C 
HETATM   29  C24 UNL     1      58.300  74.811 -33.808  1.00  0.00     0.168 C 
HETATM   30  O3  UNL     1      59.411  74.145 -33.278  1.00  0.00    -0.391 OA
HETATM   31  C25 UNL     1      59.033  73.504 -32.100  1.00  0.00     0.168 C 
HETATM   32  C26 UNL     1      57.560  73.068 -32.199  1.00  0.00     0.036 C 
ENDBRANCH  26  27
ENDBRANCH  18  26
TORSDOF 4
ENDMDL
MODEL 4
REMARK VINA RESULT: -7.365795532      1.325      1.697
REMARK  4 active torsions:
REMARK  status: ('A' for Active; 'I' for Inactive)
REMARK    1  A    between atoms: C12_14  and  C13_15 
REMARK    2  A    between atoms: C13_15  and  N1_16 
REMARK    3  A    between atoms: N2_25  and  C21_26 
REMARK    4  A    between atoms: C21_26  and  C22_27 
ROOT
HETATM    1 BR1  UNL     1      53.715  66.831 -30.142  1.00  0.00    -0.051 Br
HETATM    2  C1  UNL     1      52.779  67.688 -31.552  1.00  0.00     0.018 A 
HETATM    3  C2  UNL     1      52.744  68.980 -31.752  1.00  0.00    -0.026 A 
HETATM    4  C3  UNL     1      53.465  69.874 -30.847  1.00  0.00     0.066 C 
HETATM    5  C4  UNL     1      53.737  71.268 -31.363  1.00  0.00     0.088 C 
HETATM    6  C5  UNL     1      54.203  71.239 -32.815  1.00  0.00     0.027 C 
HETATM    7  C6  UNL     1      53.274  71.986 -33.750  1.00  0.00     0.024 C 
HETATM    8  C7  UNL     1      51.883  71.724 -33.380  1.00  0.00     0.067 C 
HETATM    9  C8  UNL     1      51.513  70.281 -33.644  1.00  0.00     0.073 C 
HETATM   10  C9  UNL     1      51.900  69.236 -32.947  1.00  0.00     0.002 A 
HETATM   11  C10 UNL     1      51.464  67.928 -33.394  1.00  0.00     0.016 A 
HETATM   12  C11 UNL     1      51.987  67.011 -32.564  1.00  0.00     0.020 A 
HETATM   13  O1  UNL     1      50.791  70.760 -34.700  1.00  0.00    -0.336 OA
HETATM   14  C12 UNL     1      50.745  72.165 -34.252  1.00  0.00     0.115 C 
HETATM   15  C18 UNL     1      49.674  72.409 -33.271  1.00  0.00     0.047 C 
HETATM   16  C19 UNL     1      50.442  72.945 -32.010  1.00  0.00     0.030 C 
HETATM   17  C20 UNL     1      51.532  71.951 -31.928  1.00  0.00     0.102 C 
HETATM   18  N2  UNL     1      52.679  72.183 -31.143  1.00  0.00    -0.382 N 
ENDROOT
BRANCH  14  19
HETATM   19  C13 UNL     1      51.099  73.066 -35.357  1.00  0.00     0.098 C 
BRANCH  19  20
HETATM   20  N1  UNL     1      50.599  74.356 -35.379  1.00  0.00    -0.386 N 
HETATM   21  C14 UNL     1      49.829  74.887 -36.418  1.00  0.00     0.148 C 
HETATM   22  C15 UNL     1      49.183  76.189 -35.883  1.00  0.00     0.187 C 
HETATM   23  O2  UNL     1      50.231  77.087 -35.776  1.00  0.00    -0.388 OA
HETATM   24  C16 UNL     1      51.152  76.718 -34.826  1.00  0.00     0.187 C 
HETATM   25  C17 UNL     1      51.544  75.291 -34.795  1.00  0.00     0.148 C 
ENDBRANCH  19  20
ENDBRANCH  14  19
BRANCH  18  26
HETATM   26  C21 UNL     1      52.774  73.274 -30.305  1.00  0.00     0.064 C 
BRANCH  26  27
HETATM   27  C22 UNL     1      53.677  74.409 -30.594  1.00  0.00     0.028 C 
HETATM   28  C23 UNL     1      53.167  75.664 -29.856  1.00  0.00     0.036 C 
HETATM   29  C24 UNL     1      52.261  76.396 -30.808  1.00  0.00     0.168 C 
HETATM   30  O3  UNL     1      53.042  77.121 -31.717  1.00  0.00    -0.391 OA
HETATM   31  C25 UNL     1      54.162  76.365 -32.053  1.00  0.00     0.168 C 
HETATM   32  C26 UNL     1      53.806  74.868 -32.015  1.00  0.00     0.036 C 
ENDBRANCH  26  27
ENDBRANCH  18  26
TORSDOF 4
ENDMDL
MODEL 5
REMARK VINA RESULT: -7.274562076      3.222      6.688
REMARK  4 active torsions:
REMARK  status: ('A' for Active; 'I' for Inactive)
REMARK    1  A    between atoms: C12_14  and  C13_15 
REMARK    2  A    between atoms: C13_15  and  N1_16 
REMARK    3  A    between atoms: N2_25  and  C21_26 
REMARK    4  A    between atoms: C21_26  and  C22_27 
ROOT
HETATM    1 BR1  UNL     1      47.616  76.749 -29.652  1.00  0.00    -0.051 Br
HETATM    2  C1  UNL     1      48.356  75.024 -29.933  1.00  0.00     0.018 A 
HETATM    3  C2  UNL     1      49.273  74.737 -30.819  1.00  0.00    -0.026 A 
HETATM    4  C3  UNL     1      49.801  75.791 -31.685  1.00  0.00     0.066 C 
HETATM    5  C4  UNL     1      51.120  75.500 -32.362  1.00  0.00     0.088 C 
HETATM    6  C5  UNL     1      52.104  74.846 -31.400  1.00  0.00     0.027 C 
HETATM    7  C6  UNL     1      52.535  73.463 -31.841  1.00  0.00     0.024 C 
HETATM    8  C7  UNL     1      51.387  72.736 -32.384  1.00  0.00     0.067 C 
HETATM    9  C8  UNL     1      50.378  72.427 -31.300  1.00  0.00     0.073 C 
HETATM   10  C9  UNL     1      49.567  73.285 -30.721  1.00  0.00     0.002 A 
HETATM   11  C10 UNL     1      48.701  72.790 -29.670  1.00  0.00     0.016 A 
HETATM   12  C11 UNL     1      47.983  73.824 -29.204  1.00  0.00     0.020 A 
HETATM   13  O1  UNL     1      50.815  71.136 -31.395  1.00  0.00    -0.336 OA
HETATM   14  C12 UNL     1      51.469  71.274 -32.710  1.00  0.00     0.115 C 
HETATM   15  C18 UNL     1      50.519  71.148 -33.829  1.00  0.00     0.047 C 
HETATM   16  C19 UNL     1      50.661  72.514 -34.590  1.00  0.00     0.030 C 
HETATM   17  C20 UNL     1      50.596  73.454 -33.452  1.00  0.00     0.102 C 
HETATM   18  N2  UNL     1      50.998  74.798 -33.587  1.00  0.00    -0.382 N 
ENDROOT
BRANCH  14  19
HETATM   19  C13 UNL     1      52.815  70.686 -32.675  1.00  0.00     0.098 C 
BRANCH  19  20
HETATM   20  N1  UNL     1      52.963  69.316 -32.546  1.00  0.00    -0.386 N 
HETATM   21  C14 UNL     1      52.104  68.372 -33.118  1.00  0.00     0.148 C 
HETATM   22  C15 UNL     1      52.824  67.003 -33.046  1.00  0.00     0.187 C 
HETATM   23  O2  UNL     1      52.813  66.666 -31.704  1.00  0.00    -0.388 OA
HETATM   24  C16 UNL     1      53.569  67.518 -30.936  1.00  0.00     0.187 C 
HETATM   25  C17 UNL     1      53.440  68.966 -31.220  1.00  0.00     0.148 C 
ENDBRANCH  19  20
ENDBRANCH  14  19
BRANCH  18  26
HETATM   26  C21 UNL     1      51.331  75.334 -34.812  1.00  0.00     0.064 C 
BRANCH  26  27
HETATM   27  C22 UNL     1      50.521  76.394 -35.451  1.00  0.00     0.028 C 
HETATM   28  C23 UNL     1      49.025  76.051 -35.299  1.00  0.00     0.036 C 
HETATM   29  C24 UNL     1      48.624  75.277 -36.525  1.00  0.00     0.168 C 
HETATM   30  O3  UNL     1      48.418  76.171 -37.584  1.00  0.00    -0.391 OA
HETATM   31  C25 UNL     1      49.376  77.180 -37.515  1.00  0.00     0.168 C 
HETATM   32  C26 UNL     1      50.681  76.616 -36.925  1.00  0.00     0.036 C 
ENDBRANCH  26  27
ENDBRANCH  18  26
TORSDOF 4
ENDMDL
