MODEL 1
REMARK VINA RESULT: -5.615902652      0.000      0.000
REMARK  7 active torsions:
REMARK  status: ('A' for Active; 'I' for Inactive)
REMARK    1  A    between atoms: C2_2  and  O2_4 
REMARK    2  A    between atoms: O2_4  and  C3_5 
REMARK    3  A    between atoms: C11_14  and  C12_15 
REMARK    4  A    between atoms: C12_15  and  O4_17 
REMARK    5  A    between atoms: O4_17  and  C13_18 
REMARK    6  A    between atoms: C14_20  and  N1_21 
REMARK       I    between atoms: N1_21  and  C16_23 
REMARK    7  A    between atoms: C16_23  and  C17_25 
ROOT
HETATM    1  C3  UNL     1      52.797  73.676 -31.028  1.00  0.00     0.161 C 
HETATM    2  C4  UNL     1      53.702  73.965 -29.833  1.00  0.00     0.042 C 
HETATM    3  C5  UNL     1      53.010  73.782 -28.492  1.00  0.00     0.030 C 
HETATM    4 BR1  UNL     1      54.117  75.877 -29.657  1.00  0.00    -0.083 Br
HETATM    5  C6  UNL     1      54.983  73.257 -29.777  1.00  0.00     0.024 C 
HETATM    6  C7  UNL     1      55.413  72.458 -30.960  1.00  0.00     0.012 C 
HETATM    7  C8  UNL     1      54.259  71.845 -31.608  1.00  0.00    -0.031 C 
HETATM    8  C9  UNL     1      53.575  70.919 -30.659  1.00  0.00     0.016 C 
HETATM    9  C10 UNL     1      54.251  71.245 -32.921  1.00  0.00     0.033 C 
HETATM   10  C11 UNL     1      53.064  72.190 -33.225  1.00  0.00     0.081 C 
HETATM   11  C14 UNL     1      53.600  73.081 -34.351  1.00  0.00     0.110 C 
HETATM   12  C21 UNL     1      54.132  73.860 -33.208  1.00  0.00     0.019 C 
HETATM   13  C22 UNL     1      54.070  75.311 -33.211  1.00  0.00     0.013 C 
HETATM   14  C23 UNL     1      53.437  73.003 -32.158  1.00  0.00     0.019 C 
ENDROOT
BRANCH  11  15
HETATM   15  N1  UNL     1      52.748  73.532 -35.353  1.00  0.00    -0.349 N 
HETATM   16  C15 UNL     1      51.949  74.754 -35.052  1.00  0.00     0.153 C 
HETATM   17  C16 UNL     1      52.471  73.045 -36.637  1.00  0.00     0.227 C 
HETATM   18  O6  UNL     1      53.103  71.997 -36.962  1.00  0.00    -0.273 OA
BRANCH  17  19
HETATM   19  C17 UNL     1      51.565  73.561 -37.659  1.00  0.00     0.030 C 
HETATM   20  C18 UNL     1      50.222  74.035 -37.162  1.00  0.00     0.025 C 
HETATM   21  C19 UNL     1      51.208  72.421 -38.656  1.00  0.00     0.025 C 
HETATM   22  C20 UNL     1      52.241  74.599 -38.522  1.00  0.00     0.025 C 
ENDBRANCH  17  19
ENDBRANCH  11  15
BRANCH  10  23
HETATM   23  C12 UNL     1      51.861  71.455 -33.516  1.00  0.00     0.277 C 
HETATM   24  O3  UNL     1      50.706  71.804 -33.303  1.00  0.00    -0.264 OA
BRANCH  23  25
HETATM   25  O4  UNL     1      52.000  70.176 -34.114  1.00  0.00    -0.252 OA
BRANCH  25  26
HETATM   26  C13 UNL     1      51.648  69.050 -33.389  1.00  0.00     0.406 C 
HETATM   27  O5  UNL     1      51.472  67.915 -33.927  1.00  0.00    -0.276 OA
ENDBRANCH  25  26
ENDBRANCH  23  25
ENDBRANCH  10  23
BRANCH   1  28
HETATM   28  O2  UNL     1      51.484  73.458 -30.711  1.00  0.00    -0.314 OA
BRANCH  28  29
HETATM   29  C2  UNL     1      50.314  74.057 -30.952  1.00  0.00     0.255 C 
HETATM   30  C1  UNL     1      49.033  73.685 -30.300  1.00  0.00     0.126 C 
HETATM   31  O1  UNL     1      50.452  74.953 -31.784  1.00  0.00    -0.266 OA
ENDBRANCH  28  29
ENDBRANCH   1  28
TORSDOF 7
ENDMDL
MODEL 2
REMARK VINA RESULT: -5.552483138      4.198      7.169
REMARK  7 active torsions:
REMARK  status: ('A' for Active; 'I' for Inactive)
REMARK    1  A    between atoms: C2_2  and  O2_4 
REMARK    2  A    between atoms: O2_4  and  C3_5 
REMARK    3  A    between atoms: C11_14  and  C12_15 
REMARK    4  A    between atoms: C12_15  and  O4_17 
REMARK    5  A    between atoms: O4_17  and  C13_18 
REMARK    6  A    between atoms: C14_20  and  N1_21 
REMARK       I    between atoms: N1_21  and  C16_23 
REMARK    7  A    between atoms: C16_23  and  C17_25 
ROOT
HETATM    1  C3  UNL     1      47.467  75.621 -28.929  1.00  0.00     0.161 C 
HETATM    2  C4  UNL     1      46.179  75.681 -28.112  1.00  0.00     0.042 C 
HETATM    3  C5  UNL     1      44.941  75.941 -28.954  1.00  0.00     0.030 C 
HETATM    4 BR1  UNL     1      46.079  77.292 -26.994  1.00  0.00    -0.083 Br
HETATM    5  C6  UNL     1      45.891  74.547 -27.231  1.00  0.00     0.024 C 
HETATM    6  C7  UNL     1      46.943  73.508 -27.034  1.00  0.00     0.012 C 
HETATM    7  C8  UNL     1      47.704  73.313 -28.262  1.00  0.00    -0.031 C 
HETATM    8  C9  UNL     1      46.800  72.843 -29.351  1.00  0.00     0.016 C 
HETATM    9  C10 UNL     1      48.960  72.610 -28.371  1.00  0.00     0.033 C 
HETATM   10  C11 UNL     1      49.495  73.894 -29.047  1.00  0.00     0.081 C 
HETATM   11  C14 UNL     1      50.593  74.369 -28.088  1.00  0.00     0.110 C 
HETATM   12  C21 UNL     1      49.443  75.014 -27.412  1.00  0.00     0.019 C 
HETATM   13  C22 UNL     1      49.555  76.365 -26.892  1.00  0.00     0.013 C 
HETATM   14  C23 UNL     1      48.445  74.623 -28.495  1.00  0.00     0.019 C 
ENDROOT
BRANCH  11  15
HETATM   15  N1  UNL     1      51.734  74.989 -28.582  1.00  0.00    -0.349 N 
HETATM   16  C15 UNL     1      51.528  76.216 -29.403  1.00  0.00     0.153 C 
HETATM   17  C16 UNL     1      53.096  74.675 -28.468  1.00  0.00     0.227 C 
HETATM   18  O6  UNL     1      53.352  73.634 -27.794  1.00  0.00    -0.273 OA
BRANCH  17  19
HETATM   19  C17 UNL     1      54.264  75.365 -29.006  1.00  0.00     0.030 C 
HETATM   20  C18 UNL     1      54.322  75.476 -30.509  1.00  0.00     0.025 C 
HETATM   21  C19 UNL     1      55.548  74.565 -28.644  1.00  0.00     0.025 C 
HETATM   22  C20 UNL     1      54.470  76.703 -28.337  1.00  0.00     0.025 C 
ENDBRANCH  17  19
ENDBRANCH  11  15
BRANCH  10  23
HETATM   23  C12 UNL     1      49.902  73.649 -30.406  1.00  0.00     0.277 C 
HETATM   24  O3  UNL     1      49.408  74.115 -31.426  1.00  0.00    -0.264 OA
BRANCH  23  25
HETATM   25  O4  UNL     1      50.996  72.771 -30.616  1.00  0.00    -0.252 OA
BRANCH  25  26
HETATM   26  C13 UNL     1      50.892  71.784 -31.583  1.00  0.00     0.406 C 
HETATM   27  O5  UNL     1      51.492  70.670 -31.493  1.00  0.00    -0.276 OA
ENDBRANCH  25  26
ENDBRANCH  23  25
ENDBRANCH  10  23
BRANCH   1  28
HETATM   28  O2  UNL     1      47.326  75.965 -30.245  1.00  0.00    -0.314 OA
BRANCH  28  29
HETATM   29  C2  UNL     1      47.724  76.965 -31.036  1.00  0.00     0.255 C 
HETATM   30  C1  UNL     1      48.414  78.189 -30.557  1.00  0.00     0.126 C 
HETATM   31  O1  UNL     1      47.440  76.725 -32.210  1.00  0.00    -0.266 OA
ENDBRANCH  28  29
ENDBRANCH   1  28
TORSDOF 7
ENDMDL
MODEL 3
REMARK VINA RESULT: -5.527806342      2.680      5.798
REMARK  7 active torsions:
REMARK  status: ('A' for Active; 'I' for Inactive)
REMARK    1  A    between atoms: C2_2  and  O2_4 
REMARK    2  A    between atoms: O2_4  and  C3_5 
REMARK    3  A    between atoms: C11_14  and  C12_15 
REMARK    4  A    between atoms: C12_15  and  O4_17 
REMARK    5  A    between atoms: O4_17  and  C13_18 
REMARK    6  A    between atoms: C14_20  and  N1_21 
REMARK       I    between atoms: N1_21  and  C16_23 
REMARK    7  A    between atoms: C16_23  and  C17_25 
ROOT
HETATM    1  C3  UNL     1      53.998  74.074 -31.588  1.00  0.00     0.161 C 
HETATM    2  C4  UNL     1      55.210  74.807 -32.157  1.00  0.00     0.042 C 
HETATM    3  C5  UNL     1      56.265  73.876 -32.731  1.00  0.00     0.030 C 
HETATM    4 BR1  UNL     1      56.316  75.621 -30.752  1.00  0.00    -0.083 Br
HETATM    5  C6  UNL     1      54.955  75.859 -33.143  1.00  0.00     0.024 C 
HETATM    6  C7  UNL     1      53.547  76.283 -33.390  1.00  0.00     0.012 C 
HETATM    7  C8  UNL     1      52.644  75.144 -33.275  1.00  0.00    -0.031 C 
HETATM    8  C9  UNL     1      52.992  74.113 -34.295  1.00  0.00     0.016 C 
HETATM    9  C10 UNL     1      51.205  75.217 -33.169  1.00  0.00     0.033 C 
HETATM   10  C11 UNL     1      51.364  74.353 -31.896  1.00  0.00     0.081 C 
HETATM   11  C14 UNL     1      50.840  75.264 -30.780  1.00  0.00     0.110 C 
HETATM   12  C21 UNL     1      52.235  75.763 -30.807  1.00  0.00     0.019 C 
HETATM   13  C22 UNL     1      52.942  76.044 -29.571  1.00  0.00     0.013 C 
HETATM   14  C23 UNL     1      52.705  74.720 -31.813  1.00  0.00     0.019 C 
ENDROOT
BRANCH  11  15
HETATM   15  N1  UNL     1      50.161  74.723 -29.695  1.00  0.00    -0.349 N 
HETATM   16  C15 UNL     1      50.989  74.299 -28.531  1.00  0.00     0.153 C 
HETATM   17  C16 UNL     1      48.800  74.476 -29.469  1.00  0.00     0.227 C 
HETATM   18  O6  UNL     1      48.030  74.798 -30.422  1.00  0.00    -0.273 OA
BRANCH  17  19
HETATM   19  C17 UNL     1      48.133  73.905 -28.303  1.00  0.00     0.030 C 
HETATM   20  C18 UNL     1      48.969  72.975 -27.462  1.00  0.00     0.025 C 
HETATM   21  C19 UNL     1      46.946  73.015 -28.771  1.00  0.00     0.025 C 
HETATM   22  C20 UNL     1      47.474  74.976 -27.466  1.00  0.00     0.025 C 
ENDBRANCH  17  19
ENDBRANCH  11  15
BRANCH  10  23
HETATM   23  C12 UNL     1      50.711  73.078 -32.034  1.00  0.00     0.277 C 
HETATM   24  O3  UNL     1      50.833  72.097 -31.311  1.00  0.00    -0.264 OA
BRANCH  23  25
HETATM   25  O4  UNL     1      49.820  72.912 -33.125  1.00  0.00    -0.252 OA
BRANCH  25  26
HETATM   26  C13 UNL     1      49.848  71.729 -33.845  1.00  0.00     0.406 C 
HETATM   27  O5  UNL     1      50.515  71.593 -34.916  1.00  0.00    -0.276 OA
ENDBRANCH  25  26
ENDBRANCH  23  25
ENDBRANCH  10  23
BRANCH   1  28
HETATM   28  O2  UNL     1      54.123  72.713 -31.541  1.00  0.00    -0.314 OA
BRANCH  28  29
HETATM   29  C2  UNL     1      54.083  71.765 -30.600  1.00  0.00     0.255 C 
HETATM   30  C1  UNL     1      53.862  70.322 -30.873  1.00  0.00     0.126 C 
HETATM   31  O1  UNL     1      54.255  72.257 -29.486  1.00  0.00    -0.266 OA
ENDBRANCH  28  29
ENDBRANCH   1  28
TORSDOF 7
ENDMDL
MODEL 4
REMARK VINA RESULT: -5.490412950      3.392      5.879
REMARK  7 active torsions:
REMARK  status: ('A' for Active; 'I' for Inactive)
REMARK    1  A    between atoms: C2_2  and  O2_4 
REMARK    2  A    between atoms: O2_4  and  C3_5 
REMARK    3  A    between atoms: C11_14  and  C12_15 
REMARK    4  A    between atoms: C12_15  and  O4_17 
REMARK    5  A    between atoms: O4_17  and  C13_18 
REMARK    6  A    between atoms: C14_20  and  N1_21 
REMARK       I    between atoms: N1_21  and  C16_23 
REMARK    7  A    between atoms: C16_23  and  C17_25 
ROOT
HETATM    1  C3  UNL     1      48.639  75.994 -29.991  1.00  0.00     0.161 C 
HETATM    2  C4  UNL     1      47.684  76.698 -29.031  1.00  0.00     0.042 C 
HETATM    3  C5  UNL     1      46.341  77.039 -29.656  1.00  0.00     0.030 C 
HETATM    4 BR1  UNL     1      48.257  78.532 -28.622  1.00  0.00    -0.083 Br
HETATM    5  C6  UNL     1      47.427  76.048 -27.744  1.00  0.00     0.024 C 
HETATM    6  C7  UNL     1      48.244  74.859 -27.367  1.00  0.00     0.012 C 
HETATM    7  C8  UNL     1      48.559  74.062 -28.546  1.00  0.00    -0.031 C 
HETATM    8  C9  UNL     1      47.301  73.566 -29.177  1.00  0.00     0.016 C 
HETATM    9  C10 UNL     1      49.550  73.014 -28.614  1.00  0.00     0.033 C 
HETATM   10  C11 UNL     1      50.129  73.789 -29.820  1.00  0.00     0.081 C 
HETATM   11  C14 UNL     1      51.532  74.188 -29.346  1.00  0.00     0.110 C 
HETATM   12  C21 UNL     1      50.790  75.332 -28.764  1.00  0.00     0.019 C 
HETATM   13  C22 UNL     1      51.334  76.677 -28.836  1.00  0.00     0.013 C 
HETATM   14  C23 UNL     1      49.464  74.939 -29.402  1.00  0.00     0.019 C 
ENDROOT
BRANCH  11  15
HETATM   15  N1  UNL     1      52.588  74.241 -30.248  1.00  0.00    -0.349 N 
HETATM   16  C15 UNL     1      52.498  75.269 -31.324  1.00  0.00     0.153 C 
HETATM   17  C16 UNL     1      53.763  73.486 -30.360  1.00  0.00     0.227 C 
HETATM   18  O6  UNL     1      53.906  72.581 -29.487  1.00  0.00    -0.273 OA
BRANCH  17  19
HETATM   19  C17 UNL     1      54.849  73.584 -31.330  1.00  0.00     0.030 C 
HETATM   20  C18 UNL     1      54.452  73.420 -32.775  1.00  0.00     0.025 C 
HETATM   21  C19 UNL     1      55.861  72.427 -31.091  1.00  0.00     0.025 C 
HETATM   22  C20 UNL     1      55.671  74.834 -31.114  1.00  0.00     0.025 C 
ENDBRANCH  17  19
ENDBRANCH  11  15
BRANCH  10  23
HETATM   23  C12 UNL     1      50.066  73.014 -31.031  1.00  0.00     0.277 C 
HETATM   24  O3  UNL     1      49.731  73.398 -32.144  1.00  0.00    -0.264 OA
BRANCH  23  25
HETATM   25  O4  UNL     1      50.426  71.644 -30.953  1.00  0.00    -0.252 OA
BRANCH  25  26
HETATM   26  C13 UNL     1      51.371  71.143 -31.833  1.00  0.00     0.406 C 
HETATM   27  O5  UNL     1      51.992  70.056 -31.627  1.00  0.00    -0.276 OA
ENDBRANCH  25  26
ENDBRANCH  23  25
ENDBRANCH  10  23
BRANCH   1  28
HETATM   28  O2  UNL     1      48.202  75.926 -31.285  1.00  0.00    -0.314 OA
BRANCH  28  29
HETATM   29  C2  UNL     1      48.404  76.608 -32.416  1.00  0.00     0.255 C 
HETATM   30  C1  UNL     1      49.716  77.161 -32.838  1.00  0.00     0.126 C 
HETATM   31  O1  UNL     1      47.355  76.709 -33.052  1.00  0.00    -0.266 OA
ENDBRANCH  28  29
ENDBRANCH   1  28
TORSDOF 7
ENDMDL
MODEL 5
REMARK VINA RESULT: -5.390766886      2.399      3.676
REMARK  7 active torsions:
REMARK  status: ('A' for Active; 'I' for Inactive)
REMARK    1  A    between atoms: C2_2  and  O2_4 
REMARK    2  A    between atoms: O2_4  and  C3_5 
REMARK    3  A    between atoms: C11_14  and  C12_15 
REMARK    4  A    between atoms: C12_15  and  O4_17 
REMARK    5  A    between atoms: O4_17  and  C13_18 
REMARK    6  A    between atoms: C14_20  and  N1_21 
REMARK       I    between atoms: N1_21  and  C16_23 
REMARK    7  A    between atoms: C16_23  and  C17_25 
ROOT
HETATM    1  C3  UNL     1      55.145  74.646 -30.191  1.00  0.00     0.161 C 
HETATM    2  C4  UNL     1      56.138  75.752 -29.844  1.00  0.00     0.042 C 
HETATM    3  C5  UNL     1      56.326  75.950 -28.349  1.00  0.00     0.030 C 
HETATM    4 BR1  UNL     1      55.437  77.540 -30.259  1.00  0.00    -0.083 Br
HETATM    5  C6  UNL     1      57.466  75.677 -30.457  1.00  0.00     0.024 C 
HETATM    6  C7  UNL     1      57.710  74.655 -31.515  1.00  0.00     0.012 C 
HETATM    7  C8  UNL     1      56.958  73.439 -31.232  1.00  0.00    -0.031 C 
HETATM    8  C9  UNL     1      57.399  72.858 -29.931  1.00  0.00     0.016 C 
HETATM    9  C10 UNL     1      56.724  72.358 -32.161  1.00  0.00     0.033 C 
HETATM   10  C11 UNL     1      55.223  72.550 -31.837  1.00  0.00     0.081 C 
HETATM   11  C14 UNL     1      54.620  72.968 -33.183  1.00  0.00     0.110 C 
HETATM   12  C21 UNL     1      55.052  74.312 -32.731  1.00  0.00     0.019 C 
HETATM   13  C22 UNL     1      54.194  75.467 -32.927  1.00  0.00     0.013 C 
HETATM   14  C23 UNL     1      55.490  73.828 -31.354  1.00  0.00     0.019 C 
ENDROOT
BRANCH  11  15
HETATM   15  N1  UNL     1      53.334  72.570 -33.528  1.00  0.00    -0.349 N 
HETATM   16  C15 UNL     1      53.176  71.882 -34.842  1.00  0.00     0.153 C 
HETATM   17  C16 UNL     1      52.104  72.698 -32.869  1.00  0.00     0.227 C 
HETATM   18  O6  UNL     1      52.154  73.286 -31.748  1.00  0.00    -0.273 OA
BRANCH  17  19
HETATM   19  C17 UNL     1      50.773  72.256 -33.275  1.00  0.00     0.030 C 
HETATM   20  C18 UNL     1      50.156  73.013 -34.424  1.00  0.00     0.025 C 
HETATM   21  C19 UNL     1      49.774  72.482 -32.104  1.00  0.00     0.025 C 
HETATM   22  C20 UNL     1      50.733  70.764 -33.503  1.00  0.00     0.025 C 
ENDBRANCH  17  19
ENDBRANCH  11  15
BRANCH  10  23
HETATM   23  C12 UNL     1      54.658  71.376 -31.225  1.00  0.00     0.277 C 
HETATM   24  O3  UNL     1      54.239  71.263 -30.080  1.00  0.00    -0.264 OA
BRANCH  23  25
HETATM   25  O4  UNL     1      54.565  70.203 -32.017  1.00  0.00    -0.252 OA
BRANCH  25  26
HETATM   26  C13 UNL     1      53.608  69.252 -31.703  1.00  0.00     0.406 C 
HETATM   27  O5  UNL     1      53.382  68.239 -32.433  1.00  0.00    -0.276 OA
ENDBRANCH  25  26
ENDBRANCH  23  25
ENDBRANCH  10  23
BRANCH   1  28
HETATM   28  O2  UNL     1      54.473  74.125 -29.120  1.00  0.00    -0.314 OA
BRANCH  28  29
HETATM   29  C2  UNL     1      53.324  74.365 -28.483  1.00  0.00     0.255 C 
HETATM   30  C1  UNL     1      52.284  75.312 -28.960  1.00  0.00     0.126 C 
HETATM   31  O1  UNL     1      53.252  73.694 -27.455  1.00  0.00    -0.266 OA
ENDBRANCH  28  29
ENDBRANCH   1  28
TORSDOF 7
ENDMDL
