MODEL 1
REMARK VINA RESULT: -5.923855971      0.000      0.000
REMARK  5 active torsions:
REMARK  status: ('A' for Active; 'I' for Inactive)
REMARK    1  A    between atoms: C2_2  and  C3_3 
REMARK    2  A    between atoms: N1_14  and  O3_15 
REMARK    3  A    between atoms: C16_21  and  C17_22 
REMARK    4  A    between atoms: C16_21  and  S1_24 
REMARK    5  A    between atoms: S1_24  and  C18_27 
ROOT
HETATM    1  C3  UNL     1      53.956  74.389 -30.806  1.00  0.00     0.019 C 
HETATM    2  C4  UNL     1      53.605  74.156 -29.291  1.00  0.00     0.026 C 
HETATM    3  C5  UNL     1      54.816  75.598 -30.691  1.00  0.00    -0.010 C 
HETATM    4  C6  UNL     1      54.732  76.716 -31.337  1.00  0.00     0.011 C 
HETATM    5  C7  UNL     1      53.653  76.814 -32.307  1.00  0.00     0.002 C 
HETATM    6  C8  UNL     1      53.517  77.951 -33.012  1.00  0.00     0.027 C 
HETATM    7  C9  UNL     1      52.739  75.714 -32.516  1.00  0.00     0.182 C 
HETATM    8  O1  UNL     1      51.938  75.874 -33.473  1.00  0.00    -0.291 OA
HETATM    9  C10 UNL     1      52.770  74.521 -31.651  1.00  0.00     0.149 C 
HETATM   10  C11 UNL     1      51.654  74.849 -30.655  1.00  0.00     0.266 C 
HETATM   11  O2  UNL     1      51.371  75.987 -30.173  1.00  0.00    -0.269 OA
HETATM   12  N1  UNL     1      51.011  73.677 -30.378  1.00  0.00    -0.213 N 
HETATM   13  C12 UNL     1      51.075  72.844 -31.558  1.00  0.00     0.082 C 
HETATM   14  C13 UNL     1      51.088  71.433 -31.050  1.00  0.00     0.046 C 
HETATM   15  C14 UNL     1      49.762  73.141 -32.288  1.00  0.00     0.046 C 
HETATM   16  C15 UNL     1      52.244  73.300 -32.319  1.00  0.00    -0.004 C 
HETATM   17  C16 UNL     1      52.652  72.709 -33.466  1.00  0.00     0.058 C 
ENDROOT
BRANCH  17  18
HETATM   18  C17 UNL     1      53.806  73.313 -34.266  1.00  0.00     0.136 C 
HETATM   19 BR1  UNL     1      53.163  74.255 -35.851  1.00  0.00    -0.091 Br
ENDBRANCH  17  18
BRANCH  17  20
HETATM   20  S1  UNL     1      52.049  71.328 -34.292  1.00  0.00     0.204 S 
HETATM   21  O4  UNL     1      50.636  71.275 -34.679  1.00  0.00    -0.217 OA
HETATM   22  O5  UNL     1      52.785  71.102 -35.634  1.00  0.00    -0.217 OA
BRANCH  20  23
HETATM   23  C18 UNL     1      52.384  69.832 -33.406  1.00  0.00     0.064 A 
HETATM   24  C19 UNL     1      51.641  68.708 -33.449  1.00  0.00     0.024 A 
HETATM   25  C20 UNL     1      51.970  67.580 -32.737  1.00  0.00     0.002 A 
HETATM   26  C21 UNL     1      53.082  67.522 -31.932  1.00  0.00     0.000 A 
HETATM   27  C22 UNL     1      53.849  68.661 -31.880  1.00  0.00     0.002 A 
HETATM   28  C23 UNL     1      53.524  69.791 -32.590  1.00  0.00     0.024 A 
ENDBRANCH  20  23
ENDBRANCH  17  20
BRANCH   1  29
HETATM   29  C2  UNL     1      54.923  73.309 -31.184  1.00  0.00    -0.022 C 
HETATM   30  C1  UNL     1      55.233  72.330 -30.403  1.00  0.00     0.008 C 
ENDBRANCH   1  29
BRANCH  12  31
HETATM   31  O3  UNL     1      50.363  73.283 -29.218  1.00  0.00    -0.284 OA
ATOM     32  H3  UNL     1      49.902  73.811 -28.577  1.00  0.00     0.245 HD
ENDBRANCH  12  31
TORSDOF 5
ENDMDL
MODEL 2
REMARK VINA RESULT: -5.916228597      1.652      1.964
REMARK  5 active torsions:
REMARK  status: ('A' for Active; 'I' for Inactive)
REMARK    1  A    between atoms: C2_2  and  C3_3 
REMARK    2  A    between atoms: N1_14  and  O3_15 
REMARK    3  A    between atoms: C16_21  and  C17_22 
REMARK    4  A    between atoms: C16_21  and  S1_24 
REMARK    5  A    between atoms: S1_24  and  C18_27 
ROOT
HETATM    1  C3  UNL     1      55.006  74.397 -32.130  1.00  0.00     0.019 C 
HETATM    2  C4  UNL     1      55.078  75.073 -30.712  1.00  0.00     0.026 C 
HETATM    3  C5  UNL     1      56.200  75.010 -32.771  1.00  0.00    -0.010 C 
HETATM    4  C6  UNL     1      56.287  75.609 -33.915  1.00  0.00     0.011 C 
HETATM    5  C7  UNL     1      55.056  75.703 -34.682  1.00  0.00     0.002 C 
HETATM    6  C8  UNL     1      55.085  76.313 -35.881  1.00  0.00     0.027 C 
HETATM    7  C9  UNL     1      53.819  75.155 -34.174  1.00  0.00     0.182 C 
HETATM    8  O1  UNL     1      52.861  75.182 -34.988  1.00  0.00    -0.291 OA
HETATM    9  C10 UNL     1      53.727  74.622 -32.802  1.00  0.00     0.149 C 
HETATM   10  C11 UNL     1      53.136  75.823 -32.058  1.00  0.00     0.266 C 
HETATM   11  O2  UNL     1      53.395  77.047 -32.258  1.00  0.00    -0.269 OA
HETATM   12  N1  UNL     1      52.267  75.326 -31.129  1.00  0.00    -0.213 N 
HETATM   13  C12 UNL     1      51.697  74.107 -31.660  1.00  0.00     0.082 C 
HETATM   14  C13 UNL     1      51.410  73.249 -30.464  1.00  0.00     0.046 C 
HETATM   15  C14 UNL     1      50.393  74.569 -32.316  1.00  0.00     0.046 C 
HETATM   16  C15 UNL     1      52.659  73.598 -32.643  1.00  0.00    -0.004 C 
HETATM   17  C16 UNL     1      52.485  72.432 -33.308  1.00  0.00     0.058 C 
ENDROOT
BRANCH  17  18
HETATM   18  C17 UNL     1      53.470  72.025 -34.403  1.00  0.00     0.136 C 
HETATM   19 BR1  UNL     1      52.671  72.181 -36.178  1.00  0.00    -0.091 Br
ENDBRANCH  17  18
BRANCH  17  20
HETATM   20  S1  UNL     1      51.249  71.245 -33.185  1.00  0.00     0.204 S 
HETATM   21  O4  UNL     1      50.084  71.498 -32.331  1.00  0.00    -0.217 OA
HETATM   22  O5  UNL     1      50.610  70.945 -34.562  1.00  0.00    -0.217 OA
BRANCH  20  23
HETATM   23  C18 UNL     1      51.895  69.669 -32.702  1.00  0.00     0.064 A 
HETATM   24  C19 UNL     1      51.646  68.494 -33.316  1.00  0.00     0.024 A 
HETATM   25  C20 UNL     1      52.192  67.309 -32.886  1.00  0.00     0.002 A 
HETATM   26  C21 UNL     1      53.029  67.241 -31.799  1.00  0.00     0.000 A 
HETATM   27  C22 UNL     1      53.291  68.432 -31.164  1.00  0.00     0.002 A 
HETATM   28  C23 UNL     1      52.748  69.619 -31.590  1.00  0.00     0.024 A 
ENDBRANCH  20  23
ENDBRANCH  17  20
BRANCH   1  29
HETATM   29  C2  UNL     1      55.410  72.967 -31.935  1.00  0.00    -0.022 C 
HETATM   30  C1  UNL     1      55.506  72.410 -30.775  1.00  0.00     0.008 C 
ENDBRANCH   1  29
BRANCH  12  31
HETATM   31  O3  UNL     1      51.913  75.842 -29.893  1.00  0.00    -0.284 OA
ATOM     32  H3  UNL     1      51.593  75.391 -29.121  1.00  0.00     0.245 HD
ENDBRANCH  12  31
TORSDOF 5
ENDMDL
MODEL 3
REMARK VINA RESULT: -5.845903328      4.202      6.616
REMARK  5 active torsions:
REMARK  status: ('A' for Active; 'I' for Inactive)
REMARK    1  A    between atoms: C2_2  and  C3_3 
REMARK    2  A    between atoms: N1_14  and  O3_15 
REMARK    3  A    between atoms: C16_21  and  C17_22 
REMARK    4  A    between atoms: C16_21  and  S1_24 
REMARK    5  A    between atoms: S1_24  and  C18_27 
ROOT
HETATM    1  C3  UNL     1      51.128  74.245 -31.143  1.00  0.00     0.019 C 
HETATM    2  C4  UNL     1      51.960  72.983 -30.709  1.00  0.00     0.026 C 
HETATM    3  C5  UNL     1      51.646  74.437 -32.524  1.00  0.00    -0.010 C 
HETATM    4  C6  UNL     1      52.110  75.513 -33.073  1.00  0.00     0.011 C 
HETATM    5  C7  UNL     1      52.134  76.699 -32.233  1.00  0.00     0.002 C 
HETATM    6  C8  UNL     1      52.603  77.849 -32.749  1.00  0.00     0.027 C 
HETATM    7  C9  UNL     1      51.665  76.652 -30.867  1.00  0.00     0.182 C 
HETATM    8  O1  UNL     1      51.613  77.770 -30.293  1.00  0.00    -0.291 OA
HETATM    9  C10 UNL     1      51.293  75.375 -30.231  1.00  0.00     0.149 C 
HETATM   10  C11 UNL     1      52.579  75.038 -29.470  1.00  0.00     0.266 C 
HETATM   11  O2  UNL     1      53.769  75.244 -29.854  1.00  0.00    -0.269 OA
HETATM   12  N1  UNL     1      52.204  74.470 -28.287  1.00  0.00    -0.213 N 
HETATM   13  C12 UNL     1      50.941  75.054 -27.893  1.00  0.00     0.082 C 
HETATM   14  C13 UNL     1      50.229  73.981 -27.125  1.00  0.00     0.046 C 
HETATM   15  C14 UNL     1      51.343  76.203 -26.964  1.00  0.00     0.046 C 
HETATM   16  C15 UNL     1      50.309  75.537 -29.126  1.00  0.00    -0.004 C 
HETATM   17  C16 UNL     1      49.078  76.098 -29.151  1.00  0.00     0.058 C 
ENDROOT
BRANCH  17  18
HETATM   18  C17 UNL     1      48.535  76.685 -30.454  1.00  0.00     0.136 C 
HETATM   19 BR1  UNL     1      48.592  78.637 -30.438  1.00  0.00    -0.091 Br
ENDBRANCH  17  18
BRANCH  17  20
HETATM   20  S1  UNL     1      47.931  76.342 -27.896  1.00  0.00     0.204 S 
HETATM   21  O4  UNL     1      48.395  76.638 -26.538  1.00  0.00    -0.217 OA
HETATM   22  O5  UNL     1      46.990  77.530 -28.208  1.00  0.00    -0.217 OA
BRANCH  20  23
HETATM   23  C18 UNL     1      46.807  74.980 -27.757  1.00  0.00     0.064 A 
HETATM   24  C19 UNL     1      46.991  73.750 -28.278  1.00  0.00     0.024 A 
HETATM   25  C20 UNL     1      46.074  72.739 -28.122  1.00  0.00     0.002 A 
HETATM   26  C21 UNL     1      44.905  72.914 -27.422  1.00  0.00     0.000 A 
HETATM   27  C22 UNL     1      44.704  74.163 -26.885  1.00  0.00     0.002 A 
HETATM   28  C23 UNL     1      45.618  75.177 -27.039  1.00  0.00     0.024 A 
ENDBRANCH  20  23
ENDBRANCH  17  20
BRANCH   1  29
HETATM   29  C2  UNL     1      49.724  73.769 -31.361  1.00  0.00    -0.022 C 
HETATM   30  C1  UNL     1      49.297  72.616 -30.967  1.00  0.00     0.008 C 
ENDBRANCH   1  29
BRANCH  12  31
HETATM   31  O3  UNL     1      52.862  73.522 -27.520  1.00  0.00    -0.284 OA
ATOM     32  H3  UNL     1      52.853  72.575 -27.595  1.00  0.00     0.245 HD
ENDBRANCH  12  31
TORSDOF 5
ENDMDL
MODEL 4
REMARK VINA RESULT: -5.825297322      4.048      6.542
REMARK  5 active torsions:
REMARK  status: ('A' for Active; 'I' for Inactive)
REMARK    1  A    between atoms: C2_2  and  C3_3 
REMARK    2  A    between atoms: N1_14  and  O3_15 
REMARK    3  A    between atoms: C16_21  and  C17_22 
REMARK    4  A    between atoms: C16_21  and  S1_24 
REMARK    5  A    between atoms: S1_24  and  C18_27 
ROOT
HETATM    1  C3  UNL     1      51.200  73.936 -32.038  1.00  0.00     0.019 C 
HETATM    2  C4  UNL     1      52.634  73.290 -32.004  1.00  0.00     0.026 C 
HETATM    3  C5  UNL     1      50.987  74.018 -33.509  1.00  0.00    -0.010 C 
HETATM    4  C6  UNL     1      50.618  75.035 -34.218  1.00  0.00     0.011 C 
HETATM    5  C7  UNL     1      50.381  76.270 -33.488  1.00  0.00     0.002 C 
HETATM    6  C8  UNL     1      49.992  77.362 -34.171  1.00  0.00     0.027 C 
HETATM    7  C9  UNL     1      50.556  76.332 -32.055  1.00  0.00     0.182 C 
HETATM    8  O1  UNL     1      50.190  77.415 -31.530  1.00  0.00    -0.291 OA
HETATM    9  C10 UNL     1      51.128  75.199 -31.306  1.00  0.00     0.149 C 
HETATM   10  C11 UNL     1      52.593  75.631 -31.189  1.00  0.00     0.266 C 
HETATM   11  O2  UNL     1      53.281  76.239 -32.062  1.00  0.00    -0.269 OA
HETATM   12  N1  UNL     1      53.026  75.236 -29.956  1.00  0.00    -0.213 N 
HETATM   13  C12 UNL     1      51.900  75.289 -29.050  1.00  0.00     0.082 C 
HETATM   14  C13 UNL     1      52.156  74.216 -28.035  1.00  0.00     0.046 C 
HETATM   15  C14 UNL     1      52.011  76.675 -28.408  1.00  0.00     0.046 C 
HETATM   16  C15 UNL     1      50.698  75.162 -29.881  1.00  0.00    -0.004 C 
HETATM   17  C16 UNL     1      49.448  75.114 -29.366  1.00  0.00     0.058 C 
ENDROOT
BRANCH  17  18
HETATM   18  C17 UNL     1      48.238  75.100 -30.300  1.00  0.00     0.136 C 
HETATM   19 BR1  UNL     1      47.327  76.827 -30.317  1.00  0.00    -0.091 Br
ENDBRANCH  17  18
BRANCH  17  20
HETATM   20  S1  UNL     1      48.907  75.112 -27.735  1.00  0.00     0.204 S 
HETATM   21  O4  UNL     1      49.711  74.447 -26.706  1.00  0.00    -0.217 OA
HETATM   22  O5  UNL     1      48.758  76.549 -27.183  1.00  0.00    -0.217 OA
BRANCH  20  23
HETATM   23  C18 UNL     1      47.265  74.465 -27.587  1.00  0.00     0.064 A 
HETATM   24  C19 UNL     1      46.893  73.195 -27.843  1.00  0.00     0.024 A 
HETATM   25  C20 UNL     1      45.597  72.764 -27.697  1.00  0.00     0.002 A 
HETATM   26  C21 UNL     1      44.591  73.600 -27.279  1.00  0.00     0.000 A 
HETATM   27  C22 UNL     1      44.956  74.898 -27.014  1.00  0.00     0.002 A 
HETATM   28  C23 UNL     1      46.250  75.334 -27.158  1.00  0.00     0.024 A 
ENDBRANCH  20  23
ENDBRANCH  17  20
BRANCH   1  29
HETATM   29  C2  UNL     1      50.246  72.864 -31.608  1.00  0.00    -0.022 C 
HETATM   30  C1  UNL     1      49.920  71.863 -32.354  1.00  0.00     0.008 C 
ENDBRANCH   1  29
BRANCH  12  31
HETATM   31  O3  UNL     1      54.298  74.865 -29.549  1.00  0.00    -0.284 OA
ATOM     32  H3  UNL     1      54.842  75.232 -28.862  1.00  0.00     0.245 HD
ENDBRANCH  12  31
TORSDOF 5
ENDMDL
MODEL 5
REMARK VINA RESULT: -5.816298230      1.930      3.643
REMARK  5 active torsions:
REMARK  status: ('A' for Active; 'I' for Inactive)
REMARK    1  A    between atoms: C2_2  and  C3_3 
REMARK    2  A    between atoms: N1_14  and  O3_15 
REMARK    3  A    between atoms: C16_21  and  C17_22 
REMARK    4  A    between atoms: C16_21  and  S1_24 
REMARK    5  A    between atoms: S1_24  and  C18_27 
ROOT
HETATM    1  C3  UNL     1      51.160  75.085 -31.675  1.00  0.00     0.019 C 
HETATM    2  C4  UNL     1      52.157  76.184 -31.154  1.00  0.00     0.026 C 
HETATM    3  C5  UNL     1      49.862  75.746 -31.374  1.00  0.00    -0.010 C 
HETATM    4  C6  UNL     1      48.839  75.271 -30.739  1.00  0.00     0.011 C 
HETATM    5  C7  UNL     1      48.969  73.909 -30.248  1.00  0.00     0.002 C 
HETATM    6  C8  UNL     1      47.936  73.360 -29.582  1.00  0.00     0.027 C 
HETATM    7  C9  UNL     1      50.179  73.152 -30.465  1.00  0.00     0.182 C 
HETATM    8  O1  UNL     1      50.114  71.947 -30.111  1.00  0.00    -0.291 OA
HETATM    9  C10 UNL     1      51.377  73.780 -31.052  1.00  0.00     0.149 C 
HETATM   10  C11 UNL     1      52.184  74.112 -29.793  1.00  0.00     0.266 C 
HETATM   11  O2  UNL     1      51.730  74.508 -28.678  1.00  0.00    -0.269 OA
HETATM   12  N1  UNL     1      53.498  73.900 -30.096  1.00  0.00    -0.213 N 
HETATM   13  C12 UNL     1      53.565  72.827 -31.064  1.00  0.00     0.082 C 
HETATM   14  C13 UNL     1      54.779  73.116 -31.895  1.00  0.00     0.046 C 
HETATM   15  C14 UNL     1      53.783  71.575 -30.209  1.00  0.00     0.046 C 
HETATM   16  C15 UNL     1      52.266  72.809 -31.746  1.00  0.00    -0.004 C 
HETATM   17  C16 UNL     1      51.981  71.964 -32.764  1.00  0.00     0.058 C 
ENDROOT
BRANCH  17  18
HETATM   18  C17 UNL     1      50.569  71.921 -33.347  1.00  0.00     0.136 C 
HETATM   19 BR1  UNL     1      50.498  72.748 -35.114  1.00  0.00    -0.091 Br
ENDBRANCH  17  18
BRANCH  17  20
HETATM   20  S1  UNL     1      52.962  70.801 -33.564  1.00  0.00     0.204 S 
HETATM   21  O4  UNL     1      52.895  70.679 -35.023  1.00  0.00    -0.217 OA
HETATM   22  O5  UNL     1      54.467  71.052 -33.306  1.00  0.00    -0.217 OA
BRANCH  20  23
HETATM   23  C18 UNL     1      52.719  69.173 -32.911  1.00  0.00     0.064 A 
HETATM   24  C19 UNL     1      51.759  68.307 -33.292  1.00  0.00     0.024 A 
HETATM   25  C20 UNL     1      51.638  67.054 -32.742  1.00  0.00     0.002 A 
HETATM   26  C21 UNL     1      52.490  66.598 -31.766  1.00  0.00     0.000 A 
HETATM   27  C22 UNL     1      53.475  67.471 -31.369  1.00  0.00     0.002 A 
HETATM   28  C23 UNL     1      53.599  68.725 -31.915  1.00  0.00     0.024 A 
ENDBRANCH  20  23
ENDBRANCH  17  20
BRANCH   1  29
HETATM   29  C2  UNL     1      51.233  75.126 -33.171  1.00  0.00    -0.022 C 
HETATM   30  C1  UNL     1      51.997  75.938 -33.821  1.00  0.00     0.008 C 
ENDBRANCH   1  29
BRANCH  12  31
HETATM   31  O3  UNL     1      54.627  74.528 -29.595  1.00  0.00    -0.284 OA
ATOM     32  H3  UNL     1      55.448  74.729 -30.030  1.00  0.00     0.245 HD
ENDBRANCH  12  31
TORSDOF 5
ENDMDL
