MODEL 1
REMARK VINA RESULT: -3.845487045      0.000      0.000
REMARK  2 active torsions:
REMARK  status: ('A' for Active; 'I' for Inactive)
REMARK    1  A    between atoms: N1_2  and  C4_5 
REMARK    2  A    between atoms: C4_5  and  C5_6 
ROOT
HETATM    1  C5  UNL     1      52.124  68.986 -30.582  1.00  0.00     0.213 C 
HETATM    2  C6  UNL     1      52.847  68.071 -29.653  1.00  0.00     0.062 C 
HETATM    3  C7  UNL     1      52.100  66.879 -30.255  1.00  0.00     0.235 C 
HETATM    4  N2  UNL     1      51.672  67.798 -31.317  1.00  0.00    -0.069 N 
ATOM      5  H21 UNL     1      52.020  67.646 -32.264  1.00  0.00     0.277 HD
ATOM      6  H22 UNL     1      50.704  67.759 -31.636  1.00  0.00     0.277 HD
ENDROOT
BRANCH   1   7
HETATM    7  C4  UNL     1      52.923  69.867 -31.464  1.00  0.00     0.269 C 
BRANCH   7   8
HETATM    8  N1  UNL     1      52.458  71.201 -31.607  1.00  0.00    -0.077 N 
HETATM    9  C1  UNL     1      52.966  71.889 -32.768  1.00  0.00     0.271 C 
HETATM   10  C2  UNL     1      52.899  71.955 -30.432  1.00  0.00     0.271 C 
HETATM   11  C3  UNL     1      51.009  71.284 -31.657  1.00  0.00     0.271 C 
ENDBRANCH   7   8
ENDBRANCH   1   7
TORSDOF 2
ENDMDL
MODEL 2
REMARK VINA RESULT: -3.837616916      2.200      2.851
REMARK  2 active torsions:
REMARK  status: ('A' for Active; 'I' for Inactive)
REMARK    1  A    between atoms: N1_2  and  C4_5 
REMARK    2  A    between atoms: C4_5  and  C5_6 
ROOT
HETATM    1  C5  UNL     1      53.354  67.188 -29.136  1.00  0.00     0.213 C 
HETATM    2  C6  UNL     1      52.228  66.304 -29.552  1.00  0.00     0.062 C 
HETATM    3  C7  UNL     1      52.730  65.223 -28.594  1.00  0.00     0.235 C 
HETATM    4  N2  UNL     1      53.609  66.255 -28.032  1.00  0.00    -0.069 N 
ATOM      5  H21 UNL     1      53.443  66.570 -27.076  1.00  0.00     0.277 HD
ATOM      6  H22 UNL     1      54.574  66.008 -27.812  1.00  0.00     0.277 HD
ENDROOT
BRANCH   1   7
HETATM    7  C4  UNL     1      53.034  68.535 -28.612  1.00  0.00     0.269 C 
BRANCH   7   8
HETATM    8  N1  UNL     1      53.053  69.597 -29.555  1.00  0.00    -0.077 N 
HETATM    9  C1  UNL     1      53.071  69.172 -30.933  1.00  0.00     0.271 C 
HETATM   10  C2  UNL     1      54.273  70.374 -29.327  1.00  0.00     0.271 C 
HETATM   11  C3  UNL     1      51.927  70.501 -29.398  1.00  0.00     0.271 C 
ENDBRANCH   7   8
ENDBRANCH   1   7
TORSDOF 2
ENDMDL
MODEL 3
REMARK VINA RESULT: -3.832706128      0.947      1.801
REMARK  2 active torsions:
REMARK  status: ('A' for Active; 'I' for Inactive)
REMARK    1  A    between atoms: N1_2  and  C4_5 
REMARK    2  A    between atoms: C4_5  and  C5_6 
ROOT
HETATM    1  C5  UNL     1      52.226  68.658 -30.523  1.00  0.00     0.213 C 
HETATM    2  C6  UNL     1      52.845  67.764 -29.503  1.00  0.00     0.062 C 
HETATM    3  C7  UNL     1      52.906  66.636 -30.534  1.00  0.00     0.235 C 
HETATM    4  N2  UNL     1      52.583  67.657 -31.538  1.00  0.00    -0.069 N 
ATOM      5  H21 UNL     1      53.289  67.898 -32.235  1.00  0.00     0.277 HD
ATOM      6  H22 UNL     1      51.903  67.432 -32.264  1.00  0.00     0.277 HD
ENDROOT
BRANCH   1   7
HETATM    7  C4  UNL     1      52.883  69.951 -30.817  1.00  0.00     0.269 C 
BRANCH   7   8
HETATM    8  N1  UNL     1      52.105  71.117 -30.592  1.00  0.00    -0.077 N 
HETATM    9  C1  UNL     1      51.474  71.173 -29.296  1.00  0.00     0.271 C 
HETATM   10  C2  UNL     1      51.036  71.139 -31.593  1.00  0.00     0.271 C 
HETATM   11  C3  UNL     1      52.873  72.339 -30.750  1.00  0.00     0.271 C 
ENDBRANCH   7   8
ENDBRANCH   1   7
TORSDOF 2
ENDMDL
MODEL 4
REMARK VINA RESULT: -3.815981273      0.920      1.100
REMARK  2 active torsions:
REMARK  status: ('A' for Active; 'I' for Inactive)
REMARK    1  A    between atoms: N1_2  and  C4_5 
REMARK    2  A    between atoms: C4_5  and  C5_6 
ROOT
HETATM    1  C5  UNL     1      52.255  68.649 -30.509  1.00  0.00     0.213 C 
HETATM    2  C6  UNL     1      52.868  67.731 -29.506  1.00  0.00     0.062 C 
HETATM    3  C7  UNL     1      52.897  66.616 -30.553  1.00  0.00     0.235 C 
HETATM    4  N2  UNL     1      52.584  67.656 -31.540  1.00  0.00    -0.069 N 
ATOM      5  H21 UNL     1      53.286  67.892 -32.241  1.00  0.00     0.277 HD
ATOM      6  H22 UNL     1      51.892  67.452 -32.262  1.00  0.00     0.277 HD
ENDROOT
BRANCH   1   7
HETATM    7  C4  UNL     1      52.933  69.933 -30.793  1.00  0.00     0.269 C 
BRANCH   7   8
HETATM    8  N1  UNL     1      52.139  71.104 -30.669  1.00  0.00    -0.077 N 
HETATM    9  C1  UNL     1      52.858  72.338 -30.869  1.00  0.00     0.271 C 
HETATM   10  C2  UNL     1      51.601  71.135 -29.307  1.00  0.00     0.271 C 
HETATM   11  C3  UNL     1      51.010  71.110 -31.582  1.00  0.00     0.271 C 
ENDBRANCH   7   8
ENDBRANCH   1   7
TORSDOF 2
ENDMDL
MODEL 5
REMARK VINA RESULT: -3.807366196      0.517      1.423
REMARK  2 active torsions:
REMARK  status: ('A' for Active; 'I' for Inactive)
REMARK    1  A    between atoms: N1_2  and  C4_5 
REMARK    2  A    between atoms: C4_5  and  C5_6 
ROOT
HETATM    1  C5  UNL     1      52.318  68.735 -30.747  1.00  0.00     0.213 C 
HETATM    2  C6  UNL     1      52.869  68.004 -29.570  1.00  0.00     0.062 C 
HETATM    3  C7  UNL     1      52.861  66.706 -30.379  1.00  0.00     0.235 C 
HETATM    4  N2  UNL     1      52.615  67.546 -31.557  1.00  0.00    -0.069 N 
ATOM      5  H21 UNL     1      53.340  67.610 -32.272  1.00  0.00     0.277 HD
ATOM      6  H22 UNL     1      51.926  67.237 -32.243  1.00  0.00     0.277 HD
ENDROOT
BRANCH   1   7
HETATM    7  C4  UNL     1      53.063  69.908 -31.258  1.00  0.00     0.269 C 
BRANCH   7   8
HETATM    8  N1  UNL     1      52.354  71.138 -31.288  1.00  0.00    -0.077 N 
HETATM    9  C1  UNL     1      50.924  71.000 -31.416  1.00  0.00     0.271 C 
HETATM   10  C2  UNL     1      52.820  71.891 -32.454  1.00  0.00     0.271 C 
HETATM   11  C3  UNL     1      52.605  71.955 -30.115  1.00  0.00     0.271 C 
ENDBRANCH   7   8
ENDBRANCH   1   7
TORSDOF 2
ENDMDL
