MODEL 1
REMARK VINA RESULT: -8.370855141      0.000      0.000
REMARK  10 active torsions:
REMARK  status: ('A' for Active; 'I' for Inactive)
REMARK    1  A    between atoms: C2_2  and  N1_4 
REMARK    2  A    between atoms: C2_2  and  C4_8 
REMARK    3  A    between atoms: N2_12  and  C8_13 
REMARK    4  A    between atoms: C8_13  and  C9_14 
REMARK    5  A    between atoms: C10_15  and  C11_16 
REMARK    6  A    between atoms: N3_21  and  C16_22 
REMARK    7  A    between atoms: C16_22  and  C17_23 
REMARK    8  A    between atoms: C18_24  and  C19_25 
REMARK    9  A    between atoms: C19_25  and  N4_26 
REMARK   10  A    between atoms: C21_30  and  N6_31 
ROOT
HETATM    1  C11 UNL     1      42.557  25.159  54.446  1.00  0.00     0.089 A 
HETATM    2  C12 UNL     1      43.279  25.954  55.323  1.00  0.00     0.039 A 
HETATM    3  C13 UNL     1      44.636  26.141  55.080  1.00  0.00     0.004 A 
HETATM    4  C14 UNL     1      45.208  25.527  53.978  1.00  0.00     0.017 A 
HETATM    5  C15 UNL     1      44.456  24.735  53.117  1.00  0.00     0.093 A 
HETATM    6  N3  UNL     1      43.147  24.576  53.380  1.00  0.00    -0.339 N 
ENDROOT
BRANCH   1   7
HETATM    7  C10 UNL     1      41.157  24.971  54.710  1.00  0.00    -0.047 C 
HETATM    8  C9  UNL     1      39.977  24.826  54.954  1.00  0.00    -0.080 C 
BRANCH   8   9
HETATM    9  C8  UNL     1      38.542  24.661  55.276  1.00  0.00     0.221 C 
BRANCH   9  10
HETATM   10  N2  UNL     1      38.453  24.742  56.709  1.00  0.00    -0.355 N 
HETATM   11  C7  UNL     1      39.445  25.168  57.495  1.00  0.00     0.091 A 
HETATM   12  C6  UNL     1      39.267  25.207  58.867  1.00  0.00     0.018 A 
HETATM   13  C5  UNL     1      38.084  24.816  59.475  1.00  0.00     0.012 A 
HETATM   14  C4  UNL     1      37.082  24.382  58.633  1.00  0.00    -0.008 A 
HETATM   15  C22 UNL     1      37.295  24.358  57.291  1.00  0.00     0.101 A 
BRANCH  14  16
HETATM   16  C2  UNL     1      35.802  23.956  59.250  1.00  0.00     0.144 C 
HETATM   17  C1  UNL     1      34.869  25.154  59.353  1.00  0.00     0.051 C 
HETATM   18  C3  UNL     1      35.980  23.375  60.628  1.00  0.00     0.051 C 
BRANCH  16  19
HETATM   19  N1  UNL     1      35.171  23.021  58.340  1.00  0.00    -0.067 N 
ATOM     20  H13 UNL     1      34.155  23.114  58.305  1.00  0.00     0.275 HD
ATOM     21  H12 UNL     1      35.352  23.228  57.358  1.00  0.00     0.275 HD
ATOM     22  H11 UNL     1      35.481  22.090  58.620  1.00  0.00     0.275 HD
ENDBRANCH  16  19
ENDBRANCH  14  16
ENDBRANCH   9  10
ENDBRANCH   8   9
ENDBRANCH   1   7
BRANCH   6  23
HETATM   23  C16 UNL     1      42.265  23.762  52.528  1.00  0.00     0.223 C 
BRANCH  23  24
HETATM   24  C17 UNL     1      43.068  22.618  52.029  1.00  0.00    -0.085 C 
HETATM   25  C18 UNL     1      43.700  21.676  51.625  1.00  0.00    -0.083 C 
BRANCH  25  26
HETATM   26  C19 UNL     1      44.457  20.498  51.133  1.00  0.00     0.244 C 
BRANCH  26  27
HETATM   27  N4  UNL     1      44.758  19.615  52.266  1.00  0.00    -0.262 N 
HETATM   28  C20 UNL     1      44.098  18.478  52.548  1.00  0.00     0.219 A 
HETATM   29  N5  UNL     1      44.623  17.911  53.647  1.00  0.00    -0.185 N 
HETATM   30  C21 UNL     1      45.625  18.727  54.039  1.00  0.00     0.691 A 
ATOM     31  H5  UNL     1      44.326  17.043  54.094  1.00  0.00     0.185 HD
HETATM   32  N7  UNL     1      45.688  19.748  53.194  1.00  0.00    -0.129 N 
ATOM     33  H7  UNL     1      46.355  20.518  53.252  1.00  0.00     0.206 HD
BRANCH  30  34
HETATM   34  N6  UNL     1      46.362  18.503  55.068  1.00  0.00    -0.233 N 
ATOM     35  H62 UNL     1      47.294  18.090  55.096  1.00  0.00     0.174 HD
ATOM     36  H61 UNL     1      46.081  18.725  56.023  1.00  0.00     0.174 HD
ENDBRANCH  30  34
ENDBRANCH  26  27
ENDBRANCH  25  26
ENDBRANCH  23  24
ENDBRANCH   6  23
TORSDOF 10
ENDMDL
MODEL 2
REMARK VINA RESULT: -8.224610434      1.271      1.445
REMARK  10 active torsions:
REMARK  status: ('A' for Active; 'I' for Inactive)
REMARK    1  A    between atoms: C2_2  and  N1_4 
REMARK    2  A    between atoms: C2_2  and  C4_8 
REMARK    3  A    between atoms: N2_12  and  C8_13 
REMARK    4  A    between atoms: C8_13  and  C9_14 
REMARK    5  A    between atoms: C10_15  and  C11_16 
REMARK    6  A    between atoms: N3_21  and  C16_22 
REMARK    7  A    between atoms: C16_22  and  C17_23 
REMARK    8  A    between atoms: C18_24  and  C19_25 
REMARK    9  A    between atoms: C19_25  and  N4_26 
REMARK   10  A    between atoms: C21_30  and  N6_31 
ROOT
HETATM    1  C11 UNL     1      41.190  26.063  53.651  1.00  0.00     0.089 A 
HETATM    2  C12 UNL     1      41.044  27.339  53.129  1.00  0.00     0.039 A 
HETATM    3  C13 UNL     1      42.131  27.916  52.481  1.00  0.00     0.004 A 
HETATM    4  C14 UNL     1      43.311  27.196  52.385  1.00  0.00     0.017 A 
HETATM    5  C15 UNL     1      43.425  25.916  52.919  1.00  0.00     0.093 A 
HETATM    6  N3  UNL     1      42.355  25.388  53.538  1.00  0.00    -0.339 N 
ENDROOT
BRANCH   1   7
HETATM    7  C10 UNL     1      40.060  25.479  54.321  1.00  0.00    -0.047 C 
HETATM    8  C9  UNL     1      39.093  24.990  54.866  1.00  0.00    -0.080 C 
BRANCH   8   9
HETATM    9  C8  UNL     1      37.897  24.399  55.507  1.00  0.00     0.221 C 
BRANCH   9  10
HETATM   10  N2  UNL     1      38.087  24.575  56.921  1.00  0.00    -0.355 N 
HETATM   11  C7  UNL     1      39.222  25.010  57.474  1.00  0.00     0.091 A 
HETATM   12  C6  UNL     1      39.311  25.144  58.848  1.00  0.00     0.018 A 
HETATM   13  C5  UNL     1      38.256  24.842  59.695  1.00  0.00     0.012 A 
HETATM   14  C4  UNL     1      37.099  24.396  59.091  1.00  0.00    -0.008 A 
HETATM   15  C22 UNL     1      37.051  24.277  57.738  1.00  0.00     0.101 A 
BRANCH  14  16
HETATM   16  C2  UNL     1      35.950  24.063  59.967  1.00  0.00     0.144 C 
HETATM   17  C1  UNL     1      35.034  25.273  60.078  1.00  0.00     0.051 C 
HETATM   18  C3  UNL     1      36.370  23.657  61.356  1.00  0.00     0.051 C 
BRANCH  16  19
HETATM   19  N1  UNL     1      35.183  23.027  59.304  1.00  0.00    -0.067 N 
ATOM     20  H13 UNL     1      34.183  23.225  59.267  1.00  0.00     0.275 HD
ATOM     21  H12 UNL     1      35.342  22.989  58.297  1.00  0.00     0.275 HD
ATOM     22  H11 UNL     1      35.405  22.153  59.781  1.00  0.00     0.275 HD
ENDBRANCH  16  19
ENDBRANCH  14  16
ENDBRANCH   9  10
ENDBRANCH   8   9
ENDBRANCH   1   7
BRANCH   6  23
HETATM   23  C16 UNL     1      42.373  24.042  54.132  1.00  0.00     0.223 C 
BRANCH  23  24
HETATM   24  C17 UNL     1      43.191  23.179  53.244  1.00  0.00    -0.085 C 
HETATM   25  C18 UNL     1      43.847  22.460  52.535  1.00  0.00    -0.083 C 
BRANCH  25  26
HETATM   26  C19 UNL     1      44.650  21.552  51.679  1.00  0.00     0.244 C 
BRANCH  26  27
HETATM   27  N4  UNL     1      45.006  20.355  52.451  1.00  0.00    -0.262 N 
HETATM   28  C20 UNL     1      44.556  19.115  52.194  1.00  0.00     0.219 A 
HETATM   29  N5  UNL     1      45.071  18.252  53.085  1.00  0.00    -0.185 N 
HETATM   30  C21 UNL     1      45.853  18.991  53.902  1.00  0.00     0.691 A 
ATOM     31  H5  UNL     1      44.907  17.247  53.135  1.00  0.00     0.185 HD
HETATM   32  N7  UNL     1      45.798  20.255  53.503  1.00  0.00    -0.129 N 
ATOM     33  H7  UNL     1      46.293  21.032  53.943  1.00  0.00     0.206 HD
BRANCH  30  34
HETATM   34  N6  UNL     1      46.516  18.498  54.887  1.00  0.00    -0.233 N 
ATOM     35  H62 UNL     1      47.470  18.137  54.885  1.00  0.00     0.174 HD
ATOM     36  H61 UNL     1      46.141  18.409  55.832  1.00  0.00     0.174 HD
ENDBRANCH  30  34
ENDBRANCH  26  27
ENDBRANCH  25  26
ENDBRANCH  23  24
ENDBRANCH   6  23
TORSDOF 10
ENDMDL
MODEL 3
REMARK VINA RESULT: -8.147571563      1.514      2.153
REMARK  10 active torsions:
REMARK  status: ('A' for Active; 'I' for Inactive)
REMARK    1  A    between atoms: C2_2  and  N1_4 
REMARK    2  A    between atoms: C2_2  and  C4_8 
REMARK    3  A    between atoms: N2_12  and  C8_13 
REMARK    4  A    between atoms: C8_13  and  C9_14 
REMARK    5  A    between atoms: C10_15  and  C11_16 
REMARK    6  A    between atoms: N3_21  and  C16_22 
REMARK    7  A    between atoms: C16_22  and  C17_23 
REMARK    8  A    between atoms: C18_24  and  C19_25 
REMARK    9  A    between atoms: C19_25  and  N4_26 
REMARK   10  A    between atoms: C21_30  and  N6_31 
ROOT
HETATM    1  C11 UNL     1      42.220  25.780  53.094  1.00  0.00     0.089 A 
HETATM    2  C12 UNL     1      41.737  26.723  52.200  1.00  0.00     0.039 A 
HETATM    3  C13 UNL     1      42.290  26.769  50.924  1.00  0.00     0.004 A 
HETATM    4  C14 UNL     1      43.297  25.874  50.601  1.00  0.00     0.017 A 
HETATM    5  C15 UNL     1      43.759  24.938  51.520  1.00  0.00     0.093 A 
HETATM    6  N3  UNL     1      43.203  24.921  52.744  1.00  0.00    -0.339 N 
ENDROOT
BRANCH   1   7
HETATM    7  C10 UNL     1      41.642  25.746  54.409  1.00  0.00    -0.047 C 
HETATM    8  C9  UNL     1      41.157  25.741  55.521  1.00  0.00    -0.080 C 
BRANCH   8   9
HETATM    9  C8  UNL     1      40.571  25.763  56.880  1.00  0.00     0.221 C 
BRANCH   9  10
HETATM   10  N2  UNL     1      39.264  25.178  56.750  1.00  0.00    -0.355 N 
HETATM   11  C7  UNL     1      38.778  24.685  55.609  1.00  0.00     0.091 A 
HETATM   12  C6  UNL     1      37.504  24.144  55.580  1.00  0.00     0.018 A 
HETATM   13  C5  UNL     1      36.695  24.087  56.704  1.00  0.00     0.012 A 
HETATM   14  C4  UNL     1      37.229  24.604  57.866  1.00  0.00    -0.008 A 
HETATM   15  C22 UNL     1      38.483  25.128  57.853  1.00  0.00     0.101 A 
BRANCH  14  16
HETATM   16  C2  UNL     1      36.390  24.560  59.088  1.00  0.00     0.144 C 
HETATM   17  C1  UNL     1      37.285  24.389  60.307  1.00  0.00     0.051 C 
HETATM   18  C3  UNL     1      35.390  23.434  59.072  1.00  0.00     0.051 C 
BRANCH  16  19
HETATM   19  N1  UNL     1      35.753  25.855  59.225  1.00  0.00    -0.067 N 
ATOM     20  H13 UNL     1      35.462  26.064  60.181  1.00  0.00     0.275 HD
ATOM     21  H12 UNL     1      36.399  26.636  59.115  1.00  0.00     0.275 HD
ATOM     22  H11 UNL     1      34.983  25.871  58.556  1.00  0.00     0.275 HD
ENDBRANCH  16  19
ENDBRANCH  14  16
ENDBRANCH   9  10
ENDBRANCH   8   9
ENDBRANCH   1   7
BRANCH   6  23
HETATM   23  C16 UNL     1      43.618  23.969  53.786  1.00  0.00     0.223 C 
BRANCH  23  24
HETATM   24  C17 UNL     1      43.884  22.672  53.117  1.00  0.00    -0.085 C 
HETATM   25  C18 UNL     1      44.114  21.612  52.591  1.00  0.00    -0.083 C 
BRANCH  25  26
HETATM   26  C19 UNL     1      44.417  20.303  51.963  1.00  0.00     0.244 C 
BRANCH  26  27
HETATM   27  N4  UNL     1      44.856  19.363  53.002  1.00  0.00    -0.262 N 
HETATM   28  C20 UNL     1      44.926  18.030  52.850  1.00  0.00     0.219 A 
HETATM   29  N5  UNL     1      45.365  17.466  53.988  1.00  0.00    -0.185 N 
HETATM   30  C21 UNL     1      45.564  18.486  54.850  1.00  0.00     0.691 A 
ATOM     31  H5  UNL     1      45.516  16.473  54.165  1.00  0.00     0.185 HD
HETATM   32  N7  UNL     1      45.251  19.620  54.237  1.00  0.00    -0.129 N 
ATOM     33  H7  UNL     1      45.306  20.549  54.654  1.00  0.00     0.206 HD
BRANCH  30  34
HETATM   34  N6  UNL     1      45.987  18.327  56.054  1.00  0.00    -0.233 N 
ATOM     35  H62 UNL     1      45.447  18.350  56.919  1.00  0.00     0.174 HD
ATOM     36  H61 UNL     1      46.964  18.151  56.289  1.00  0.00     0.174 HD
ENDBRANCH  30  34
ENDBRANCH  26  27
ENDBRANCH  25  26
ENDBRANCH  23  24
ENDBRANCH   6  23
TORSDOF 10
ENDMDL
MODEL 4
REMARK VINA RESULT: -8.122562108      1.350      1.879
REMARK  10 active torsions:
REMARK  status: ('A' for Active; 'I' for Inactive)
REMARK    1  A    between atoms: C2_2  and  N1_4 
REMARK    2  A    between atoms: C2_2  and  C4_8 
REMARK    3  A    between atoms: N2_12  and  C8_13 
REMARK    4  A    between atoms: C8_13  and  C9_14 
REMARK    5  A    between atoms: C10_15  and  C11_16 
REMARK    6  A    between atoms: N3_21  and  C16_22 
REMARK    7  A    between atoms: C16_22  and  C17_23 
REMARK    8  A    between atoms: C18_24  and  C19_25 
REMARK    9  A    between atoms: C19_25  and  N4_26 
REMARK   10  A    between atoms: C21_30  and  N6_31 
ROOT
HETATM    1  C11 UNL     1      41.920  26.028  53.694  1.00  0.00     0.089 A 
HETATM    2  C12 UNL     1      41.395  27.074  52.952  1.00  0.00     0.039 A 
HETATM    3  C13 UNL     1      41.914  27.311  51.683  1.00  0.00     0.004 A 
HETATM    4  C14 UNL     1      42.932  26.495  51.215  1.00  0.00     0.017 A 
HETATM    5  C15 UNL     1      43.437  25.452  51.984  1.00  0.00     0.093 A 
HETATM    6  N3  UNL     1      42.912  25.251  53.206  1.00  0.00    -0.339 N 
ENDROOT
BRANCH   1   7
HETATM    7  C10 UNL     1      41.377  25.796  55.003  1.00  0.00    -0.047 C 
HETATM    8  C9  UNL     1      40.912  25.624  56.111  1.00  0.00    -0.080 C 
BRANCH   8   9
HETATM    9  C8  UNL     1      40.339  25.443  57.464  1.00  0.00     0.221 C 
BRANCH   9  10
HETATM   10  N2  UNL     1      39.007  24.943  57.259  1.00  0.00    -0.355 N 
HETATM   11  C7  UNL     1      38.500  24.639  56.062  1.00  0.00     0.091 A 
HETATM   12  C6  UNL     1      37.202  24.167  55.963  1.00  0.00     0.018 A 
HETATM   13  C5  UNL     1      36.389  23.991  57.072  1.00  0.00     0.012 A 
HETATM   14  C4  UNL     1      36.944  24.315  58.292  1.00  0.00    -0.008 A 
HETATM   15  C22 UNL     1      38.222  24.775  58.347  1.00  0.00     0.101 A 
BRANCH  14  16
HETATM   16  C2  UNL     1      36.102  24.139  59.500  1.00  0.00     0.144 C 
HETATM   17  C1  UNL     1      35.263  25.390  59.715  1.00  0.00     0.051 C 
HETATM   18  C3  UNL     1      36.909  23.890  60.746  1.00  0.00     0.051 C 
BRANCH  16  19
HETATM   19  N1  UNL     1      35.171  23.062  59.228  1.00  0.00    -0.067 N 
ATOM     20  H13 UNL     1      34.585  23.231  58.410  1.00  0.00     0.275 HD
ATOM     21  H12 UNL     1      35.623  22.214  58.887  1.00  0.00     0.275 HD
ATOM     22  H11 UNL     1      34.636  22.918  60.084  1.00  0.00     0.275 HD
ENDBRANCH  16  19
ENDBRANCH  14  16
ENDBRANCH   9  10
ENDBRANCH   8   9
ENDBRANCH   1   7
BRANCH   6  23
HETATM   23  C16 UNL     1      43.374  24.173  54.095  1.00  0.00     0.223 C 
BRANCH  23  24
HETATM   24  C17 UNL     1      43.659  22.992  53.243  1.00  0.00    -0.085 C 
HETATM   25  C18 UNL     1      43.898  22.021  52.571  1.00  0.00    -0.083 C 
BRANCH  25  26
HETATM   26  C19 UNL     1      44.205  20.814  51.766  1.00  0.00     0.244 C 
BRANCH  26  27
HETATM   27  N4  UNL     1      44.785  19.788  52.642  1.00  0.00    -0.262 N 
HETATM   28  C20 UNL     1      44.580  18.466  52.514  1.00  0.00     0.219 A 
HETATM   29  N5  UNL     1      45.253  17.808  53.473  1.00  0.00    -0.185 N 
HETATM   30  C21 UNL     1      45.880  18.759  54.199  1.00  0.00     0.691 A 
ATOM     31  H5  UNL     1      45.284  16.800  53.622  1.00  0.00     0.185 HD
HETATM   32  N7  UNL     1      45.584  19.944  53.682  1.00  0.00    -0.129 N 
ATOM     33  H7  UNL     1      45.922  20.840  54.034  1.00  0.00     0.206 HD
BRANCH  30  34
HETATM   34  N6  UNL     1      46.627  18.500  55.213  1.00  0.00    -0.233 N 
ATOM     35  H62 UNL     1      46.428  18.665  56.199  1.00  0.00     0.174 HD
ATOM     36  H61 UNL     1      47.553  18.078  55.138  1.00  0.00     0.174 HD
ENDBRANCH  30  34
ENDBRANCH  26  27
ENDBRANCH  25  26
ENDBRANCH  23  24
ENDBRANCH   6  23
TORSDOF 10
ENDMDL
MODEL 5
REMARK VINA RESULT: -8.040626445      1.433      2.363
REMARK  10 active torsions:
REMARK  status: ('A' for Active; 'I' for Inactive)
REMARK    1  A    between atoms: C2_2  and  N1_4 
REMARK    2  A    between atoms: C2_2  and  C4_8 
REMARK    3  A    between atoms: N2_12  and  C8_13 
REMARK    4  A    between atoms: C8_13  and  C9_14 
REMARK    5  A    between atoms: C10_15  and  C11_16 
REMARK    6  A    between atoms: N3_21  and  C16_22 
REMARK    7  A    between atoms: C16_22  and  C17_23 
REMARK    8  A    between atoms: C18_24  and  C19_25 
REMARK    9  A    between atoms: C19_25  and  N4_26 
REMARK   10  A    between atoms: C21_30  and  N6_31 
ROOT
HETATM    1  C11 UNL     1      44.691  25.502  55.312  1.00  0.00     0.089 A 
HETATM    2  C12 UNL     1      45.855  25.950  55.916  1.00  0.00     0.039 A 
HETATM    3  C13 UNL     1      47.052  25.316  55.598  1.00  0.00     0.004 A 
HETATM    4  C14 UNL     1      47.031  24.265  54.696  1.00  0.00     0.017 A 
HETATM    5  C15 UNL     1      45.846  23.838  54.106  1.00  0.00     0.093 A 
HETATM    6  N3  UNL     1      44.707  24.474  54.434  1.00  0.00    -0.339 N 
ENDROOT
BRANCH   1   7
HETATM    7  C10 UNL     1      43.462  26.164  55.651  1.00  0.00    -0.047 C 
HETATM    8  C9  UNL     1      42.420  26.707  55.955  1.00  0.00    -0.080 C 
BRANCH   8   9
HETATM    9  C8  UNL     1      41.145  27.349  56.347  1.00  0.00     0.221 C 
BRANCH   9  10
HETATM   10  N2  UNL     1      40.123  26.369  56.098  1.00  0.00    -0.355 N 
HETATM   11  C7  UNL     1      40.011  25.681  54.960  1.00  0.00     0.091 A 
HETATM   12  C6  UNL     1      38.989  24.759  54.810  1.00  0.00     0.018 A 
HETATM   13  C5  UNL     1      38.059  24.513  55.808  1.00  0.00     0.012 A 
HETATM   14  C4  UNL     1      38.205  25.241  56.970  1.00  0.00    -0.008 A 
HETATM   15  C22 UNL     1      39.221  26.136  57.078  1.00  0.00     0.101 A 
BRANCH  14  16
HETATM   16  C2  UNL     1      37.226  25.002  58.059  1.00  0.00     0.144 C 
HETATM   17  C1  UNL     1      37.972  24.752  59.361  1.00  0.00     0.051 C 
HETATM   18  C3  UNL     1      36.329  23.822  57.792  1.00  0.00     0.051 C 
BRANCH  16  19
HETATM   19  N1  UNL     1      36.475  26.228  58.245  1.00  0.00    -0.067 N 
ATOM     20  H13 UNL     1      37.044  27.069  58.149  1.00  0.00     0.275 HD
ATOM     21  H12 UNL     1      35.828  26.425  57.481  1.00  0.00     0.275 HD
ATOM     22  H11 UNL     1      36.017  26.152  59.153  1.00  0.00     0.275 HD
ENDBRANCH  16  19
ENDBRANCH  14  16
ENDBRANCH   9  10
ENDBRANCH   8   9
ENDBRANCH   1   7
BRANCH   6  23
HETATM   23  C16 UNL     1      43.404  24.102  53.863  1.00  0.00     0.223 C 
BRANCH  23  24
HETATM   24  C17 UNL     1      43.603  22.853  53.086  1.00  0.00    -0.085 C 
HETATM   25  C18 UNL     1      43.771  21.829  52.475  1.00  0.00    -0.083 C 
BRANCH  25  26
HETATM   26  C19 UNL     1      43.988  20.555  51.746  1.00  0.00     0.244 C 
BRANCH  26  27
HETATM   27  N4  UNL     1      44.649  19.597  52.641  1.00  0.00    -0.262 N 
HETATM   28  C20 UNL     1      44.528  18.261  52.558  1.00  0.00     0.219 A 
HETATM   29  N5  UNL     1      45.260  17.680  53.523  1.00  0.00    -0.185 N 
HETATM   30  C21 UNL     1      45.837  18.691  54.207  1.00  0.00     0.691 A 
ATOM     31  H5  UNL     1      45.359  16.680  53.703  1.00  0.00     0.185 HD
HETATM   32  N7  UNL     1      45.455  19.838  53.660  1.00  0.00    -0.129 N 
ATOM     33  H7  UNL     1      45.740  20.764  53.978  1.00  0.00     0.206 HD
BRANCH  30  34
HETATM   34  N6  UNL     1      46.617  18.514  55.214  1.00  0.00    -0.233 N 
ATOM     35  H62 UNL     1      47.490  18.998  55.425  1.00  0.00     0.174 HD
ATOM     36  H61 UNL     1      46.441  17.832  55.952  1.00  0.00     0.174 HD
ENDBRANCH  30  34
ENDBRANCH  26  27
ENDBRANCH  25  26
ENDBRANCH  23  24
ENDBRANCH   6  23
TORSDOF 10
ENDMDL
