MODEL 1
REMARK VINA RESULT: -8.615624665      0.000      0.000
REMARK  12 active torsions:
REMARK  status: ('A' for Active; 'I' for Inactive)
REMARK    1  A    between atoms: C5_5  and  C6_6 
REMARK    2  A    between atoms: C6_6  and  C7_7 
REMARK    3  A    between atoms: C7_7  and  C8_8 
REMARK    4  A    between atoms: C8_8  and  N1_9 
REMARK    5  A    between atoms: C12_13  and  C13_14 
REMARK    6  A    between atoms: C14_15  and  C15_16 
REMARK    7  A    between atoms: C15_16  and  C16_17 
REMARK    8  A    between atoms: C16_17  and  C17_18 
REMARK    9  A    between atoms: C17_18  and  O1_21 
REMARK   10  A    between atoms: C21_26  and  C22_27 
REMARK   11  A    between atoms: C22_27  and  N3_28 
REMARK   12  A    between atoms: N3_28  and  N4_30 
ROOT
HETATM    1  C7  UNL     1      43.782  23.245  53.589  1.00  0.00     0.026 C 
ENDROOT
BRANCH   1   2
HETATM    2  C6  UNL     1      44.873  22.507  52.937  1.00  0.00     0.059 C 
BRANCH   2   3
HETATM    3  C5  UNL     1      45.023  21.080  53.346  1.00  0.00     0.016 A 
HETATM    4  C3  UNL     1      44.496  20.000  52.637  1.00  0.00    -0.028 A 
HETATM    5  C2  UNL     1      44.849  18.809  53.278  1.00  0.00    -0.009 A 
HETATM    6  C4  UNL     1      43.698  20.151  51.403  1.00  0.00     0.051 C 
HETATM    7  C1  UNL     1      44.502  17.631  52.850  1.00  0.00     0.026 C 
HETATM    8  C21 UNL     1      45.589  19.179  54.371  1.00  0.00     0.059 A 
HETATM    9  N2  UNL     1      45.665  20.553  54.367  1.00  0.00    -0.357 N 
ATOM     10  H2  UNL     1      46.161  21.099  55.071  1.00  0.00     0.166 HD
BRANCH   8  11
HETATM   11  C22 UNL     1      46.152  18.437  55.298  1.00  0.00     0.136 C 
BRANCH  11  12
HETATM   12  N3  UNL     1      45.574  18.188  56.547  1.00  0.00    -0.316 N 
ATOM     13  H3  UNL     1      44.641  17.787  56.638  1.00  0.00     0.185 HD
BRANCH  12  14
HETATM   14  N4  UNL     1      46.285  18.491  57.575  1.00  0.00    -0.345 N 
ATOM     15  H42 UNL     1      46.110  19.349  58.099  1.00  0.00     0.176 HD
ATOM     16  H41 UNL     1      47.021  17.831  57.827  1.00  0.00     0.176 HD
ENDBRANCH  12  14
ENDBRANCH  11  12
ENDBRANCH   8  11
ENDBRANCH   2   3
ENDBRANCH   1   2
BRANCH   1  17
HETATM   17  C8  UNL     1      42.626  23.570  52.722  1.00  0.00     0.128 C 
BRANCH  17  18
HETATM   18  N1  UNL     1      41.821  24.687  53.122  1.00  0.00    -0.365 N 
HETATM   19  C9  UNL     1      41.949  25.925  52.701  1.00  0.00     0.090 A 
HETATM   20  C10 UNL     1      41.114  26.971  53.113  1.00  0.00     0.019 A 
HETATM   21  C11 UNL     1      40.117  26.638  54.013  1.00  0.00     0.023 A 
HETATM   22  C12 UNL     1      39.949  25.353  54.481  1.00  0.00     0.034 A 
HETATM   23  C20 UNL     1      40.818  24.405  54.013  1.00  0.00     0.111 A 
BRANCH  22  24
HETATM   24  C13 UNL     1      38.929  24.971  55.416  1.00  0.00    -0.051 C 
HETATM   25  C14 UNL     1      38.085  24.655  56.221  1.00  0.00    -0.009 C 
BRANCH  25  26
HETATM   26  C15 UNL     1      37.105  24.280  57.194  1.00  0.00    -0.012 C 
BRANCH  26  27
HETATM   27  C16 UNL     1      36.292  23.972  58.031  1.00  0.00    -0.055 C 
BRANCH  27  28
HETATM   28  C17 UNL     1      35.296  23.623  59.055  1.00  0.00     0.114 C 
HETATM   29  C18 UNL     1      36.022  23.251  60.351  1.00  0.00     0.060 C 
HETATM   30  C19 UNL     1      34.409  24.822  59.364  1.00  0.00     0.060 C 
BRANCH  28  31
HETATM   31  O1  UNL     1      34.565  22.548  58.561  1.00  0.00    -0.378 OA
ATOM     32  H1  UNL     1      34.232  22.807  57.710  1.00  0.00     0.211 HD
ENDBRANCH  28  31
ENDBRANCH  27  28
ENDBRANCH  26  27
ENDBRANCH  25  26
ENDBRANCH  22  24
ENDBRANCH  17  18
ENDBRANCH   1  17
TORSDOF 12
ENDMDL
MODEL 2
REMARK VINA RESULT: -8.244366022      1.550      2.103
REMARK  12 active torsions:
REMARK  status: ('A' for Active; 'I' for Inactive)
REMARK    1  A    between atoms: C5_5  and  C6_6 
REMARK    2  A    between atoms: C6_6  and  C7_7 
REMARK    3  A    between atoms: C7_7  and  C8_8 
REMARK    4  A    between atoms: C8_8  and  N1_9 
REMARK    5  A    between atoms: C12_13  and  C13_14 
REMARK    6  A    between atoms: C14_15  and  C15_16 
REMARK    7  A    between atoms: C15_16  and  C16_17 
REMARK    8  A    between atoms: C16_17  and  C17_18 
REMARK    9  A    between atoms: C17_18  and  O1_21 
REMARK   10  A    between atoms: C21_26  and  C22_27 
REMARK   11  A    between atoms: C22_27  and  N3_28 
REMARK   12  A    between atoms: N3_28  and  N4_30 
ROOT
HETATM    1  C7  UNL     1      42.736  23.034  51.915  1.00  0.00     0.026 C 
ENDROOT
BRANCH   1   2
HETATM    2  C6  UNL     1      44.015  22.490  51.439  1.00  0.00     0.059 C 
BRANCH   2   3
HETATM    3  C5  UNL     1      44.413  21.173  52.016  1.00  0.00     0.016 A 
HETATM    4  C3  UNL     1      45.308  21.017  53.075  1.00  0.00    -0.028 A 
HETATM    5  C2  UNL     1      45.429  19.659  53.382  1.00  0.00    -0.009 A 
HETATM    6  C4  UNL     1      45.991  22.150  53.733  1.00  0.00     0.051 C 
HETATM    7  C1  UNL     1      46.195  19.201  54.329  1.00  0.00     0.026 C 
HETATM    8  C21 UNL     1      44.604  19.003  52.506  1.00  0.00     0.059 A 
HETATM    9  N2  UNL     1      44.016  19.957  51.707  1.00  0.00    -0.357 N 
ATOM     10  H2  UNL     1      43.351  19.746  50.963  1.00  0.00     0.166 HD
BRANCH   8  11
HETATM   11  C22 UNL     1      44.361  17.718  52.378  1.00  0.00     0.136 C 
BRANCH  11  12
HETATM   12  N3  UNL     1      43.571  16.986  53.270  1.00  0.00    -0.316 N 
ATOM     13  H3  UNL     1      43.879  16.783  54.220  1.00  0.00     0.185 HD
BRANCH  12  14
HETATM   14  N4  UNL     1      42.433  16.584  52.824  1.00  0.00    -0.345 N 
ATOM     15  H42 UNL     1      42.266  16.489  51.822  1.00  0.00     0.176 HD
ATOM     16  H41 UNL     1      41.723  16.370  53.525  1.00  0.00     0.176 HD
ENDBRANCH  12  14
ENDBRANCH  11  12
ENDBRANCH   8  11
ENDBRANCH   2   3
ENDBRANCH   1   2
BRANCH   1  17
HETATM   17  C8  UNL     1      42.775  23.682  53.246  1.00  0.00     0.128 C 
BRANCH  17  18
HETATM   18  N1  UNL     1      41.837  24.742  53.470  1.00  0.00    -0.365 N 
HETATM   19  C9  UNL     1      41.860  25.930  52.908  1.00  0.00     0.090 A 
HETATM   20  C10 UNL     1      40.898  26.918  53.152  1.00  0.00     0.019 A 
HETATM   21  C11 UNL     1      39.890  26.584  54.038  1.00  0.00     0.023 A 
HETATM   22  C12 UNL     1      39.829  25.350  54.650  1.00  0.00     0.034 A 
HETATM   23  C20 UNL     1      40.818  24.457  54.341  1.00  0.00     0.111 A 
BRANCH  22  24
HETATM   24  C13 UNL     1      38.801  24.970  55.577  1.00  0.00    -0.051 C 
HETATM   25  C14 UNL     1      37.948  24.659  56.374  1.00  0.00    -0.009 C 
BRANCH  25  26
HETATM   26  C15 UNL     1      36.954  24.297  57.338  1.00  0.00    -0.012 C 
BRANCH  26  27
HETATM   27  C16 UNL     1      36.133  23.989  58.167  1.00  0.00    -0.055 C 
BRANCH  27  28
HETATM   28  C17 UNL     1      35.144  23.590  59.179  1.00  0.00     0.114 C 
HETATM   29  C18 UNL     1      35.872  23.255  60.484  1.00  0.00     0.060 C 
HETATM   30  C19 UNL     1      34.193  24.742  59.476  1.00  0.00     0.060 C 
BRANCH  28  31
HETATM   31  O1  UNL     1      34.475  22.480  58.677  1.00  0.00    -0.378 OA
ATOM     32  H1  UNL     1      33.545  22.652  58.764  1.00  0.00     0.211 HD
ENDBRANCH  28  31
ENDBRANCH  27  28
ENDBRANCH  26  27
ENDBRANCH  25  26
ENDBRANCH  22  24
ENDBRANCH  17  18
ENDBRANCH   1  17
TORSDOF 12
ENDMDL
MODEL 3
REMARK VINA RESULT: -8.060312417      0.960      1.103
REMARK  12 active torsions:
REMARK  status: ('A' for Active; 'I' for Inactive)
REMARK    1  A    between atoms: C5_5  and  C6_6 
REMARK    2  A    between atoms: C6_6  and  C7_7 
REMARK    3  A    between atoms: C7_7  and  C8_8 
REMARK    4  A    between atoms: C8_8  and  N1_9 
REMARK    5  A    between atoms: C12_13  and  C13_14 
REMARK    6  A    between atoms: C14_15  and  C15_16 
REMARK    7  A    between atoms: C15_16  and  C16_17 
REMARK    8  A    between atoms: C16_17  and  C17_18 
REMARK    9  A    between atoms: C17_18  and  O1_21 
REMARK   10  A    between atoms: C21_26  and  C22_27 
REMARK   11  A    between atoms: C22_27  and  N3_28 
REMARK   12  A    between atoms: N3_28  and  N4_30 
ROOT
HETATM    1  C7  UNL     1      44.609  23.031  53.149  1.00  0.00     0.026 C 
ENDROOT
BRANCH   1   2
HETATM    2  C6  UNL     1      45.483  21.986  52.600  1.00  0.00     0.059 C 
BRANCH   2   3
HETATM    3  C5  UNL     1      45.266  20.612  53.140  1.00  0.00     0.016 A 
HETATM    4  C3  UNL     1      44.649  19.578  52.434  1.00  0.00    -0.028 A 
HETATM    5  C2  UNL     1      44.639  18.423  53.220  1.00  0.00    -0.009 A 
HETATM    6  C4  UNL     1      44.112  19.738  51.067  1.00  0.00     0.051 C 
HETATM    7  C1  UNL     1      44.130  17.291  52.830  1.00  0.00     0.026 C 
HETATM    8  C21 UNL     1      45.251  18.767  54.397  1.00  0.00     0.059 A 
HETATM    9  N2  UNL     1      45.610  20.092  54.299  1.00  0.00    -0.357 N 
ATOM     10  H2  UNL     1      46.086  20.610  55.037  1.00  0.00     0.166 HD
BRANCH   8  11
HETATM   11  C22 UNL     1      45.490  18.042  55.467  1.00  0.00     0.136 C 
BRANCH  11  12
HETATM   12  N3  UNL     1      46.031  18.558  56.649  1.00  0.00    -0.316 N 
ATOM     13  H3  UNL     1      46.708  19.320  56.642  1.00  0.00     0.185 HD
BRANCH  12  14
HETATM   14  N4  UNL     1      45.625  18.019  57.744  1.00  0.00    -0.345 N 
ATOM     15  H42 UNL     1      46.238  17.960  58.558  1.00  0.00     0.176 HD
ATOM     16  H41 UNL     1      44.670  17.662  57.746  1.00  0.00     0.176 HD
ENDBRANCH  12  14
ENDBRANCH  11  12
ENDBRANCH   8  11
ENDBRANCH   2   3
ENDBRANCH   1   2
BRANCH   1  17
HETATM   17  C8  UNL     1      43.216  23.026  52.645  1.00  0.00     0.128 C 
BRANCH  17  18
HETATM   18  N1  UNL     1      42.448  24.215  52.874  1.00  0.00    -0.365 N 
HETATM   19  C9  UNL     1      42.609  25.370  52.267  1.00  0.00     0.090 A 
HETATM   20  C10 UNL     1      41.809  26.491  52.519  1.00  0.00     0.019 A 
HETATM   21  C11 UNL     1      40.811  26.330  53.465  1.00  0.00     0.023 A 
HETATM   22  C12 UNL     1      40.610  25.137  54.124  1.00  0.00     0.034 A 
HETATM   23  C20 UNL     1      41.447  24.103  53.802  1.00  0.00     0.111 A 
BRANCH  22  24
HETATM   24  C13 UNL     1      39.589  24.934  55.113  1.00  0.00    -0.051 C 
HETATM   25  C14 UNL     1      38.739  24.780  55.958  1.00  0.00    -0.009 C 
BRANCH  25  26
HETATM   26  C15 UNL     1      37.748  24.611  56.976  1.00  0.00    -0.012 C 
BRANCH  26  27
HETATM   27  C16 UNL     1      36.923  24.485  57.848  1.00  0.00    -0.055 C 
BRANCH  27  28
HETATM   28  C17 UNL     1      35.921  24.357  58.916  1.00  0.00     0.114 C 
HETATM   29  C18 UNL     1      35.085  23.098  58.668  1.00  0.00     0.060 C 
HETATM   30  C19 UNL     1      36.603  24.186  60.267  1.00  0.00     0.060 C 
BRANCH  28  31
HETATM   31  O1  UNL     1      35.132  25.501  58.872  1.00  0.00    -0.378 OA
ATOM     32  H1  UNL     1      34.742  25.537  58.007  1.00  0.00     0.211 HD
ENDBRANCH  28  31
ENDBRANCH  27  28
ENDBRANCH  26  27
ENDBRANCH  25  26
ENDBRANCH  22  24
ENDBRANCH  17  18
ENDBRANCH   1  17
TORSDOF 12
ENDMDL
MODEL 4
REMARK VINA RESULT: -7.896077745      0.989      1.161
REMARK  12 active torsions:
REMARK  status: ('A' for Active; 'I' for Inactive)
REMARK    1  A    between atoms: C5_5  and  C6_6 
REMARK    2  A    between atoms: C6_6  and  C7_7 
REMARK    3  A    between atoms: C7_7  and  C8_8 
REMARK    4  A    between atoms: C8_8  and  N1_9 
REMARK    5  A    between atoms: C12_13  and  C13_14 
REMARK    6  A    between atoms: C14_15  and  C15_16 
REMARK    7  A    between atoms: C15_16  and  C16_17 
REMARK    8  A    between atoms: C16_17  and  C17_18 
REMARK    9  A    between atoms: C17_18  and  O1_21 
REMARK   10  A    between atoms: C21_26  and  C22_27 
REMARK   11  A    between atoms: C22_27  and  N3_28 
REMARK   12  A    between atoms: N3_28  and  N4_30 
ROOT
HETATM    1  C7  UNL     1      43.507  23.941  53.983  1.00  0.00     0.026 C 
ENDROOT
BRANCH   1   2
HETATM    2  C6  UNL     1      44.812  23.509  53.464  1.00  0.00     0.059 C 
BRANCH   2   3
HETATM    3  C5  UNL     1      45.022  22.033  53.389  1.00  0.00     0.016 A 
HETATM    4  C3  UNL     1      44.668  21.244  52.295  1.00  0.00    -0.028 A 
HETATM    5  C2  UNL     1      45.032  19.918  52.544  1.00  0.00    -0.009 A 
HETATM    6  C4  UNL     1      44.013  21.781  51.085  1.00  0.00     0.051 C 
HETATM    7  C1  UNL     1      44.830  18.946  51.704  1.00  0.00     0.026 C 
HETATM    8  C21 UNL     1      45.606  19.916  53.789  1.00  0.00     0.059 A 
HETATM    9  N2  UNL     1      45.576  21.211  54.254  1.00  0.00    -0.357 N 
ATOM     10  H2  UNL     1      45.941  21.499  55.162  1.00  0.00     0.166 HD
BRANCH   8  11
HETATM   11  C22 UNL     1      46.109  18.921  54.484  1.00  0.00     0.136 C 
BRANCH  11  12
HETATM   12  N3  UNL     1      45.346  17.862  54.985  1.00  0.00    -0.316 N 
ATOM     13  H3  UNL     1      44.878  17.917  55.890  1.00  0.00     0.185 HD
BRANCH  12  14
HETATM   14  N4  UNL     1      45.267  16.815  54.243  1.00  0.00    -0.345 N 
ATOM     15  H42 UNL     1      44.411  16.598  53.731  1.00  0.00     0.176 HD
ATOM     16  H41 UNL     1      46.099  16.227  54.199  1.00  0.00     0.176 HD
ENDBRANCH  12  14
ENDBRANCH  11  12
ENDBRANCH   8  11
ENDBRANCH   2   3
ENDBRANCH   1   2
BRANCH   1  17
HETATM   17  C8  UNL     1      42.499  24.293  52.956  1.00  0.00     0.128 C 
BRANCH  17  18
HETATM   18  N1  UNL     1      41.542  25.297  53.318  1.00  0.00    -0.365 N 
HETATM   19  C9  UNL     1      41.501  26.530  52.862  1.00  0.00     0.090 A 
HETATM   20  C10 UNL     1      40.524  27.459  53.238  1.00  0.00     0.019 A 
HETATM   21  C11 UNL     1      39.572  27.015  54.140  1.00  0.00     0.023 A 
HETATM   22  C12 UNL     1      39.580  25.732  54.643  1.00  0.00     0.034 A 
HETATM   23  C20 UNL     1      40.578  24.903  54.209  1.00  0.00     0.111 A 
BRANCH  22  24
HETATM   24  C13 UNL     1      38.613  25.238  55.581  1.00  0.00    -0.051 C 
HETATM   25  C14 UNL     1      37.804  24.839  56.386  1.00  0.00    -0.009 C 
BRANCH  25  26
HETATM   26  C15 UNL     1      36.858  24.383  57.357  1.00  0.00    -0.012 C 
BRANCH  26  27
HETATM   27  C16 UNL     1      36.065  24.017  58.190  1.00  0.00    -0.055 C 
BRANCH  27  28
HETATM   28  C17 UNL     1      35.112  23.547  59.207  1.00  0.00     0.114 C 
HETATM   29  C18 UNL     1      35.879  23.195  60.485  1.00  0.00     0.060 C 
HETATM   30  C19 UNL     1      34.128  24.654  59.563  1.00  0.00     0.060 C 
BRANCH  28  31
HETATM   31  O1  UNL     1      34.472  22.431  58.680  1.00  0.00    -0.378 OA
ATOM     32  H1  UNL     1      33.600  22.408  59.055  1.00  0.00     0.211 HD
ENDBRANCH  28  31
ENDBRANCH  27  28
ENDBRANCH  26  27
ENDBRANCH  25  26
ENDBRANCH  22  24
ENDBRANCH  17  18
ENDBRANCH   1  17
TORSDOF 12
ENDMDL
MODEL 5
REMARK VINA RESULT: -7.744982947      1.563      2.288
REMARK  12 active torsions:
REMARK  status: ('A' for Active; 'I' for Inactive)
REMARK    1  A    between atoms: C5_5  and  C6_6 
REMARK    2  A    between atoms: C6_6  and  C7_7 
REMARK    3  A    between atoms: C7_7  and  C8_8 
REMARK    4  A    between atoms: C8_8  and  N1_9 
REMARK    5  A    between atoms: C12_13  and  C13_14 
REMARK    6  A    between atoms: C14_15  and  C15_16 
REMARK    7  A    between atoms: C15_16  and  C16_17 
REMARK    8  A    between atoms: C16_17  and  C17_18 
REMARK    9  A    between atoms: C17_18  and  O1_21 
REMARK   10  A    between atoms: C21_26  and  C22_27 
REMARK   11  A    between atoms: C22_27  and  N3_28 
REMARK   12  A    between atoms: N3_28  and  N4_30 
ROOT
HETATM    1  C7  UNL     1      42.513  23.947  50.786  1.00  0.00     0.026 C 
ENDROOT
BRANCH   1   2
HETATM    2  C6  UNL     1      43.930  23.568  50.699  1.00  0.00     0.059 C 
BRANCH   2   3
HETATM    3  C5  UNL     1      44.314  22.325  51.429  1.00  0.00     0.016 A 
HETATM    4  C3  UNL     1      44.875  22.306  52.707  1.00  0.00    -0.028 A 
HETATM    5  C2  UNL     1      45.080  20.981  53.102  1.00  0.00    -0.009 A 
HETATM    6  C4  UNL     1      45.180  23.529  53.477  1.00  0.00     0.051 C 
HETATM    7  C1  UNL     1      45.591  20.644  54.250  1.00  0.00     0.026 C 
HETATM    8  C21 UNL     1      44.640  20.208  52.059  1.00  0.00     0.059 A 
HETATM    9  N2  UNL     1      44.189  21.062  51.079  1.00  0.00    -0.357 N 
ATOM     10  H2  UNL     1      43.804  20.754  50.187  1.00  0.00     0.166 HD
BRANCH   8  11
HETATM   11  C22 UNL     1      44.619  18.901  51.930  1.00  0.00     0.136 C 
BRANCH  11  12
HETATM   12  N3  UNL     1      43.683  18.075  52.561  1.00  0.00    -0.316 N 
ATOM     13  H3  UNL     1      42.711  18.031  52.257  1.00  0.00     0.185 HD
BRANCH  12  14
HETATM   14  N4  UNL     1      44.118  17.373  53.548  1.00  0.00    -0.345 N 
ATOM     15  H42 UNL     1      44.702  17.792  54.273  1.00  0.00     0.176 HD
ATOM     16  H41 UNL     1      43.845  16.390  53.558  1.00  0.00     0.176 HD
ENDBRANCH  12  14
ENDBRANCH  11  12
ENDBRANCH   8  11
ENDBRANCH   2   3
ENDBRANCH   1   2
BRANCH   1  17
HETATM   17  C8  UNL     1      41.855  23.658  52.081  1.00  0.00     0.128 C 
BRANCH  17  18
HETATM   18  N1  UNL     1      41.325  24.782  52.794  1.00  0.00    -0.365 N 
HETATM   19  C9  UNL     1      41.655  26.041  52.613  1.00  0.00     0.090 A 
HETATM   20  C10 UNL     1      41.082  27.100  53.328  1.00  0.00     0.019 A 
HETATM   21  C11 UNL     1      40.125  26.756  54.267  1.00  0.00     0.023 A 
HETATM   22  C12 UNL     1      39.752  25.448  54.490  1.00  0.00     0.034 A 
HETATM   23  C20 UNL     1      40.373  24.491  53.735  1.00  0.00     0.111 A 
BRANCH  22  24
HETATM   24  C13 UNL     1      38.767  25.054  55.457  1.00  0.00    -0.051 C 
HETATM   25  C14 UNL     1      37.954  24.717  56.285  1.00  0.00    -0.009 C 
BRANCH  25  26
HETATM   26  C15 UNL     1      37.013  24.306  57.281  1.00  0.00    -0.012 C 
BRANCH  26  27
HETATM   27  C16 UNL     1      36.211  23.981  58.123  1.00  0.00    -0.055 C 
BRANCH  27  28
HETATM   28  C17 UNL     1      35.243  23.606  59.164  1.00  0.00     0.114 C 
HETATM   29  C18 UNL     1      36.001  23.253  60.447  1.00  0.00     0.060 C 
HETATM   30  C19 UNL     1      34.330  24.781  59.489  1.00  0.00     0.060 C 
BRANCH  28  31
HETATM   31  O1  UNL     1      34.533  22.512  58.682  1.00  0.00    -0.378 OA
ATOM     32  H1  UNL     1      33.610  22.716  58.777  1.00  0.00     0.211 HD
ENDBRANCH  28  31
ENDBRANCH  27  28
ENDBRANCH  26  27
ENDBRANCH  25  26
ENDBRANCH  22  24
ENDBRANCH  17  18
ENDBRANCH   1  17
TORSDOF 12
ENDMDL
