MODEL 1
REMARK VINA RESULT: -7.069887562      0.000      0.000
REMARK  12 active torsions:
REMARK  status: ('A' for Active; 'I' for Inactive)
REMARK    1  A    between atoms: C1_2  and  C2_4 
REMARK    2  A    between atoms: C4_6  and  C8_13 
REMARK    3  A    between atoms: C9_14  and  C10_15 
REMARK       I    between atoms: C10_15  and  N3_17 
REMARK    4  A    between atoms: N3_17  and  C11_19 
REMARK    5  A    between atoms: C11_19  and  C12_20 
REMARK    6  A    between atoms: C13_21  and  C14_22 
REMARK    7  A    between atoms: C14_22  and  N4_23 
REMARK    8  A    between atoms: N5_26  and  C17_27 
REMARK    9  A    between atoms: C17_27  and  C18_28 
REMARK   10  A    between atoms: C18_28  and  C19_29 
REMARK   11  A    between atoms: C19_29  and  N6_30 
REMARK   12  A    between atoms: N6_30  and  C20_32 
ROOT
HETATM    1  C10 UNL     1       6.091  20.703  14.495  1.00  0.00     0.228 C 
HETATM    2  O2  UNL     1       6.930  19.948  15.053  1.00  0.00    -0.273 OA
HETATM    3  N3  UNL     1       4.949  21.099  15.207  1.00  0.00    -0.350 N 
ATOM      4  H3  UNL     1       4.269  21.711  14.755  1.00  0.00     0.163 HD
ENDROOT
BRANCH   3   5
HETATM    5  C11 UNL     1       4.709  20.664  16.561  1.00  0.00     0.217 C 
BRANCH   5   6
HETATM    6  C12 UNL     1       3.277  20.611  16.868  1.00  0.00    -0.085 C 
HETATM    7  C13 UNL     1       2.095  20.557  17.102  1.00  0.00    -0.075 C 
BRANCH   7   8
HETATM    8  C14 UNL     1       0.636  20.487  17.363  1.00  0.00     0.365 C 
BRANCH   8   9
HETATM    9  N4  UNL     1       0.386  19.732  18.576  1.00  0.00     0.102 N 
HETATM   10  C15 UNL     1       0.647  18.337  18.435  1.00  0.00     0.303 C 
HETATM   11  C16 UNL     1       0.239  17.663  19.755  1.00  0.00     0.302 C 
HETATM   12  N5  UNL     1      -1.196  17.679  19.859  1.00  0.00     0.091 N 
HETATM   13  C21 UNL     1      -1.732  18.728  19.056  1.00  0.00     0.302 C 
HETATM   14  C22 UNL     1      -0.887  19.985  19.170  1.00  0.00     0.303 C 
BRANCH  12  15
HETATM   15  C17 UNL     1      -1.720  16.374  19.587  1.00  0.00     0.274 C 
BRANCH  15  16
HETATM   16  C18 UNL     1      -2.468  16.330  18.281  1.00  0.00     0.050 C 
BRANCH  16  17
HETATM   17  C19 UNL     1      -1.630  15.556  17.289  1.00  0.00     0.123 C 
BRANCH  17  18
HETATM   18  N6  UNL     1      -2.386  14.644  16.480  1.00  0.00    -0.368 N 
ATOM     19  H6  UNL     1      -3.405  14.689  16.472  1.00  0.00     0.161 HD
BRANCH  18  20
HETATM   20  C20 UNL     1      -1.710  13.688  15.696  1.00  0.00     0.348 C 
HETATM   21  O3  UNL     1      -0.993  12.781  16.218  1.00  0.00    -0.284 OA
ENDBRANCH  18  20
ENDBRANCH  17  18
ENDBRANCH  16  17
ENDBRANCH  15  16
ENDBRANCH  12  15
ENDBRANCH   8   9
ENDBRANCH   7   8
ENDBRANCH   5   6
ENDBRANCH   3   5
BRANCH   1  22
HETATM   22  C9  UNL     1       6.355  21.138  13.106  1.00  0.00     0.054 A 
HETATM   23  C7  UNL     1       7.450  22.065  12.905  1.00  0.00     0.040 A 
HETATM   24  C6  UNL     1       7.473  22.858  11.637  1.00  0.00     0.193 C 
HETATM   25  C8  UNL     1       7.544  20.582  12.463  1.00  0.00     0.015 A 
HETATM   26  C5  UNL     1       8.336  21.959  10.739  1.00  0.00     0.038 C 
HETATM   27  N2  UNL     1       6.208  23.005  10.997  1.00  0.00    -0.053 N 
HETATM   28  C4  UNL     1       7.636  20.617  10.989  1.00  0.00    -0.004 C 
HETATM   29  C3  UNL     1       6.339  20.664  10.256  1.00  0.00     0.053 C 
HETATM   30  C2  UNL     1       5.503  21.767  10.871  1.00  0.00     0.205 C 
HETATM   31  C23 UNL     1       5.141  21.301  12.265  1.00  0.00     0.068 C 
ATOM     32  H22 UNL     1       6.308  23.462  10.091  1.00  0.00     0.279 HD
ATOM     33  H21 UNL     1       5.638  23.704  11.473  1.00  0.00     0.279 HD
BRANCH  30  34
HETATM   34  C1  UNL     1       4.248  21.951  10.122  1.00  0.00     0.267 C 
HETATM   35  N1  UNL     1       3.064  21.215  10.391  1.00  0.00    -0.060 NA
HETATM   36  O1  UNL     1       4.182  22.800   9.183  1.00  0.00    -0.274 OA
ENDBRANCH  30  34
ENDBRANCH   1  22
TORSDOF 12
ENDMDL
MODEL 2
REMARK VINA RESULT: -6.938617693      2.250     10.602
REMARK  12 active torsions:
REMARK  status: ('A' for Active; 'I' for Inactive)
REMARK    1  A    between atoms: C1_2  and  C2_4 
REMARK    2  A    between atoms: C4_6  and  C8_13 
REMARK    3  A    between atoms: C9_14  and  C10_15 
REMARK       I    between atoms: C10_15  and  N3_17 
REMARK    4  A    between atoms: N3_17  and  C11_19 
REMARK    5  A    between atoms: C11_19  and  C12_20 
REMARK    6  A    between atoms: C13_21  and  C14_22 
REMARK    7  A    between atoms: C14_22  and  N4_23 
REMARK    8  A    between atoms: N5_26  and  C17_27 
REMARK    9  A    between atoms: C17_27  and  C18_28 
REMARK   10  A    between atoms: C18_28  and  C19_29 
REMARK   11  A    between atoms: C19_29  and  N6_30 
REMARK   12  A    between atoms: N6_30  and  C20_32 
ROOT
HETATM    1  C10 UNL     1       0.854  20.036  18.024  1.00  0.00     0.228 C 
HETATM    2  O2  UNL     1       0.040  20.874  17.557  1.00  0.00    -0.273 OA
HETATM    3  N3  UNL     1       2.179  20.040  17.562  1.00  0.00    -0.350 N 
ATOM      4  H3  UNL     1       2.839  19.361  17.941  1.00  0.00     0.163 HD
ENDROOT
BRANCH   3   5
HETATM    5  C11 UNL     1       2.633  20.979  16.567  1.00  0.00     0.217 C 
BRANCH   5   6
HETATM    6  C12 UNL     1       4.018  20.718  16.167  1.00  0.00    -0.085 C 
HETATM    7  C13 UNL     1       5.155  20.481  15.840  1.00  0.00    -0.075 C 
BRANCH   7   8
HETATM    8  C14 UNL     1       6.552  20.166  15.451  1.00  0.00     0.365 C 
BRANCH   8   9
HETATM    9  N4  UNL     1       7.054  21.183  14.547  1.00  0.00     0.102 N 
HETATM   10  C15 UNL     1       6.022  21.873  13.844  1.00  0.00     0.303 C 
HETATM   11  C16 UNL     1       6.708  22.832  12.859  1.00  0.00     0.302 C 
HETATM   12  N5  UNL     1       7.309  22.061  11.802  1.00  0.00     0.091 N 
HETATM   13  C21 UNL     1       7.558  20.731  12.251  1.00  0.00     0.302 C 
HETATM   14  C22 UNL     1       8.089  20.729  13.674  1.00  0.00     0.303 C 
BRANCH  12  15
HETATM   15  C17 UNL     1       6.519  22.165  10.612  1.00  0.00     0.274 C 
BRANCH  15  16
HETATM   16  C18 UNL     1       5.953  20.834  10.194  1.00  0.00     0.050 C 
BRANCH  16  17
HETATM   17  C19 UNL     1       4.567  21.070   9.638  1.00  0.00     0.123 C 
BRANCH  17  18
HETATM   18  N6  UNL     1       4.522  21.129   8.206  1.00  0.00    -0.368 N 
ATOM     19  H6  UNL     1       5.385  21.089   7.662  1.00  0.00     0.161 HD
BRANCH  18  20
HETATM   20  C20 UNL     1       3.277  21.244   7.555  1.00  0.00     0.348 C 
HETATM   21  O3  UNL     1       2.197  20.865   8.103  1.00  0.00    -0.284 OA
ENDBRANCH  18  20
ENDBRANCH  17  18
ENDBRANCH  16  17
ENDBRANCH  15  16
ENDBRANCH  12  15
ENDBRANCH   8   9
ENDBRANCH   7   8
ENDBRANCH   5   6
ENDBRANCH   3   5
BRANCH   1  22
HETATM   22  C9  UNL     1       0.369  19.081  19.046  1.00  0.00     0.054 A 
HETATM   23  C7  UNL     1       0.804  19.301  20.409  1.00  0.00     0.040 A 
HETATM   24  C6  UNL     1       0.719  18.154  21.365  1.00  0.00     0.193 C 
HETATM   25  C8  UNL     1      -0.655  19.574  19.964  1.00  0.00     0.015 A 
HETATM   26  C5  UNL     1      -0.668  18.385  21.985  1.00  0.00     0.038 C 
HETATM   27  N2  UNL     1       0.699  16.864  20.757  1.00  0.00    -0.053 N 
HETATM   28  C4  UNL     1      -1.480  18.593  20.700  1.00  0.00    -0.004 C 
HETATM   29  C3  UNL     1      -1.627  17.256  20.060  1.00  0.00     0.053 C 
HETATM   30  C2  UNL     1      -0.242  16.772  19.683  1.00  0.00     0.205 C 
HETATM   31  C23 UNL     1       0.239  17.679  18.572  1.00  0.00     0.068 C 
ATOM     32  H22 UNL     1       0.535  16.136  21.451  1.00  0.00     0.279 HD
ATOM     33  H21 UNL     1       1.633  16.592  20.449  1.00  0.00     0.279 HD
BRANCH  30  34
HETATM   34  C1  UNL     1      -0.295  15.400  19.149  1.00  0.00     0.267 C 
HETATM   35  N1  UNL     1      -0.783  15.086  17.853  1.00  0.00    -0.060 NA
HETATM   36  O1  UNL     1       0.108  14.424  19.850  1.00  0.00    -0.274 OA
ENDBRANCH  30  34
ENDBRANCH   1  22
TORSDOF 12
ENDMDL
MODEL 3
REMARK VINA RESULT: -6.779566204      2.199     10.985
REMARK  12 active torsions:
REMARK  status: ('A' for Active; 'I' for Inactive)
REMARK    1  A    between atoms: C1_2  and  C2_4 
REMARK    2  A    between atoms: C4_6  and  C8_13 
REMARK    3  A    between atoms: C9_14  and  C10_15 
REMARK       I    between atoms: C10_15  and  N3_17 
REMARK    4  A    between atoms: N3_17  and  C11_19 
REMARK    5  A    between atoms: C11_19  and  C12_20 
REMARK    6  A    between atoms: C13_21  and  C14_22 
REMARK    7  A    between atoms: C14_22  and  N4_23 
REMARK    8  A    between atoms: N5_26  and  C17_27 
REMARK    9  A    between atoms: C17_27  and  C18_28 
REMARK   10  A    between atoms: C18_28  and  C19_29 
REMARK   11  A    between atoms: C19_29  and  N6_30 
REMARK   12  A    between atoms: N6_30  and  C20_32 
ROOT
HETATM    1  C10 UNL     1       0.627  19.933  18.005  1.00  0.00     0.228 C 
HETATM    2  O2  UNL     1      -0.012  21.010  17.876  1.00  0.00    -0.273 OA
HETATM    3  N3  UNL     1       1.719  19.681  17.162  1.00  0.00    -0.350 N 
ATOM      4  H3  UNL     1       2.237  18.809  17.267  1.00  0.00     0.163 HD
ENDROOT
BRANCH   3   5
HETATM    5  C11 UNL     1       2.130  20.623  16.149  1.00  0.00     0.217 C 
BRANCH   5   6
HETATM    6  C12 UNL     1       3.583  20.616  15.960  1.00  0.00    -0.085 C 
HETATM    7  C13 UNL     1       4.780  20.631  15.812  1.00  0.00    -0.075 C 
BRANCH   7   8
HETATM    8  C14 UNL     1       6.252  20.677  15.629  1.00  0.00     0.365 C 
BRANCH   8   9
HETATM    9  N4  UNL     1       6.581  20.497  14.228  1.00  0.00     0.102 N 
HETATM   10  C15 UNL     1       7.937  20.817  13.922  1.00  0.00     0.303 C 
HETATM   11  C16 UNL     1       8.102  20.681  12.400  1.00  0.00     0.302 C 
HETATM   12  N5  UNL     1       7.400  21.762  11.759  1.00  0.00     0.091 N 
HETATM   13  C21 UNL     1       6.378  22.258  12.620  1.00  0.00     0.302 C 
HETATM   14  C22 UNL     1       5.664  21.120  13.328  1.00  0.00     0.303 C 
BRANCH  12  15
HETATM   15  C17 UNL     1       8.334  22.742  11.292  1.00  0.00     0.274 C 
BRANCH  15  16
HETATM   16  C18 UNL     1       8.727  22.506   9.858  1.00  0.00     0.050 C 
BRANCH  16  17
HETATM   17  C19 UNL     1       7.563  22.912   8.982  1.00  0.00     0.123 C 
BRANCH  17  18
HETATM   18  N6  UNL     1       6.881  21.805   8.377  1.00  0.00    -0.368 N 
ATOM     19  H6  UNL     1       7.373  21.193   7.726  1.00  0.00     0.161 HD
BRANCH  18  20
HETATM   20  C20 UNL     1       5.527  21.569   8.690  1.00  0.00     0.348 C 
HETATM   21  O3  UNL     1       5.175  20.647   9.487  1.00  0.00    -0.284 OA
ENDBRANCH  18  20
ENDBRANCH  17  18
ENDBRANCH  16  17
ENDBRANCH  15  16
ENDBRANCH  12  15
ENDBRANCH   8   9
ENDBRANCH   7   8
ENDBRANCH   5   6
ENDBRANCH   3   5
BRANCH   1  22
HETATM   22  C9  UNL     1       0.190  18.980  19.050  1.00  0.00     0.054 A 
HETATM   23  C7  UNL     1       0.625  19.247  20.406  1.00  0.00     0.040 A 
HETATM   24  C6  UNL     1       0.596  18.118  21.386  1.00  0.00     0.193 C 
HETATM   25  C8  UNL     1      -0.848  19.448  19.966  1.00  0.00     0.015 A 
HETATM   26  C5  UNL     1      -0.795  18.303  22.011  1.00  0.00     0.038 C 
HETATM   27  N2  UNL     1       0.627  16.817  20.805  1.00  0.00    -0.053 N 
HETATM   28  C4  UNL     1      -1.625  18.449  20.729  1.00  0.00    -0.004 C 
HETATM   29  C3  UNL     1      -1.718  17.093  20.118  1.00  0.00     0.053 C 
HETATM   30  C2  UNL     1      -0.316  16.661  19.741  1.00  0.00     0.205 C 
HETATM   31  C23 UNL     1       0.117  17.564  18.607  1.00  0.00     0.068 C 
ATOM     32  H22 UNL     1       0.499  16.096  21.515  1.00  0.00     0.279 HD
ATOM     33  H21 UNL     1       1.569  16.578  20.496  1.00  0.00     0.279 HD
BRANCH  30  34
HETATM   34  C1  UNL     1      -0.314  15.277  19.235  1.00  0.00     0.267 C 
HETATM   35  N1  UNL     1      -0.903  14.897  18.000  1.00  0.00    -0.060 NA
HETATM   36  O1  UNL     1       0.232  14.351  19.907  1.00  0.00    -0.274 OA
ENDBRANCH  30  34
ENDBRANCH   1  22
TORSDOF 12
ENDMDL
MODEL 4
REMARK VINA RESULT: -6.699353197      2.151      3.514
REMARK  12 active torsions:
REMARK  status: ('A' for Active; 'I' for Inactive)
REMARK    1  A    between atoms: C1_2  and  C2_4 
REMARK    2  A    between atoms: C4_6  and  C8_13 
REMARK    3  A    between atoms: C9_14  and  C10_15 
REMARK       I    between atoms: C10_15  and  N3_17 
REMARK    4  A    between atoms: N3_17  and  C11_19 
REMARK    5  A    between atoms: C11_19  and  C12_20 
REMARK    6  A    between atoms: C13_21  and  C14_22 
REMARK    7  A    between atoms: C14_22  and  N4_23 
REMARK    8  A    between atoms: N5_26  and  C17_27 
REMARK    9  A    between atoms: C17_27  and  C18_28 
REMARK   10  A    between atoms: C18_28  and  C19_29 
REMARK   11  A    between atoms: C19_29  and  N6_30 
REMARK   12  A    between atoms: N6_30  and  C20_32 
ROOT
HETATM    1  C10 UNL     1       2.441  21.419  14.512  1.00  0.00     0.228 C 
HETATM    2  O2  UNL     1       2.041  20.715  13.548  1.00  0.00    -0.273 OA
HETATM    3  N3  UNL     1       1.502  22.129  15.276  1.00  0.00    -0.350 N 
ATOM      4  H3  UNL     1       1.826  22.699  16.057  1.00  0.00     0.163 HD
ENDROOT
BRANCH   3   5
HETATM    5  C11 UNL     1       0.090  22.073  14.986  1.00  0.00     0.217 C 
BRANCH   5   6
HETATM    6  C12 UNL     1      -0.660  21.425  16.065  1.00  0.00    -0.085 C 
HETATM    7  C13 UNL     1      -1.295  20.901  16.947  1.00  0.00    -0.075 C 
BRANCH   7   8
HETATM    8  C14 UNL     1      -2.095  20.277  18.030  1.00  0.00     0.365 C 
BRANCH   8   9
HETATM    9  N4  UNL     1      -1.219  19.589  18.958  1.00  0.00     0.102 N 
HETATM   10  C15 UNL     1      -0.291  18.716  18.316  1.00  0.00     0.303 C 
HETATM   11  C16 UNL     1       0.487  17.987  19.422  1.00  0.00     0.302 C 
HETATM   12  N5  UNL     1      -0.393  17.048  20.066  1.00  0.00     0.091 N 
HETATM   13  C21 UNL     1      -1.749  17.447  19.884  1.00  0.00     0.302 C 
HETATM   14  C22 UNL     1      -1.898  18.950  20.039  1.00  0.00     0.303 C 
BRANCH  12  15
HETATM   15  C17 UNL     1      -0.086  15.717  19.635  1.00  0.00     0.274 C 
BRANCH  15  16
HETATM   16  C18 UNL     1      -1.216  15.104  18.853  1.00  0.00     0.050 C 
BRANCH  16  17
HETATM   17  C19 UNL     1      -0.711  13.823  18.227  1.00  0.00     0.123 C 
BRANCH  17  18
HETATM   18  N6  UNL     1      -1.606  13.260  17.259  1.00  0.00    -0.368 N 
ATOM     19  H6  UNL     1      -2.476  12.818  17.559  1.00  0.00     0.161 HD
BRANCH  18  20
HETATM   20  C20 UNL     1      -1.276  13.323  15.890  1.00  0.00     0.348 C 
HETATM   21  O3  UNL     1      -1.815  14.166  15.109  1.00  0.00    -0.284 OA
ENDBRANCH  18  20
ENDBRANCH  17  18
ENDBRANCH  16  17
ENDBRANCH  15  16
ENDBRANCH  12  15
ENDBRANCH   8   9
ENDBRANCH   7   8
ENDBRANCH   5   6
ENDBRANCH   3   5
BRANCH   1  22
HETATM   22  C9  UNL     1       3.894  21.463  14.793  1.00  0.00     0.054 A 
HETATM   23  C7  UNL     1       4.313  22.194  15.971  1.00  0.00     0.040 A 
HETATM   24  C6  UNL     1       5.739  22.637  16.050  1.00  0.00     0.193 C 
HETATM   25  C8  UNL     1       4.366  20.646  15.908  1.00  0.00     0.015 A 
HETATM   26  C5  UNL     1       6.376  21.459  16.802  1.00  0.00     0.038 C 
HETATM   27  N2  UNL     1       6.405  22.745  14.794  1.00  0.00    -0.053 N 
HETATM   28  C4  UNL     1       5.801  20.300  15.977  1.00  0.00    -0.004 C 
HETATM   29  C3  UNL     1       6.532  20.291  14.678  1.00  0.00     0.053 C 
HETATM   30  C2  UNL     1       6.220  21.592  13.967  1.00  0.00     0.205 C 
HETATM   31  C23 UNL     1       4.757  21.530  13.586  1.00  0.00     0.068 C 
ATOM     32  H22 UNL     1       7.397  22.947  14.923  1.00  0.00     0.279 HD
ATOM     33  H21 UNL     1       6.125  23.595  14.305  1.00  0.00     0.279 HD
BRANCH  30  34
HETATM   34  C1  UNL     1       7.001  21.708  12.723  1.00  0.00     0.267 C 
HETATM   35  N1  UNL     1       8.229  22.417  12.636  1.00  0.00    -0.060 NA
HETATM   36  O1  UNL     1       6.591  21.159  11.657  1.00  0.00    -0.274 OA
ENDBRANCH  30  34
ENDBRANCH   1  22
TORSDOF 12
ENDMDL
MODEL 5
REMARK VINA RESULT: -6.693830917      5.267      8.995
REMARK  12 active torsions:
REMARK  status: ('A' for Active; 'I' for Inactive)
REMARK    1  A    between atoms: C1_2  and  C2_4 
REMARK    2  A    between atoms: C4_6  and  C8_13 
REMARK    3  A    between atoms: C9_14  and  C10_15 
REMARK       I    between atoms: C10_15  and  N3_17 
REMARK    4  A    between atoms: N3_17  and  C11_19 
REMARK    5  A    between atoms: C11_19  and  C12_20 
REMARK    6  A    between atoms: C13_21  and  C14_22 
REMARK    7  A    between atoms: C14_22  and  N4_23 
REMARK    8  A    between atoms: N5_26  and  C17_27 
REMARK    9  A    between atoms: C17_27  and  C18_28 
REMARK   10  A    between atoms: C18_28  and  C19_29 
REMARK   11  A    between atoms: C19_29  and  N6_30 
REMARK   12  A    between atoms: N6_30  and  C20_32 
ROOT
HETATM    1  C10 UNL     1       0.246  20.140  17.930  1.00  0.00     0.228 C 
HETATM    2  O2  UNL     1      -0.059  21.335  18.180  1.00  0.00    -0.273 OA
HETATM    3  N3  UNL     1       1.473  19.863  17.309  1.00  0.00    -0.350 N 
ATOM      4  H3  UNL     1       1.721  18.895  17.106  1.00  0.00     0.163 HD
ENDROOT
BRANCH   3   5
HETATM    5  C11 UNL     1       2.395  20.912  16.949  1.00  0.00     0.217 C 
BRANCH   5   6
HETATM    6  C12 UNL     1       3.372  21.163  18.012  1.00  0.00    -0.085 C 
HETATM    7  C13 UNL     1       4.175  21.391  18.883  1.00  0.00    -0.075 C 
BRANCH   7   8
HETATM    8  C14 UNL     1       5.168  21.696  19.943  1.00  0.00     0.365 C 
BRANCH   8   9
HETATM    9  N4  UNL     1       4.492  21.899  21.210  1.00  0.00     0.102 N 
HETATM   10  C15 UNL     1       4.093  20.682  21.838  1.00  0.00     0.303 C 
HETATM   11  C16 UNL     1       3.305  21.060  23.102  1.00  0.00     0.302 C 
HETATM   12  N5  UNL     1       2.035  21.610  22.709  1.00  0.00     0.091 N 
HETATM   13  C21 UNL     1       2.115  22.124  21.381  1.00  0.00     0.302 C 
HETATM   14  C22 UNL     1       3.430  22.852  21.160  1.00  0.00     0.303 C 
BRANCH  12  15
HETATM   15  C17 UNL     1       0.996  20.648  22.929  1.00  0.00     0.274 C 
BRANCH  15  16
HETATM   16  C18 UNL     1       0.755  19.794  21.713  1.00  0.00     0.050 C 
BRANCH  16  17
HETATM   17  C19 UNL     1       0.414  18.398  22.184  1.00  0.00     0.123 C 
BRANCH  17  18
HETATM   18  N6  UNL     1      -0.042  18.342  23.543  1.00  0.00    -0.368 N 
ATOM     19  H6  UNL     1       0.531  18.728  24.293  1.00  0.00     0.161 HD
BRANCH  18  20
HETATM   20  C20 UNL     1      -1.287  17.748  23.833  1.00  0.00     0.348 C 
HETATM   21  O3  UNL     1      -1.730  16.763  23.167  1.00  0.00    -0.284 OA
ENDBRANCH  18  20
ENDBRANCH  17  18
ENDBRANCH  16  17
ENDBRANCH  15  16
ENDBRANCH  12  15
ENDBRANCH   8   9
ENDBRANCH   7   8
ENDBRANCH   5   6
ENDBRANCH   3   5
BRANCH   1  22
HETATM   22  C9  UNL     1      -0.714  19.078  18.307  1.00  0.00     0.054 A 
HETATM   23  C7  UNL     1      -1.812  19.461  19.169  1.00  0.00     0.040 A 
HETATM   24  C6  UNL     1      -2.524  18.381  19.919  1.00  0.00     0.193 C 
HETATM   25  C8  UNL     1      -2.027  19.130  17.669  1.00  0.00     0.015 A 
HETATM   26  C5  UNL     1      -3.668  18.048  18.949  1.00  0.00     0.038 C 
HETATM   27  N2  UNL     1      -1.771  17.185  20.110  1.00  0.00    -0.053 N 
HETATM   28  C4  UNL     1      -2.858  17.908  17.653  1.00  0.00    -0.004 C 
HETATM   29  C3  UNL     1      -2.119  16.617  17.743  1.00  0.00     0.053 C 
HETATM   30  C2  UNL     1      -1.155  16.720  18.906  1.00  0.00     0.205 C 
HETATM   31  C23 UNL     1      -0.107  17.735  18.504  1.00  0.00     0.068 C 
ATOM     32  H22 UNL     1      -2.346  16.456  20.533  1.00  0.00     0.279 HD
ATOM     33  H21 UNL     1      -1.082  17.303  20.853  1.00  0.00     0.279 HD
BRANCH  30  34
HETATM   34  C1  UNL     1      -0.468  15.436  19.131  1.00  0.00     0.267 C 
HETATM   35  N1  UNL     1      -0.519  14.353  18.214  1.00  0.00    -0.060 NA
HETATM   36  O1  UNL     1       0.214  15.250  20.183  1.00  0.00    -0.274 OA
ENDBRANCH  30  34
ENDBRANCH   1  22
TORSDOF 12
ENDMDL
