MODEL 1
REMARK VINA RESULT: -6.701548047      0.000      0.000
REMARK  14 active torsions:
REMARK  status: ('A' for Active; 'I' for Inactive)
REMARK    1  A    between atoms: N1_2  and  C2_3 
REMARK    2  A    between atoms: C2_3  and  C3_4 
REMARK    3  A    between atoms: C3_4  and  C4_5 
REMARK    4  A    between atoms: C4_5  and  C5_6 
REMARK    5  A    between atoms: C5_6  and  C6_7 
REMARK    6  A    between atoms: C6_7  and  N2_8 
REMARK    7  A    between atoms: C8_13  and  O2_14 
REMARK    8  A    between atoms: C9_18  and  C10_19 
REMARK    9  A    between atoms: C10_19  and  C11_20 
REMARK   10  A    between atoms: C11_20  and  C12_21 
REMARK   11  A    between atoms: C12_21  and  C13_22 
REMARK   12  A    between atoms: C13_22  and  N5_23 
REMARK   13  A    between atoms: C14_27  and  O3_28 
REMARK   14  A    between atoms: C19_35  and  O4_36 
ROOT
HETATM    1  N2  UNL     1       2.200  20.071  20.607  1.00  0.00    -0.270 N 
HETATM    2  N3  UNL     1       1.575  21.000  19.767  1.00  0.00    -0.259 N 
ATOM      3  H3  UNL     1       1.386  21.910  20.187  1.00  0.00     0.190 HD
HETATM    4  C7  UNL     1       1.161  20.857  18.401  1.00  0.00     0.310 C 
HETATM    5  O1  UNL     1       0.816  21.903  17.716  1.00  0.00    -0.262 OA
HETATM    6  C8  UNL     1       1.092  19.596  17.679  1.00  0.00     0.208 C 
HETATM    7  N4  UNL     1       0.302  18.470  18.028  1.00  0.00    -0.354 N 
ATOM      8  H4  UNL     1       0.764  17.561  18.049  1.00  0.00     0.162 HD
HETATM    9  C9  UNL     1      -1.084  18.507  18.353  1.00  0.00     0.158 C 
HETATM   10  C14 UNL     1      -1.417  18.772  19.767  1.00  0.00     0.137 C 
HETATM   11  N6  UNL     1      -0.824  18.276  20.942  1.00  0.00    -0.351 N 
HETATM   12  C15 UNL     1      -1.567  17.519  21.994  1.00  0.00     0.125 C 
HETATM   13  C16 UNL     1      -1.191  18.328  23.219  1.00  0.00     0.022 C 
HETATM   14  C17 UNL     1       0.128  18.966  22.873  1.00  0.00     0.035 C 
HETATM   15  C18 UNL     1       0.455  18.313  21.491  1.00  0.00     0.162 C 
HETATM   16  C19 UNL     1       1.672  18.761  20.924  1.00  0.00     0.156 C 
ENDROOT
BRANCH   1  17
HETATM   17  C6  UNL     1       3.516  20.434  21.193  1.00  0.00     0.151 C 
BRANCH  17  18
HETATM   18  C5  UNL     1       3.953  21.833  20.854  1.00  0.00     0.022 C 
BRANCH  18  19
HETATM   19  C4  UNL     1       5.201  21.924  20.013  1.00  0.00     0.003 C 
BRANCH  19  20
HETATM   20  C3  UNL     1       4.923  21.945  18.539  1.00  0.00     0.028 C 
BRANCH  20  21
HETATM   21  C2  UNL     1       6.154  21.936  17.702  1.00  0.00     0.237 C 
BRANCH  21  22
HETATM   22  N1  UNL     1       5.852  21.641  16.335  1.00  0.00    -0.068 N 
HETATM   23  C1  UNL     1       5.655  22.779  15.446  1.00  0.00     0.272 C 
HETATM   24  C20 UNL     1       6.511  20.469  15.744  1.00  0.00     0.265 A 
HETATM   25  C21 UNL     1       5.073  20.481  16.020  1.00  0.00     0.265 A 
ENDBRANCH  21  22
ENDBRANCH  20  21
ENDBRANCH  19  20
ENDBRANCH  18  19
ENDBRANCH  17  18
ENDBRANCH   1  17
BRANCH  16  26
HETATM   26  O4  UNL     1       2.556  17.859  20.595  1.00  0.00    -0.347 OA
ATOM     27  H4  UNL     1       2.147  17.224  20.017  1.00  0.00     0.219 HD
ENDBRANCH  16  26
BRANCH   6  28
HETATM   28  O2  UNL     1       1.817  19.457  16.601  1.00  0.00    -0.342 OA
ATOM     29  H2  UNL     1       1.584  19.963  15.831  1.00  0.00     0.219 HD
ENDBRANCH   6  28
BRANCH  10  30
HETATM   30  O3  UNL     1      -2.419  19.596  19.880  1.00  0.00    -0.348 OA
ATOM     31  H3  UNL     1      -3.181  19.172  20.259  1.00  0.00     0.219 HD
ENDBRANCH  10  30
BRANCH   9  32
HETATM   32  C10 UNL     1      -1.831  17.300  17.794  1.00  0.00     0.033 C 
BRANCH  32  33
HETATM   33  C11 UNL     1      -1.142  16.001  18.009  1.00  0.00     0.004 C 
BRANCH  33  34
HETATM   34  C12 UNL     1      -1.923  14.968  17.182  1.00  0.00     0.027 C 
BRANCH  34  35
HETATM   35  C13 UNL     1      -1.085  13.743  16.925  1.00  0.00     0.229 C 
BRANCH  35  36
HETATM   36  N5  UNL     1      -1.772  12.971  15.901  1.00  0.00    -0.079 N 
ATOM     37  H53 UNL     1      -2.776  13.146  15.872  1.00  0.00     0.274 HD
ATOM     38  H52 UNL     1      -1.559  13.281  14.953  1.00  0.00     0.274 HD
ATOM     39  H51 UNL     1      -1.540  11.991  16.065  1.00  0.00     0.274 HD
ENDBRANCH  35  36
ENDBRANCH  34  35
ENDBRANCH  33  34
ENDBRANCH  32  33
ENDBRANCH   9  32
TORSDOF 14
ENDMDL
MODEL 2
REMARK VINA RESULT: -6.629594646      1.933      3.411
REMARK  14 active torsions:
REMARK  status: ('A' for Active; 'I' for Inactive)
REMARK    1  A    between atoms: N1_2  and  C2_3 
REMARK    2  A    between atoms: C2_3  and  C3_4 
REMARK    3  A    between atoms: C3_4  and  C4_5 
REMARK    4  A    between atoms: C4_5  and  C5_6 
REMARK    5  A    between atoms: C5_6  and  C6_7 
REMARK    6  A    between atoms: C6_7  and  N2_8 
REMARK    7  A    between atoms: C8_13  and  O2_14 
REMARK    8  A    between atoms: C9_18  and  C10_19 
REMARK    9  A    between atoms: C10_19  and  C11_20 
REMARK   10  A    between atoms: C11_20  and  C12_21 
REMARK   11  A    between atoms: C12_21  and  C13_22 
REMARK   12  A    between atoms: C13_22  and  N5_23 
REMARK   13  A    between atoms: C14_27  and  O3_28 
REMARK   14  A    between atoms: C19_35  and  O4_36 
ROOT
HETATM    1  N2  UNL     1       0.315  20.971  17.482  1.00  0.00    -0.270 N 
HETATM    2  N3  UNL     1      -0.931  20.899  18.116  1.00  0.00    -0.259 N 
ATOM      3  H3  UNL     1      -1.172  21.703  18.696  1.00  0.00     0.190 HD
HETATM    4  C7  UNL     1      -1.919  19.861  18.068  1.00  0.00     0.310 C 
HETATM    5  O1  UNL     1      -3.111  20.079  18.529  1.00  0.00    -0.262 OA
HETATM    6  C8  UNL     1      -1.701  18.529  17.525  1.00  0.00     0.208 C 
HETATM    7  N4  UNL     1      -0.740  17.585  17.973  1.00  0.00    -0.354 N 
ATOM      8  H4  UNL     1      -0.152  17.144  17.267  1.00  0.00     0.162 HD
HETATM    9  C9  UNL     1      -0.533  17.205  19.330  1.00  0.00     0.158 C 
HETATM   10  C14 UNL     1       0.403  18.041  20.106  1.00  0.00     0.137 C 
HETATM   11  N6  UNL     1       1.642  18.594  19.733  1.00  0.00    -0.351 N 
HETATM   12  C15 UNL     1       2.924  18.326  20.452  1.00  0.00     0.125 C 
HETATM   13  C16 UNL     1       3.386  19.745  20.711  1.00  0.00     0.022 C 
HETATM   14  C17 UNL     1       2.741  20.567  19.627  1.00  0.00     0.035 C 
HETATM   15  C18 UNL     1       2.070  19.469  18.739  1.00  0.00     0.162 C 
HETATM   16  C19 UNL     1       1.369  19.988  17.625  1.00  0.00     0.156 C 
ENDROOT
BRANCH   1  17
HETATM   17  C6  UNL     1       0.570  22.114  16.569  1.00  0.00     0.151 C 
BRANCH  17  18
HETATM   18  C5  UNL     1       1.835  22.862  16.890  1.00  0.00     0.022 C 
BRANCH  18  19
HETATM   19  C4  UNL     1       2.849  22.905  15.776  1.00  0.00     0.003 C 
BRANCH  19  20
HETATM   20  C3  UNL     1       4.062  22.063  16.043  1.00  0.00     0.028 C 
BRANCH  20  21
HETATM   21  C2  UNL     1       4.413  21.152  14.921  1.00  0.00     0.237 C 
BRANCH  21  22
HETATM   22  N1  UNL     1       5.829  21.083  14.729  1.00  0.00    -0.068 N 
HETATM   23  C1  UNL     1       6.572  20.209  15.629  1.00  0.00     0.272 C 
HETATM   24  C20 UNL     1       6.319  21.149  13.346  1.00  0.00     0.265 A 
HETATM   25  C21 UNL     1       6.538  22.247  14.290  1.00  0.00     0.265 A 
ENDBRANCH  21  22
ENDBRANCH  20  21
ENDBRANCH  19  20
ENDBRANCH  18  19
ENDBRANCH  17  18
ENDBRANCH   1  17
BRANCH  16  26
HETATM   26  O4  UNL     1       1.687  19.536  16.443  1.00  0.00    -0.347 OA
ATOM     27  H4  UNL     1       2.179  20.203  15.980  1.00  0.00     0.219 HD
ENDBRANCH  16  26
BRANCH   6  28
HETATM   28  O2  UNL     1      -2.446  18.136  16.526  1.00  0.00    -0.342 OA
ATOM     29  H2  UNL     1      -2.264  17.291  16.131  1.00  0.00     0.219 HD
ENDBRANCH   6  28
BRANCH  10  30
HETATM   30  O3  UNL     1      -0.037  18.267  21.311  1.00  0.00    -0.348 OA
ATOM     31  H3  UNL     1      -0.196  19.192  21.460  1.00  0.00     0.219 HD
ENDBRANCH  10  30
BRANCH   9  32
HETATM   32  C10 UNL     1      -0.232  15.715  19.463  1.00  0.00     0.033 C 
BRANCH  32  33
HETATM   33  C11 UNL     1      -1.346  14.826  19.044  1.00  0.00     0.004 C 
BRANCH  33  34
HETATM   34  C12 UNL     1      -0.790  13.963  17.901  1.00  0.00     0.027 C 
BRANCH  34  35
HETATM   35  C13 UNL     1      -1.579  14.176  16.636  1.00  0.00     0.229 C 
BRANCH  35  36
HETATM   36  N5  UNL     1      -1.647  12.890  15.960  1.00  0.00    -0.079 N 
ATOM     37  H53 UNL     1      -0.798  12.335  16.066  1.00  0.00     0.274 HD
ATOM     38  H52 UNL     1      -2.286  12.233  16.409  1.00  0.00     0.274 HD
ATOM     39  H51 UNL     1      -1.884  13.080  14.987  1.00  0.00     0.274 HD
ENDBRANCH  35  36
ENDBRANCH  34  35
ENDBRANCH  33  34
ENDBRANCH  32  33
ENDBRANCH   9  32
TORSDOF 14
ENDMDL
MODEL 3
REMARK VINA RESULT: -6.384902462      2.158      3.653
REMARK  14 active torsions:
REMARK  status: ('A' for Active; 'I' for Inactive)
REMARK    1  A    between atoms: N1_2  and  C2_3 
REMARK    2  A    between atoms: C2_3  and  C3_4 
REMARK    3  A    between atoms: C3_4  and  C4_5 
REMARK    4  A    between atoms: C4_5  and  C5_6 
REMARK    5  A    between atoms: C5_6  and  C6_7 
REMARK    6  A    between atoms: C6_7  and  N2_8 
REMARK    7  A    between atoms: C8_13  and  O2_14 
REMARK    8  A    between atoms: C9_18  and  C10_19 
REMARK    9  A    between atoms: C10_19  and  C11_20 
REMARK   10  A    between atoms: C11_20  and  C12_21 
REMARK   11  A    between atoms: C12_21  and  C13_22 
REMARK   12  A    between atoms: C13_22  and  N5_23 
REMARK   13  A    between atoms: C14_27  and  O3_28 
REMARK   14  A    between atoms: C19_35  and  O4_36 
ROOT
HETATM    1  N2  UNL     1       2.179  20.061  20.647  1.00  0.00    -0.270 N 
HETATM    2  N3  UNL     1       1.557  20.994  19.809  1.00  0.00    -0.259 N 
ATOM      3  H3  UNL     1       1.366  21.903  20.233  1.00  0.00     0.190 HD
HETATM    4  C7  UNL     1       1.148  20.859  18.441  1.00  0.00     0.310 C 
HETATM    5  O1  UNL     1       0.807  21.909  17.760  1.00  0.00    -0.262 OA
HETATM    6  C8  UNL     1       1.082  19.602  17.712  1.00  0.00     0.208 C 
HETATM    7  N4  UNL     1       0.292  18.474  18.052  1.00  0.00    -0.354 N 
ATOM      8  H4  UNL     1       0.754  17.565  18.069  1.00  0.00     0.162 HD
HETATM    9  C9  UNL     1      -1.096  18.509  18.370  1.00  0.00     0.158 C 
HETATM   10  C14 UNL     1      -1.434  18.766  19.784  1.00  0.00     0.137 C 
HETATM   11  N6  UNL     1      -0.846  18.264  20.959  1.00  0.00    -0.351 N 
HETATM   12  C15 UNL     1      -1.593  17.501  22.005  1.00  0.00     0.125 C 
HETATM   13  C16 UNL     1      -1.223  18.303  23.235  1.00  0.00     0.022 C 
HETATM   14  C17 UNL     1       0.097  18.944  22.898  1.00  0.00     0.035 C 
HETATM   15  C18 UNL     1       0.430  18.299  21.514  1.00  0.00     0.162 C 
HETATM   16  C19 UNL     1       1.649  18.749  20.955  1.00  0.00     0.156 C 
ENDROOT
BRANCH   1  17
HETATM   17  C6  UNL     1       3.492  20.421  21.240  1.00  0.00     0.151 C 
BRANCH  17  18
HETATM   18  C5  UNL     1       4.306  21.340  20.371  1.00  0.00     0.022 C 
BRANCH  18  19
HETATM   19  C4  UNL     1       5.440  22.042  21.074  1.00  0.00     0.003 C 
BRANCH  19  20
HETATM   20  C3  UNL     1       5.649  21.570  22.483  1.00  0.00     0.028 C 
BRANCH  20  21
HETATM   21  C2  UNL     1       6.637  22.383  23.242  1.00  0.00     0.237 C 
BRANCH  21  22
HETATM   22  N1  UNL     1       6.340  22.393  24.641  1.00  0.00    -0.068 N 
HETATM   23  C1  UNL     1       5.067  21.807  25.046  1.00  0.00     0.272 C 
HETATM   24  C20 UNL     1       7.463  22.191  25.565  1.00  0.00     0.265 A 
HETATM   25  C21 UNL     1       6.790  23.486  25.450  1.00  0.00     0.265 A 
ENDBRANCH  21  22
ENDBRANCH  20  21
ENDBRANCH  19  20
ENDBRANCH  18  19
ENDBRANCH  17  18
ENDBRANCH   1  17
BRANCH  16  26
HETATM   26  O4  UNL     1       2.534  17.849  20.624  1.00  0.00    -0.347 OA
ATOM     27  H4  UNL     1       3.327  18.287  20.336  1.00  0.00     0.219 HD
ENDBRANCH  16  26
BRANCH   6  28
HETATM   28  O2  UNL     1       1.813  19.469  16.636  1.00  0.00    -0.342 OA
ATOM     29  H2  UNL     1       1.475  19.810  15.815  1.00  0.00     0.219 HD
ENDBRANCH   6  28
BRANCH  10  30
HETATM   30  O3  UNL     1      -2.437  19.589  19.898  1.00  0.00    -0.348 OA
ATOM     31  H3  UNL     1      -2.260  20.275  20.531  1.00  0.00     0.219 HD
ENDBRANCH  10  30
BRANCH   9  32
HETATM   32  C10 UNL     1      -1.840  17.305  17.803  1.00  0.00     0.033 C 
BRANCH  32  33
HETATM   33  C11 UNL     1      -1.112  16.016  17.937  1.00  0.00     0.004 C 
BRANCH  33  34
HETATM   34  C12 UNL     1      -1.839  15.024  17.016  1.00  0.00     0.027 C 
BRANCH  34  35
HETATM   35  C13 UNL     1      -1.083  13.725  16.925  1.00  0.00     0.229 C 
BRANCH  35  36
HETATM   36  N5  UNL     1      -1.725  12.935  15.886  1.00  0.00    -0.079 N 
ATOM     37  H53 UNL     1      -1.824  11.951  16.132  1.00  0.00     0.274 HD
ATOM     38  H52 UNL     1      -2.719  13.142  15.780  1.00  0.00     0.274 HD
ATOM     39  H51 UNL     1      -1.190  13.084  15.030  1.00  0.00     0.274 HD
ENDBRANCH  35  36
ENDBRANCH  34  35
ENDBRANCH  33  34
ENDBRANCH  32  33
ENDBRANCH   9  32
TORSDOF 14
ENDMDL
MODEL 4
REMARK VINA RESULT: -6.307869025      2.293      3.689
REMARK  14 active torsions:
REMARK  status: ('A' for Active; 'I' for Inactive)
REMARK    1  A    between atoms: N1_2  and  C2_3 
REMARK    2  A    between atoms: C2_3  and  C3_4 
REMARK    3  A    between atoms: C3_4  and  C4_5 
REMARK    4  A    between atoms: C4_5  and  C5_6 
REMARK    5  A    between atoms: C5_6  and  C6_7 
REMARK    6  A    between atoms: C6_7  and  N2_8 
REMARK    7  A    between atoms: C8_13  and  O2_14 
REMARK    8  A    between atoms: C9_18  and  C10_19 
REMARK    9  A    between atoms: C10_19  and  C11_20 
REMARK   10  A    between atoms: C11_20  and  C12_21 
REMARK   11  A    between atoms: C12_21  and  C13_22 
REMARK   12  A    between atoms: C13_22  and  N5_23 
REMARK   13  A    between atoms: C14_27  and  O3_28 
REMARK   14  A    between atoms: C19_35  and  O4_36 
ROOT
HETATM    1  N2  UNL     1      -0.716  20.903  20.142  1.00  0.00    -0.270 N 
HETATM    2  N3  UNL     1       0.078  20.714  19.005  1.00  0.00    -0.259 N 
ATOM      3  H3  UNL     1       0.107  21.502  18.358  1.00  0.00     0.190 HD
HETATM    4  C7  UNL     1       0.857  19.574  18.618  1.00  0.00     0.310 C 
HETATM    5  O1  UNL     1       1.716  19.674  17.651  1.00  0.00    -0.262 OA
HETATM    6  C8  UNL     1       0.774  18.260  19.236  1.00  0.00     0.208 C 
HETATM    7  N4  UNL     1      -0.380  17.437  19.311  1.00  0.00    -0.354 N 
ATOM      8  H4  UNL     1      -0.618  17.044  20.221  1.00  0.00     0.162 HD
HETATM    9  C9  UNL     1      -1.232  17.117  18.216  1.00  0.00     0.158 C 
HETATM   10  C14 UNL     1      -2.326  18.070  17.939  1.00  0.00     0.137 C 
HETATM   11  N6  UNL     1      -3.183  18.743  18.829  1.00  0.00    -0.351 N 
HETATM   12  C15 UNL     1      -4.673  18.633  18.794  1.00  0.00     0.125 C 
HETATM   13  C16 UNL     1      -5.046  20.100  18.740  1.00  0.00     0.022 C 
HETATM   14  C17 UNL     1      -3.888  20.819  19.379  1.00  0.00     0.035 C 
HETATM   15  C18 UNL     1      -3.004  19.633  19.884  1.00  0.00     0.162 C 
HETATM   16  C19 UNL     1      -1.815  20.044  20.531  1.00  0.00     0.156 C 
ENDROOT
BRANCH   1  17
HETATM   17  C6  UNL     1      -0.394  22.044  21.038  1.00  0.00     0.151 C 
BRANCH  17  18
HETATM   18  C5  UNL     1       1.063  22.122  21.403  1.00  0.00     0.022 C 
BRANCH  18  19
HETATM   19  C4  UNL     1       1.539  21.055  22.355  1.00  0.00     0.003 C 
BRANCH  19  20
HETATM   20  C3  UNL     1       2.836  20.425  21.942  1.00  0.00     0.028 C 
BRANCH  20  21
HETATM   21  C2  UNL     1       3.410  21.006  20.698  1.00  0.00     0.237 C 
BRANCH  21  22
HETATM   22  N1  UNL     1       4.615  21.728  20.968  1.00  0.00    -0.068 N 
HETATM   23  C1  UNL     1       5.301  21.417  22.217  1.00  0.00     0.272 C 
HETATM   24  C20 UNL     1       5.477  22.041  19.821  1.00  0.00     0.265 A 
HETATM   25  C21 UNL     1       4.735  23.086  20.530  1.00  0.00     0.265 A 
ENDBRANCH  21  22
ENDBRANCH  20  21
ENDBRANCH  19  20
ENDBRANCH  18  19
ENDBRANCH  17  18
ENDBRANCH   1  17
BRANCH  16  26
HETATM   26  O4  UNL     1      -1.596  19.598  21.738  1.00  0.00    -0.347 OA
ATOM     27  H4  UNL     1      -1.500  20.337  22.327  1.00  0.00     0.219 HD
ENDBRANCH  16  26
BRANCH   6  28
HETATM   28  O2  UNL     1       1.850  17.763  19.787  1.00  0.00    -0.342 OA
ATOM     29  H2  UNL     1       1.756  17.025  20.378  1.00  0.00     0.219 HD
ENDBRANCH   6  28
BRANCH  10  30
HETATM   30  O3  UNL     1      -2.473  18.277  16.662  1.00  0.00    -0.348 OA
ATOM     31  H3  UNL     1      -3.374  18.153  16.387  1.00  0.00     0.219 HD
ENDBRANCH  10  30
BRANCH   9  32
HETATM   32  C10 UNL     1      -1.719  15.672  18.278  1.00  0.00     0.033 C 
BRANCH  32  33
HETATM   33  C11 UNL     1      -0.710  14.708  18.786  1.00  0.00     0.004 C 
BRANCH  33  34
HETATM   34  C12 UNL     1      -0.643  13.580  17.744  1.00  0.00     0.027 C 
BRANCH  34  35
HETATM   35  C13 UNL     1      -1.367  13.973  16.483  1.00  0.00     0.229 C 
BRANCH  35  36
HETATM   36  N5  UNL     1      -1.698  12.739  15.787  1.00  0.00    -0.079 N 
ATOM     37  H53 UNL     1      -1.162  12.604  14.930  1.00  0.00     0.274 HD
ATOM     38  H52 UNL     1      -1.375  11.903  16.274  1.00  0.00     0.274 HD
ATOM     39  H51 UNL     1      -2.706  12.749  15.632  1.00  0.00     0.274 HD
ENDBRANCH  35  36
ENDBRANCH  34  35
ENDBRANCH  33  34
ENDBRANCH  32  33
ENDBRANCH   9  32
TORSDOF 14
ENDMDL
MODEL 5
REMARK VINA RESULT: -6.307397523      2.761      4.288
REMARK  14 active torsions:
REMARK  status: ('A' for Active; 'I' for Inactive)
REMARK    1  A    between atoms: N1_2  and  C2_3 
REMARK    2  A    between atoms: C2_3  and  C3_4 
REMARK    3  A    between atoms: C3_4  and  C4_5 
REMARK    4  A    between atoms: C4_5  and  C5_6 
REMARK    5  A    between atoms: C5_6  and  C6_7 
REMARK    6  A    between atoms: C6_7  and  N2_8 
REMARK    7  A    between atoms: C8_13  and  O2_14 
REMARK    8  A    between atoms: C9_18  and  C10_19 
REMARK    9  A    between atoms: C10_19  and  C11_20 
REMARK   10  A    between atoms: C11_20  and  C12_21 
REMARK   11  A    between atoms: C12_21  and  C13_22 
REMARK   12  A    between atoms: C13_22  and  N5_23 
REMARK   13  A    between atoms: C14_27  and  O3_28 
REMARK   14  A    between atoms: C19_35  and  O4_36 
ROOT
HETATM    1  N2  UNL     1       0.023  20.957  17.847  1.00  0.00    -0.270 N 
HETATM    2  N3  UNL     1      -1.206  20.710  18.468  1.00  0.00    -0.259 N 
ATOM      3  H3  UNL     1      -1.515  21.428  19.125  1.00  0.00     0.190 HD
HETATM    4  C7  UNL     1      -2.096  19.595  18.317  1.00  0.00     0.310 C 
HETATM    5  O1  UNL     1      -3.300  19.658  18.794  1.00  0.00    -0.262 OA
HETATM    6  C8  UNL     1      -1.762  18.349  17.645  1.00  0.00     0.208 C 
HETATM    7  N4  UNL     1      -0.717  17.457  17.999  1.00  0.00    -0.354 N 
ATOM      8  H4  UNL     1      -0.096  17.143  17.254  1.00  0.00     0.162 HD
HETATM    9  C9  UNL     1      -0.466  16.966  19.312  1.00  0.00     0.158 C 
HETATM   10  C14 UNL     1       0.397  17.803  20.169  1.00  0.00     0.137 C 
HETATM   11  N6  UNL     1       1.577  18.500  19.854  1.00  0.00    -0.351 N 
HETATM   12  C15 UNL     1       2.884  18.281  20.545  1.00  0.00     0.125 C 
HETATM   13  C16 UNL     1       3.217  19.703  20.944  1.00  0.00     0.022 C 
HETATM   14  C17 UNL     1       2.491  20.566  19.945  1.00  0.00     0.035 C 
HETATM   15  C18 UNL     1       1.917  19.505  18.952  1.00  0.00     0.162 C 
HETATM   16  C19 UNL     1       1.163  20.065  17.894  1.00  0.00     0.156 C 
ENDROOT
BRANCH   1  17
HETATM   17  C6  UNL     1       0.167  22.203  17.052  1.00  0.00     0.151 C 
BRANCH  17  18
HETATM   18  C5  UNL     1      -1.004  22.470  16.145  1.00  0.00     0.022 C 
BRANCH  18  19
HETATM   19  C4  UNL     1      -0.768  22.152  14.691  1.00  0.00     0.003 C 
BRANCH  19  20
HETATM   20  C3  UNL     1       0.685  22.109  14.320  1.00  0.00     0.028 C 
BRANCH  20  21
HETATM   21  C2  UNL     1       0.922  21.959  12.859  1.00  0.00     0.237 C 
BRANCH  21  22
HETATM   22  N1  UNL     1       2.276  21.585  12.586  1.00  0.00    -0.068 N 
HETATM   23  C1  UNL     1       3.110  21.256  13.735  1.00  0.00     0.272 C 
HETATM   24  C20 UNL     1       2.519  20.802  11.368  1.00  0.00     0.265 A 
HETATM   25  C21 UNL     1       2.966  22.192  11.487  1.00  0.00     0.265 A 
ENDBRANCH  21  22
ENDBRANCH  20  21
ENDBRANCH  19  20
ENDBRANCH  18  19
ENDBRANCH  17  18
ENDBRANCH   1  17
BRANCH  16  26
HETATM   26  O4  UNL     1       1.512  19.762  16.673  1.00  0.00    -0.347 OA
ATOM     27  H4  UNL     1       1.925  20.519  16.274  1.00  0.00     0.219 HD
ENDBRANCH  16  26
BRANCH   6  28
HETATM   28  O2  UNL     1      -2.476  17.990  16.610  1.00  0.00    -0.342 OA
ATOM     29  H2  UNL     1      -2.505  18.570  15.858  1.00  0.00     0.219 HD
ENDBRANCH   6  28
BRANCH  10  30
HETATM   30  O3  UNL     1      -0.054  17.868  21.389  1.00  0.00    -0.348 OA
ATOM     31  H3  UNL     1       0.549  17.471  22.008  1.00  0.00     0.219 HD
ENDBRANCH  10  30
BRANCH   9  32
HETATM   32  C10 UNL     1      -0.030  15.504  19.297  1.00  0.00     0.033 C 
BRANCH  32  33
HETATM   33  C11 UNL     1      -1.137  14.537  19.080  1.00  0.00     0.004 C 
BRANCH  33  34
HETATM   34  C12 UNL     1      -0.728  13.695  17.862  1.00  0.00     0.027 C 
BRANCH  34  35
HETATM   35  C13 UNL     1      -1.468  14.144  16.629  1.00  0.00     0.229 C 
BRANCH  35  36
HETATM   36  N5  UNL     1      -1.738  12.950  15.843  1.00  0.00    -0.079 N 
ATOM     37  H53 UNL     1      -1.316  12.108  16.233  1.00  0.00     0.274 HD
ATOM     38  H52 UNL     1      -2.710  12.644  15.897  1.00  0.00     0.274 HD
ATOM     39  H51 UNL     1      -1.432  13.149  14.890  1.00  0.00     0.274 HD
ENDBRANCH  35  36
ENDBRANCH  34  35
ENDBRANCH  33  34
ENDBRANCH  32  33
ENDBRANCH   9  32
TORSDOF 14
ENDMDL
