MODEL 1
REMARK VINA RESULT: -7.140535123      0.000      0.000
REMARK  9 active torsions:
REMARK  status: ('A' for Active; 'I' for Inactive)
REMARK       I    between atoms: N1_2  and  C3_4 
REMARK    1  A    between atoms: N3_6  and  C4_8 
REMARK    2  A    between atoms: C4_8  and  C5_9 
REMARK    3  A    between atoms: C5_9  and  C6_10 
REMARK    4  A    between atoms: C6_10  and  C7_11 
REMARK    5  A    between atoms: C10_16  and  C11_17 
REMARK    6  A    between atoms: C11_17  and  C12_18 
REMARK    7  A    between atoms: C12_18  and  C13_19 
REMARK    8  A    between atoms: C13_19  and  N5_20 
REMARK    9  A    between atoms: N9_29  and  C16_30 
ROOT
HETATM    1  C7  UNL     1       1.064  19.869  19.101  1.00  0.00     0.193 C 
HETATM    2  N4  UNL     1      -0.240  19.392  18.730  1.00  0.00    -0.333 N 
HETATM    3  C8  UNL     1      -1.223  20.379  18.325  1.00  0.00     0.155 C 
HETATM    4  C9  UNL     1      -0.773  18.056  18.690  1.00  0.00     0.244 C 
HETATM    5  O1  UNL     1      -1.815  17.951  18.017  1.00  0.00    -0.271 OA
HETATM    6  C10 UNL     1      -0.222  16.879  19.338  1.00  0.00     0.178 C 
HETATM    7  N8  UNL     1       0.258  17.201  20.675  1.00  0.00    -0.330 N 
ATOM      8  H8  UNL     1       0.152  16.451  21.358  1.00  0.00     0.165 HD
HETATM    9  C15 UNL     1       0.849  18.389  21.186  1.00  0.00     0.321 C 
HETATM   10  O2  UNL     1       0.869  18.517  22.456  1.00  0.00    -0.247 OA
HETATM   11  N9  UNL     1       1.433  19.474  20.475  1.00  0.00    -0.308 N 
ENDROOT
BRANCH   1  12
HETATM   12  C6  UNL     1       2.145  19.483  18.144  1.00  0.00     0.049 C 
BRANCH  12  13
HETATM   13  C5  UNL     1       2.148  20.186  16.839  1.00  0.00     0.023 C 
BRANCH  13  14
HETATM   14  C4  UNL     1       3.514  20.644  16.416  1.00  0.00     0.122 C 
BRANCH  14  15
HETATM   15  N3  UNL     1       4.244  21.256  17.527  1.00  0.00    -0.365 N 
HETATM   16  C3  UNL     1       5.446  21.663  17.278  1.00  0.00     0.185 C 
HETATM   17  N1  UNL     1       6.062  21.539  16.003  1.00  0.00    -0.364 N 
HETATM   18  N2  UNL     1       6.202  22.265  18.318  1.00  0.00    -0.064 NA
HETATM   19  C1  UNL     1       6.637  20.277  15.586  1.00  0.00     0.151 C 
HETATM   20  C2  UNL     1       6.139  22.653  15.081  1.00  0.00     0.151 C 
ATOM     21  H3  UNL     1       3.825  21.356  18.451  1.00  0.00     0.162 HD
ENDBRANCH  14  15
ENDBRANCH  13  14
ENDBRANCH  12  13
ENDBRANCH   1  12
BRANCH  11  22
HETATM   22  C16 UNL     1       2.431  20.238  21.107  1.00  0.00     0.091 C 
HETATM   23  C17 UNL     1       2.624  21.651  20.722  1.00  0.00     0.025 C 
HETATM   24  C18 UNL     1       3.841  22.052  21.569  1.00  0.00     0.002 C 
HETATM   25  C19 UNL     1       4.453  20.746  22.063  1.00  0.00     0.002 C 
HETATM   26  C20 UNL     1       3.832  19.684  21.126  1.00  0.00     0.025 C 
ENDBRANCH  11  22
BRANCH   6  27
HETATM   27  C11 UNL     1      -1.060  15.680  19.435  1.00  0.00     0.037 C 
BRANCH  27  28
HETATM   28  C12 UNL     1      -0.431  14.350  19.526  1.00  0.00     0.022 C 
BRANCH  28  29
HETATM   29  C13 UNL     1      -1.391  13.366  18.824  1.00  0.00     0.122 C 
BRANCH  29  30
HETATM   30  N5  UNL     1      -1.749  13.848  17.524  1.00  0.00    -0.367 N 
HETATM   31  C14 UNL     1      -1.264  13.462  16.415  1.00  0.00     0.196 C 
HETATM   32  N6  UNL     1      -0.262  12.454  16.390  1.00  0.00    -0.067 NA
HETATM   33  N7  UNL     1      -1.753  14.068  15.218  1.00  0.00    -0.067 NA
ATOM     34  H5  UNL     1      -2.465  14.573  17.484  1.00  0.00     0.161 HD
ENDBRANCH  29  30
ENDBRANCH  28  29
ENDBRANCH  27  28
ENDBRANCH   6  27
TORSDOF 9
ENDMDL
MODEL 2
REMARK VINA RESULT: -6.998042775      0.715      1.177
REMARK  9 active torsions:
REMARK  status: ('A' for Active; 'I' for Inactive)
REMARK       I    between atoms: N1_2  and  C3_4 
REMARK    1  A    between atoms: N3_6  and  C4_8 
REMARK    2  A    between atoms: C4_8  and  C5_9 
REMARK    3  A    between atoms: C5_9  and  C6_10 
REMARK    4  A    between atoms: C6_10  and  C7_11 
REMARK    5  A    between atoms: C10_16  and  C11_17 
REMARK    6  A    between atoms: C11_17  and  C12_18 
REMARK    7  A    between atoms: C12_18  and  C13_19 
REMARK    8  A    between atoms: C13_19  and  N5_20 
REMARK    9  A    between atoms: N9_29  and  C16_30 
ROOT
HETATM    1  C7  UNL     1       1.236  20.021  19.173  1.00  0.00     0.193 C 
HETATM    2  N4  UNL     1      -0.038  19.476  18.791  1.00  0.00    -0.333 N 
HETATM    3  C8  UNL     1      -1.056  20.408  18.344  1.00  0.00     0.155 C 
HETATM    4  C9  UNL     1      -0.510  18.117  18.777  1.00  0.00     0.244 C 
HETATM    5  O1  UNL     1      -1.534  17.948  18.089  1.00  0.00    -0.271 OA
HETATM    6  C10 UNL     1       0.081  16.983  19.464  1.00  0.00     0.178 C 
HETATM    7  N8  UNL     1       0.522  17.360  20.801  1.00  0.00    -0.330 N 
ATOM      8  H8  UNL     1       0.437  16.624  21.501  1.00  0.00     0.165 HD
HETATM    9  C15 UNL     1       1.050  18.585  21.291  1.00  0.00     0.321 C 
HETATM   10  O2  UNL     1       1.041  18.747  22.557  1.00  0.00    -0.247 OA
HETATM   11  N9  UNL     1       1.598  19.678  20.562  1.00  0.00    -0.308 N 
ENDROOT
BRANCH   1  12
HETATM   12  C6  UNL     1       2.352  19.660  18.244  1.00  0.00     0.049 C 
BRANCH  12  13
HETATM   13  C5  UNL     1       2.192  20.081  16.832  1.00  0.00     0.023 C 
BRANCH  13  14
HETATM   14  C4  UNL     1       3.210  21.095  16.397  1.00  0.00     0.122 C 
BRANCH  14  15
HETATM   15  N3  UNL     1       4.447  20.454  15.947  1.00  0.00    -0.365 N 
HETATM   16  C3  UNL     1       5.556  21.025  16.289  1.00  0.00     0.185 C 
HETATM   17  N1  UNL     1       5.610  22.215  17.064  1.00  0.00    -0.364 N 
HETATM   18  N2  UNL     1       6.786  20.448  15.881  1.00  0.00    -0.064 NA
HETATM   19  C1  UNL     1       5.392  23.505  16.443  1.00  0.00     0.151 C 
HETATM   20  C2  UNL     1       5.883  22.189  18.486  1.00  0.00     0.151 C 
ATOM     21  H3  UNL     1       4.435  19.600  15.390  1.00  0.00     0.162 HD
ENDBRANCH  14  15
ENDBRANCH  13  14
ENDBRANCH  12  13
ENDBRANCH   1  12
BRANCH  11  22
HETATM   22  C16 UNL     1       2.549  20.502  21.191  1.00  0.00     0.091 C 
HETATM   23  C17 UNL     1       2.664  21.920  20.795  1.00  0.00     0.025 C 
HETATM   24  C18 UNL     1       3.853  22.395  21.642  1.00  0.00     0.002 C 
HETATM   25  C19 UNL     1       4.535  21.130  22.151  1.00  0.00     0.002 C 
HETATM   26  C20 UNL     1       3.978  20.027  21.220  1.00  0.00     0.025 C 
ENDBRANCH  11  22
BRANCH   6  27
HETATM   27  C11 UNL     1      -0.704  15.750  19.579  1.00  0.00     0.037 C 
BRANCH  27  28
HETATM   28  C12 UNL     1      -0.079  14.451  19.273  1.00  0.00     0.022 C 
BRANCH  28  29
HETATM   29  C13 UNL     1      -1.194  13.559  18.686  1.00  0.00     0.122 C 
BRANCH  29  30
HETATM   30  N5  UNL     1      -1.612  14.049  17.407  1.00  0.00    -0.367 N 
HETATM   31  C14 UNL     1      -1.293  13.571  16.273  1.00  0.00     0.196 C 
HETATM   32  N6  UNL     1      -0.437  12.439  16.195  1.00  0.00    -0.067 NA
HETATM   33  N7  UNL     1      -1.814  14.204  15.105  1.00  0.00    -0.067 NA
ATOM     34  H5  UNL     1      -2.229  14.861  17.405  1.00  0.00     0.161 HD
ENDBRANCH  29  30
ENDBRANCH  28  29
ENDBRANCH  27  28
ENDBRANCH   6  27
TORSDOF 9
ENDMDL
MODEL 3
REMARK VINA RESULT: -6.953924722      4.371      8.419
REMARK  9 active torsions:
REMARK  status: ('A' for Active; 'I' for Inactive)
REMARK       I    between atoms: N1_2  and  C3_4 
REMARK    1  A    between atoms: N3_6  and  C4_8 
REMARK    2  A    between atoms: C4_8  and  C5_9 
REMARK    3  A    between atoms: C5_9  and  C6_10 
REMARK    4  A    between atoms: C6_10  and  C7_11 
REMARK    5  A    between atoms: C10_16  and  C11_17 
REMARK    6  A    between atoms: C11_17  and  C12_18 
REMARK    7  A    between atoms: C12_18  and  C13_19 
REMARK    8  A    between atoms: C13_19  and  N5_20 
REMARK    9  A    between atoms: N9_29  and  C16_30 
ROOT
HETATM    1  C7  UNL     1      -1.687  18.355  18.318  1.00  0.00     0.193 C 
HETATM    2  N4  UNL     1      -1.298  19.698  18.648  1.00  0.00    -0.333 N 
HETATM    3  C8  UNL     1      -0.782  20.527  17.575  1.00  0.00     0.155 C 
HETATM    4  C9  UNL     1      -1.323  20.400  19.904  1.00  0.00     0.244 C 
HETATM    5  O1  UNL     1      -1.234  21.637  19.790  1.00  0.00    -0.271 OA
HETATM    6  C10 UNL     1      -1.439  19.814  21.227  1.00  0.00     0.178 C 
HETATM    7  N8  UNL     1      -0.632  18.605  21.329  1.00  0.00    -0.330 N 
ATOM      8  H8  UNL     1      -0.225  18.441  22.250  1.00  0.00     0.165 HD
HETATM    9  C15 UNL     1      -0.319  17.615  20.358  1.00  0.00     0.321 C 
HETATM   10  O2  UNL     1       0.668  16.849  20.621  1.00  0.00    -0.247 OA
HETATM   11  N9  UNL     1      -0.956  17.349  19.114  1.00  0.00    -0.308 N 
ENDROOT
BRANCH   1  12
HETATM   12  C6  UNL     1      -3.161  18.112  18.407  1.00  0.00     0.049 C 
BRANCH  12  13
HETATM   13  C5  UNL     1      -4.011  18.890  17.474  1.00  0.00     0.023 C 
BRANCH  13  14
HETATM   14  C4  UNL     1      -4.908  19.872  18.170  1.00  0.00     0.122 C 
BRANCH  14  15
HETATM   15  N3  UNL     1      -5.857  19.198  19.057  1.00  0.00    -0.365 N 
HETATM   16  C3  UNL     1      -7.097  19.198  18.689  1.00  0.00     0.185 C 
HETATM   17  N1  UNL     1      -7.553  19.811  17.491  1.00  0.00    -0.364 N 
HETATM   18  N2  UNL     1      -8.062  18.559  19.510  1.00  0.00    -0.064 NA
HETATM   19  C1  UNL     1      -7.764  21.242  17.434  1.00  0.00     0.151 C 
HETATM   20  C2  UNL     1      -7.822  19.041  16.294  1.00  0.00     0.151 C 
ATOM     21  H3  UNL     1      -5.555  18.751  19.923  1.00  0.00     0.162 HD
ENDBRANCH  14  15
ENDBRANCH  13  14
ENDBRANCH  12  13
ENDBRANCH   1  12
BRANCH  11  22
HETATM   22  C16 UNL     1      -0.895  16.047  18.587  1.00  0.00     0.091 C 
HETATM   23  C17 UNL     1      -1.507  15.760  17.274  1.00  0.00     0.025 C 
HETATM   24  C18 UNL     1      -1.294  14.245  17.144  1.00  0.00     0.002 C 
HETATM   25  C19 UNL     1      -0.926  13.754  18.540  1.00  0.00     0.002 C 
HETATM   26  C20 UNL     1      -1.378  14.915  19.456  1.00  0.00     0.025 C 
ENDBRANCH  11  22
BRANCH   6  27
HETATM   27  C11 UNL     1      -1.143  20.654  22.391  1.00  0.00     0.037 C 
BRANCH  27  28
HETATM   28  C12 UNL     1      -2.031  20.618  23.567  1.00  0.00     0.022 C 
BRANCH  28  29
HETATM   29  C13 UNL     1      -1.196  20.028  24.724  1.00  0.00     0.122 C 
BRANCH  29  30
HETATM   30  N5  UNL     1      -1.615  18.691  25.020  1.00  0.00    -0.367 N 
HETATM   31  C14 UNL     1      -1.004  17.622  24.710  1.00  0.00     0.196 C 
HETATM   32  N6  UNL     1       0.224  17.686  23.997  1.00  0.00    -0.067 NA
HETATM   33  N7  UNL     1      -1.587  16.376  25.096  1.00  0.00    -0.067 NA
ATOM     34  H5  UNL     1      -2.492  18.587  25.532  1.00  0.00     0.161 HD
ENDBRANCH  29  30
ENDBRANCH  28  29
ENDBRANCH  27  28
ENDBRANCH   6  27
TORSDOF 9
ENDMDL
MODEL 4
REMARK VINA RESULT: -6.952055265      1.529      1.951
REMARK  9 active torsions:
REMARK  status: ('A' for Active; 'I' for Inactive)
REMARK       I    between atoms: N1_2  and  C3_4 
REMARK    1  A    between atoms: N3_6  and  C4_8 
REMARK    2  A    between atoms: C4_8  and  C5_9 
REMARK    3  A    between atoms: C5_9  and  C6_10 
REMARK    4  A    between atoms: C6_10  and  C7_11 
REMARK    5  A    between atoms: C10_16  and  C11_17 
REMARK    6  A    between atoms: C11_17  and  C12_18 
REMARK    7  A    between atoms: C12_18  and  C13_19 
REMARK    8  A    between atoms: C13_19  and  N5_20 
REMARK    9  A    between atoms: N9_29  and  C16_30 
ROOT
HETATM    1  C7  UNL     1       0.976  19.981  19.285  1.00  0.00     0.193 C 
HETATM    2  N4  UNL     1      -0.314  19.506  18.868  1.00  0.00    -0.333 N 
HETATM    3  C8  UNL     1      -1.311  20.501  18.517  1.00  0.00     0.155 C 
HETATM    4  C9  UNL     1      -0.822  18.166  18.732  1.00  0.00     0.244 C 
HETATM    5  O1  UNL     1      -1.855  18.088  18.042  1.00  0.00    -0.271 OA
HETATM    6  C10 UNL     1      -0.257  16.959  19.307  1.00  0.00     0.178 C 
HETATM    7  N8  UNL     1       0.203  17.200  20.668  1.00  0.00    -0.330 N 
ATOM      8  H8  UNL     1       0.104  16.404  21.298  1.00  0.00     0.165 HD
HETATM    9  C15 UNL     1       0.767  18.361  21.264  1.00  0.00     0.321 C 
HETATM   10  O2  UNL     1       0.772  18.404  22.540  1.00  0.00    -0.247 OA
HETATM   11  N9  UNL     1       1.338  19.501  20.634  1.00  0.00    -0.308 N 
ENDROOT
BRANCH   1  12
HETATM   12  C6  UNL     1       2.075  19.678  18.317  1.00  0.00     0.049 C 
BRANCH  12  13
HETATM   13  C5  UNL     1       2.552  20.813  17.491  1.00  0.00     0.023 C 
BRANCH  13  14
HETATM   14  C4  UNL     1       3.230  20.379  16.223  1.00  0.00     0.122 C 
BRANCH  14  15
HETATM   15  N3  UNL     1       2.282  20.286  15.112  1.00  0.00    -0.365 N 
HETATM   16  C3  UNL     1       2.519  21.032  14.082  1.00  0.00     0.185 C 
HETATM   17  N1  UNL     1       3.634  21.910  13.997  1.00  0.00    -0.364 N 
HETATM   18  N2  UNL     1       1.634  20.983  12.974  1.00  0.00    -0.064 NA
HETATM   19  C1  UNL     1       3.601  23.201  14.651  1.00  0.00     0.151 C 
HETATM   20  C2  UNL     1       4.831  21.555  13.263  1.00  0.00     0.151 C 
ATOM     21  H3  UNL     1       1.475  19.664  15.148  1.00  0.00     0.162 HD
ENDBRANCH  14  15
ENDBRANCH  13  14
ENDBRANCH  12  13
ENDBRANCH   1  12
BRANCH  11  22
HETATM   22  C16 UNL     1       2.316  20.239  21.327  1.00  0.00     0.091 C 
HETATM   23  C17 UNL     1       2.383  21.704  21.156  1.00  0.00     0.025 C 
HETATM   24  C18 UNL     1       3.617  22.069  21.994  1.00  0.00     0.002 C 
HETATM   25  C19 UNL     1       4.350  20.757  22.251  1.00  0.00     0.002 C 
HETATM   26  C20 UNL     1       3.750  19.802  21.193  1.00  0.00     0.025 C 
ENDBRANCH  11  22
BRANCH   6  27
HETATM   27  C11 UNL     1      -1.073  15.741  19.315  1.00  0.00     0.037 C 
BRANCH  27  28
HETATM   28  C12 UNL     1      -0.426  14.425  19.458  1.00  0.00     0.022 C 
BRANCH  28  29
HETATM   29  C13 UNL     1      -1.356  13.406  18.764  1.00  0.00     0.122 C 
BRANCH  29  30
HETATM   30  N5  UNL     1      -1.727  13.865  17.460  1.00  0.00    -0.367 N 
HETATM   31  C14 UNL     1      -1.262  13.450  16.352  1.00  0.00     0.196 C 
HETATM   32  N6  UNL     1      -0.273  12.429  16.334  1.00  0.00    -0.067 NA
HETATM   33  N7  UNL     1      -1.761  14.036  15.150  1.00  0.00    -0.067 NA
ATOM     34  H5  UNL     1      -2.434  14.598  17.415  1.00  0.00     0.161 HD
ENDBRANCH  29  30
ENDBRANCH  28  29
ENDBRANCH  27  28
ENDBRANCH   6  27
TORSDOF 9
ENDMDL
MODEL 5
REMARK VINA RESULT: -6.737320710      1.033      1.453
REMARK  9 active torsions:
REMARK  status: ('A' for Active; 'I' for Inactive)
REMARK       I    between atoms: N1_2  and  C3_4 
REMARK    1  A    between atoms: N3_6  and  C4_8 
REMARK    2  A    between atoms: C4_8  and  C5_9 
REMARK    3  A    between atoms: C5_9  and  C6_10 
REMARK    4  A    between atoms: C6_10  and  C7_11 
REMARK    5  A    between atoms: C10_16  and  C11_17 
REMARK    6  A    between atoms: C11_17  and  C12_18 
REMARK    7  A    between atoms: C12_18  and  C13_19 
REMARK    8  A    between atoms: C13_19  and  N5_20 
REMARK    9  A    between atoms: N9_29  and  C16_30 
ROOT
HETATM    1  C7  UNL     1       1.122  19.957  19.210  1.00  0.00     0.193 C 
HETATM    2  N4  UNL     1      -0.151  19.389  18.859  1.00  0.00    -0.333 N 
HETATM    3  C8  UNL     1      -1.189  20.299  18.414  1.00  0.00     0.155 C 
HETATM    4  C9  UNL     1      -0.604  18.023  18.872  1.00  0.00     0.244 C 
HETATM    5  O1  UNL     1      -1.636  17.830  18.204  1.00  0.00    -0.271 OA
HETATM    6  C10 UNL     1       0.014  16.908  19.566  1.00  0.00     0.178 C 
HETATM    7  N8  UNL     1       0.472  17.311  20.890  1.00  0.00    -0.330 N 
ATOM      8  H8  UNL     1       0.409  16.584  21.602  1.00  0.00     0.165 HD
HETATM    9  C15 UNL     1       0.991  18.551  21.352  1.00  0.00     0.321 C 
HETATM   10  O2  UNL     1       1.001  18.731  22.616  1.00  0.00    -0.247 OA
HETATM   11  N9  UNL     1       1.511  19.640  20.599  1.00  0.00    -0.308 N 
ENDROOT
BRANCH   1  12
HETATM   12  C6  UNL     1       2.226  19.598  18.268  1.00  0.00     0.049 C 
BRANCH  12  13
HETATM   13  C5  UNL     1       2.207  20.270  16.947  1.00  0.00     0.023 C 
BRANCH  13  14
HETATM   14  C4  UNL     1       3.095  21.479  16.885  1.00  0.00     0.122 C 
BRANCH  14  15
HETATM   15  N3  UNL     1       4.286  21.314  17.720  1.00  0.00    -0.365 N 
HETATM   16  C3  UNL     1       4.938  22.390  18.021  1.00  0.00     0.185 C 
HETATM   17  N1  UNL     1       4.549  23.684  17.581  1.00  0.00    -0.364 N 
HETATM   18  N2  UNL     1       6.101  22.291  18.828  1.00  0.00    -0.064 NA
HETATM   19  C1  UNL     1       4.866  24.128  16.240  1.00  0.00     0.151 C 
HETATM   20  C2  UNL     1       3.831  24.600  18.443  1.00  0.00     0.151 C 
ATOM     21  H3  UNL     1       4.586  20.397  18.049  1.00  0.00     0.162 HD
ENDBRANCH  14  15
ENDBRANCH  13  14
ENDBRANCH  12  13
ENDBRANCH   1  12
BRANCH  11  22
HETATM   22  C16 UNL     1       2.461  20.486  21.199  1.00  0.00     0.091 C 
HETATM   23  C17 UNL     1       2.511  21.913  20.821  1.00  0.00     0.025 C 
HETATM   24  C18 UNL     1       3.720  22.416  21.624  1.00  0.00     0.002 C 
HETATM   25  C19 UNL     1       4.466  21.167  22.081  1.00  0.00     0.002 C 
HETATM   26  C20 UNL     1       3.905  20.060  21.158  1.00  0.00     0.025 C 
ENDBRANCH  11  22
BRANCH   6  27
HETATM   27  C11 UNL     1      -0.751  15.666  19.713  1.00  0.00     0.037 C 
BRANCH  27  28
HETATM   28  C12 UNL     1      -0.114  14.371  19.412  1.00  0.00     0.022 C 
BRANCH  28  29
HETATM   29  C13 UNL     1      -1.225  13.461  18.845  1.00  0.00     0.122 C 
BRANCH  29  30
HETATM   30  N5  UNL     1      -1.022  13.223  17.448  1.00  0.00    -0.367 N 
HETATM   31  C14 UNL     1      -1.574  13.845  16.487  1.00  0.00     0.196 C 
HETATM   32  N6  UNL     1      -2.496  14.893  16.756  1.00  0.00    -0.067 NA
HETATM   33  N7  UNL     1      -1.241  13.458  15.154  1.00  0.00    -0.067 NA
ATOM     34  H5  UNL     1      -0.369  12.481  17.199  1.00  0.00     0.161 HD
ENDBRANCH  29  30
ENDBRANCH  28  29
ENDBRANCH  27  28
ENDBRANCH   6  27
TORSDOF 9
ENDMDL
