MODEL 1
REMARK VINA RESULT: -3.959082746      0.000      0.000
REMARK  0 active torsions:
REMARK  status: ('A' for Active; 'I' for Inactive)
ROOT
HETATM    1  C1  UNL     1      50.808  70.998 -31.485  1.00  0.00     0.302 C 
HETATM    2  N1  UNL     1      51.689  70.029 -30.880  1.00  0.00     0.005 N 
HETATM    3  C2  UNL     1      53.112  70.271 -31.106  1.00  0.00     0.270 C 
HETATM    4  C3  UNL     1      53.326  69.648 -29.721  1.00  0.00     0.044 C 
HETATM    5  C4  UNL     1      53.262  68.156 -29.784  1.00  0.00     0.029 C 
HETATM    6  C5  UNL     1      52.246  67.729 -30.792  1.00  0.00     0.147 C 
HETATM    7  N2  UNL     1      51.386  68.758 -31.259  1.00  0.00    -0.253 N 
ATOM      8  H2  UNL     1      50.580  68.554 -31.850  1.00  0.00     0.187 HD
HETATM    9  C6  UNL     1      51.937  70.213 -29.474  1.00  0.00     0.270 C 
ENDROOT
TORSDOF 0
ENDMDL
MODEL 2
REMARK VINA RESULT: -3.530492419      1.956      2.754
REMARK  0 active torsions:
REMARK  status: ('A' for Active; 'I' for Inactive)
ROOT
HETATM    1  C1  UNL     1      53.807  71.463 -28.276  1.00  0.00     0.302 C 
HETATM    2  N1  UNL     1      53.412  70.187 -28.820  1.00  0.00     0.005 N 
HETATM    3  C2  UNL     1      51.992  70.073 -29.146  1.00  0.00     0.270 C 
HETATM    4  C3  UNL     1      52.439  69.141 -30.279  1.00  0.00     0.044 C 
HETATM    5  C4  UNL     1      52.739  67.770 -29.764  1.00  0.00     0.029 C 
HETATM    6  C5  UNL     1      53.350  67.856 -28.404  1.00  0.00     0.147 C 
HETATM    7  N2  UNL     1      53.768  69.154 -28.008  1.00  0.00    -0.253 N 
ATOM      8  H2  UNL     1      54.308  69.306 -27.156  1.00  0.00     0.187 HD
HETATM    9  C6  UNL     1      53.693  69.998 -30.219  1.00  0.00     0.270 C 
ENDROOT
TORSDOF 0
ENDMDL
MODEL 3
REMARK VINA RESULT: -3.508301815      0.874      2.727
REMARK  0 active torsions:
REMARK  status: ('A' for Active; 'I' for Inactive)
ROOT
HETATM    1  C1  UNL     1      52.133  68.024 -30.744  1.00  0.00     0.302 C 
HETATM    2  N1  UNL     1      51.983  69.458 -30.756  1.00  0.00     0.005 N 
HETATM    3  C2  UNL     1      51.989  70.087 -29.437  1.00  0.00     0.270 C 
HETATM    4  C3  UNL     1      52.649  71.285 -30.132  1.00  0.00     0.044 C 
HETATM    5  C4  UNL     1      51.637  72.115 -30.854  1.00  0.00     0.029 C 
HETATM    6  C5  UNL     1      50.575  71.238 -31.434  1.00  0.00     0.147 C 
HETATM    7  N2  UNL     1      50.869  69.849 -31.433  1.00  0.00    -0.253 N 
ATOM      8  H2  UNL     1      50.273  69.176 -31.915  1.00  0.00     0.187 HD
HETATM    9  C6  UNL     1      53.180  70.202 -31.055  1.00  0.00     0.270 C 
ENDROOT
TORSDOF 0
ENDMDL
MODEL 4
REMARK VINA RESULT: -3.338343044      1.237      2.662
REMARK  0 active torsions:
REMARK  status: ('A' for Active; 'I' for Inactive)
ROOT
HETATM    1  C1  UNL     1      52.746  67.673 -30.386  1.00  0.00     0.302 C 
HETATM    2  N1  UNL     1      52.825  69.108 -30.497  1.00  0.00     0.005 N 
HETATM    3  C2  UNL     1      51.829  69.839 -29.717  1.00  0.00     0.270 C 
HETATM    4  C3  UNL     1      52.902  70.926 -29.569  1.00  0.00     0.044 C 
HETATM    5  C4  UNL     1      52.992  71.766 -30.802  1.00  0.00     0.029 C 
HETATM    6  C5  UNL     1      52.754  70.926 -32.014  1.00  0.00     0.147 C 
HETATM    7  N2  UNL     1      52.772  69.524 -31.792  1.00  0.00    -0.253 N 
ATOM      8  H2  UNL     1      52.745  68.860 -32.566  1.00  0.00     0.187 HD
HETATM    9  C6  UNL     1      53.838  69.735 -29.688  1.00  0.00     0.270 C 
ENDROOT
TORSDOF 0
ENDMDL
MODEL 5
REMARK VINA RESULT: -3.333052260      6.413      7.308
REMARK  0 active torsions:
REMARK  status: ('A' for Active; 'I' for Inactive)
ROOT
HETATM    1  C1  UNL     1      46.707  74.268 -28.456  1.00  0.00     0.302 C 
HETATM    2  N1  UNL     1      47.388  73.693 -27.322  1.00  0.00     0.005 N 
HETATM    3  C2  UNL     1      47.043  74.289 -26.034  1.00  0.00     0.270 C 
HETATM    4  C3  UNL     1      47.280  72.891 -25.448  1.00  0.00     0.044 C 
HETATM    5  C4  UNL     1      48.739  72.620 -25.271  1.00  0.00     0.029 C 
HETATM    6  C5  UNL     1      49.516  73.250 -26.380  1.00  0.00     0.147 C 
HETATM    7  N2  UNL     1      48.740  73.713 -27.476  1.00  0.00    -0.253 N 
ATOM      8  H2  UNL     1      49.176  74.044 -28.337  1.00  0.00     0.187 HD
HETATM    9  C6  UNL     1      46.840  72.454 -26.835  1.00  0.00     0.270 C 
ENDROOT
TORSDOF 0
ENDMDL
