MODEL 1
REMARK VINA RESULT: -7.024033970      0.000      0.000
REMARK  11 active torsions:
REMARK  status: ('A' for Active; 'I' for Inactive)
REMARK    1  A    between atoms: C2_3  and  O1_4 
REMARK    2  A    between atoms: C2_3  and  C3_6 
REMARK    3  A    between atoms: C4_8  and  C5_9 
REMARK    4  A    between atoms: C5_9  and  C6_10 
REMARK    5  A    between atoms: C5_9  and  C13_20 
REMARK    6  A    between atoms: C6_10  and  C7_11 
REMARK    7  A    between atoms: N2_14  and  C10_15 
REMARK    8  A    between atoms: C10_15  and  O3_17 
REMARK       I    between atoms: C13_20  and  N3_22 
REMARK    9  A    between atoms: N3_22  and  C14_24 
REMARK   10  A    between atoms: C14_24  and  C15_25 
REMARK   11  A    between atoms: C15_25  and  N4_26 
REMARK       I    between atoms: N4_26  and  C16_28 
REMARK       I    between atoms: C16_28  and  N6_32 
ROOT
HETATM    1  C1  UNL     1      -2.512  12.914  15.298  1.00  0.00     0.231 C 
HETATM    2  N1  UNL     1      -1.887  12.642  16.265  1.00  0.00    -0.406 NA
HETATM    3  C2  UNL     1      -1.189  12.336  17.345  1.00  0.00     0.220 C 
ENDROOT
BRANCH   3   4
HETATM    4  O1  UNL     1      -0.216  11.450  17.146  1.00  0.00    -0.337 OA
ATOM      5  H1  UNL     1       0.651  11.828  17.049  1.00  0.00     0.220 HD
ENDBRANCH   3   4
BRANCH   3   6
HETATM    6  C3  UNL     1      -1.280  12.792  18.714  1.00  0.00     0.240 A 
HETATM    7  O2  UNL     1      -0.055  13.173  19.271  1.00  0.00    -0.365 OA
HETATM    8  C4  UNL     1      -1.149  14.049  19.356  1.00  0.00     0.173 A 
BRANCH   8   9
HETATM    9  C5  UNL     1      -1.135  15.439  18.920  1.00  0.00     0.112 C 
BRANCH   9  10
HETATM   10  C6  UNL     1      -2.320  16.335  19.122  1.00  0.00     0.050 C 
BRANCH  10  11
HETATM   11  C7  UNL     1      -3.028  16.717  17.884  1.00  0.00     0.201 C 
HETATM   12  C8  UNL     1      -4.466  17.104  17.950  1.00  0.00     0.069 C 
HETATM   13  C9  UNL     1      -3.958  18.410  18.390  1.00  0.00     0.249 C 
HETATM   14  C12 UNL     1      -4.149  17.663  16.591  1.00  0.00     0.249 C 
HETATM   15  N2  UNL     1      -2.990  18.063  17.416  1.00  0.00    -0.036 N 
BRANCH  15  16
HETATM   16  C10 UNL     1      -1.976  18.765  16.967  1.00  0.00     0.319 C 
HETATM   17  C11 UNL     1      -1.348  19.643  18.060  1.00  0.00     0.071 C 
BRANCH  16  18
HETATM   18  O3  UNL     1      -0.909  17.963  16.494  1.00  0.00    -0.370 OA
ATOM     19  H3  UNL     1      -0.274  18.450  15.982  1.00  0.00     0.212 HD
ENDBRANCH  16  18
ENDBRANCH  15  16
ENDBRANCH  10  11
ENDBRANCH   9  10
BRANCH   9  20
HETATM   20  C13 UNL     1       0.108  16.170  19.401  1.00  0.00     0.224 C 
HETATM   21  O4  UNL     1       0.460  16.011  20.579  1.00  0.00    -0.273 OA
HETATM   22  N3  UNL     1       0.863  17.013  18.555  1.00  0.00    -0.359 N 
ATOM     23  H3  UNL     1       0.544  17.120  17.592  1.00  0.00     0.162 HD
BRANCH  22  24
HETATM   24  C14 UNL     1       2.033  17.727  18.939  1.00  0.00     0.143 C 
BRANCH  24  25
HETATM   25  C15 UNL     1       2.382  18.865  18.021  1.00  0.00     0.157 C 
BRANCH  25  26
HETATM   26  N4  UNL     1       2.204  18.516  16.633  1.00  0.00    -0.225 N 
HETATM   27  C16 UNL     1       2.189  19.473  15.591  1.00  0.00     0.669 C 
HETATM   28  N5  UNL     1       1.044  19.813  15.097  1.00  0.00    -0.235 N 
HETATM   29  N6  UNL     1       3.372  20.065  15.075  1.00  0.00    -0.218 N 
ATOM     30  H52 UNL     1       0.194  19.388  15.468  1.00  0.00     0.174 HD
ATOM     31  H51 UNL     1       1.033  20.503  14.346  1.00  0.00     0.174 HD
HETATM   32  C17 UNL     1       4.520  19.278  14.695  1.00  0.00     0.141 C 
HETATM   33  C21 UNL     1       3.438  21.503  14.924  1.00  0.00     0.141 C 
HETATM   34  C18 UNL     1       4.737  19.422  13.216  1.00  0.00     0.020 C 
HETATM   35  C19 UNL     1       4.073  20.671  12.686  1.00  0.00     0.003 C 
HETATM   36  C20 UNL     1       4.187  21.836  13.653  1.00  0.00     0.020 C 
ATOM     37  H4  UNL     1       2.083  17.532  16.390  1.00  0.00     0.177 HD
ENDBRANCH  25  26
ENDBRANCH  24  25
ENDBRANCH  22  24
ENDBRANCH   9  20
ENDBRANCH   8   9
ENDBRANCH   3   6
TORSDOF 11
ENDMDL
MODEL 2
REMARK VINA RESULT: -6.834751114      1.350      1.624
REMARK  11 active torsions:
REMARK  status: ('A' for Active; 'I' for Inactive)
REMARK    1  A    between atoms: C2_3  and  O1_4 
REMARK    2  A    between atoms: C2_3  and  C3_6 
REMARK    3  A    between atoms: C4_8  and  C5_9 
REMARK    4  A    between atoms: C5_9  and  C6_10 
REMARK    5  A    between atoms: C5_9  and  C13_20 
REMARK    6  A    between atoms: C6_10  and  C7_11 
REMARK    7  A    between atoms: N2_14  and  C10_15 
REMARK    8  A    between atoms: C10_15  and  O3_17 
REMARK       I    between atoms: C13_20  and  N3_22 
REMARK    9  A    between atoms: N3_22  and  C14_24 
REMARK   10  A    between atoms: C14_24  and  C15_25 
REMARK   11  A    between atoms: C15_25  and  N4_26 
REMARK       I    between atoms: N4_26  and  C16_28 
REMARK       I    between atoms: C16_28  and  N6_32 
ROOT
HETATM    1  C1  UNL     1      -2.105  12.224  15.233  1.00  0.00     0.231 C 
HETATM    2  N1  UNL     1      -1.606  12.333  16.301  1.00  0.00    -0.406 NA
HETATM    3  C2  UNL     1      -1.050  12.453  17.494  1.00  0.00     0.220 C 
ENDROOT
BRANCH   3   4
HETATM    4  O1  UNL     1       0.143  11.877  17.611  1.00  0.00    -0.337 OA
ATOM      5  H1  UNL     1       0.881  12.471  17.524  1.00  0.00     0.220 HD
ENDBRANCH   3   4
BRANCH   3   6
HETATM    6  C3  UNL     1      -1.495  13.105  18.705  1.00  0.00     0.240 A 
HETATM    7  O2  UNL     1      -0.484  13.781  19.394  1.00  0.00    -0.365 OA
HETATM    8  C4  UNL     1      -1.681  14.453  19.100  1.00  0.00     0.173 A 
BRANCH   8   9
HETATM    9  C5  UNL     1      -1.766  15.733  18.410  1.00  0.00     0.112 C 
BRANCH   9  10
HETATM   10  C6  UNL     1      -2.782  16.766  18.798  1.00  0.00     0.050 C 
BRANCH  10  11
HETATM   11  C7  UNL     1      -3.875  16.959  17.823  1.00  0.00     0.201 C 
HETATM   12  C8  UNL     1      -5.138  17.621  18.257  1.00  0.00     0.069 C 
HETATM   13  C9  UNL     1      -4.387  18.871  18.081  1.00  0.00     0.249 C 
HETATM   14  C12 UNL     1      -5.318  17.754  16.771  1.00  0.00     0.249 C 
HETATM   15  N2  UNL     1      -3.901  18.113  16.988  1.00  0.00    -0.036 N 
BRANCH  15  16
HETATM   16  C10 UNL     1      -3.079  18.472  16.029  1.00  0.00     0.319 C 
HETATM   17  C11 UNL     1      -1.938  19.363  16.545  1.00  0.00     0.071 C 
BRANCH  16  18
HETATM   18  O3  UNL     1      -2.427  17.375  15.414  1.00  0.00    -0.370 OA
ATOM     19  H3  UNL     1      -1.806  17.637  14.744  1.00  0.00     0.212 HD
ENDBRANCH  16  18
ENDBRANCH  15  16
ENDBRANCH  10  11
ENDBRANCH   9  10
BRANCH   9  20
HETATM   20  C13 UNL     1      -0.410  16.411  18.304  1.00  0.00     0.224 C 
HETATM   21  O4  UNL     1       0.007  16.711  17.176  1.00  0.00    -0.273 OA
HETATM   22  N3  UNL     1       0.379  16.703  19.440  1.00  0.00    -0.359 N 
ATOM     23  H3  UNL     1       0.004  16.441  20.352  1.00  0.00     0.162 HD
BRANCH  22  24
HETATM   24  C14 UNL     1       1.655  17.333  19.413  1.00  0.00     0.143 C 
BRANCH  24  25
HETATM   25  C15 UNL     1       1.598  18.831  19.526  1.00  0.00     0.157 C 
BRANCH  25  26
HETATM   26  N4  UNL     1       1.244  19.455  18.275  1.00  0.00    -0.225 N 
HETATM   27  C16 UNL     1       2.097  20.351  17.590  1.00  0.00     0.669 C 
HETATM   28  N5  UNL     1       1.845  21.616  17.677  1.00  0.00    -0.235 N 
HETATM   29  N6  UNL     1       3.209  19.916  16.819  1.00  0.00    -0.218 N 
ATOM     30  H52 UNL     1       1.047  21.928  18.230  1.00  0.00     0.174 HD
ATOM     31  H51 UNL     1       2.461  22.262  17.183  1.00  0.00     0.174 HD
HETATM   32  C17 UNL     1       3.098  18.857  15.845  1.00  0.00     0.141 C 
HETATM   33  C21 UNL     1       4.497  20.547  17.012  1.00  0.00     0.141 C 
HETATM   34  C18 UNL     1       3.370  19.426  14.481  1.00  0.00     0.020 C 
HETATM   35  C19 UNL     1       4.146  20.719  14.573  1.00  0.00     0.003 C 
HETATM   36  C20 UNL     1       5.189  20.684  15.675  1.00  0.00     0.020 C 
ATOM     37  H4  UNL     1       0.335  19.241  17.864  1.00  0.00     0.177 HD
ENDBRANCH  25  26
ENDBRANCH  24  25
ENDBRANCH  22  24
ENDBRANCH   9  20
ENDBRANCH   8   9
ENDBRANCH   3   6
TORSDOF 11
ENDMDL
MODEL 3
REMARK VINA RESULT: -6.697877836      1.450      1.766
REMARK  11 active torsions:
REMARK  status: ('A' for Active; 'I' for Inactive)
REMARK    1  A    between atoms: C2_3  and  O1_4 
REMARK    2  A    between atoms: C2_3  and  C3_6 
REMARK    3  A    between atoms: C4_8  and  C5_9 
REMARK    4  A    between atoms: C5_9  and  C6_10 
REMARK    5  A    between atoms: C5_9  and  C13_20 
REMARK    6  A    between atoms: C6_10  and  C7_11 
REMARK    7  A    between atoms: N2_14  and  C10_15 
REMARK    8  A    between atoms: C10_15  and  O3_17 
REMARK       I    between atoms: C13_20  and  N3_22 
REMARK    9  A    between atoms: N3_22  and  C14_24 
REMARK   10  A    between atoms: C14_24  and  C15_25 
REMARK   11  A    between atoms: C15_25  and  N4_26 
REMARK       I    between atoms: N4_26  and  C16_28 
REMARK       I    between atoms: C16_28  and  N6_32 
ROOT
HETATM    1  C1  UNL     1      -2.348  12.603  15.320  1.00  0.00     0.231 C 
HETATM    2  N1  UNL     1      -1.717  12.623  16.320  1.00  0.00    -0.406 NA
HETATM    3  C2  UNL     1      -1.013  12.646  17.439  1.00  0.00     0.220 C 
ENDROOT
BRANCH   3   4
HETATM    4  O1  UNL     1       0.050  11.846  17.443  1.00  0.00    -0.337 OA
ATOM      5  H1  UNL     1      -0.095  10.991  17.054  1.00  0.00     0.220 HD
ENDBRANCH   3   4
BRANCH   3   6
HETATM    6  C3  UNL     1      -1.178  13.388  18.669  1.00  0.00     0.240 A 
HETATM    7  O2  UNL     1      -0.056  13.367  19.502  1.00  0.00    -0.365 OA
HETATM    8  C4  UNL     1      -0.648  14.599  19.180  1.00  0.00     0.173 A 
BRANCH   8   9
HETATM    9  C5  UNL     1       0.062  15.739  18.617  1.00  0.00     0.112 C 
BRANCH   9  10
HETATM   10  C6  UNL     1      -0.653  16.794  17.826  1.00  0.00     0.050 C 
BRANCH  10  11
HETATM   11  C7  UNL     1      -2.110  16.866  18.062  1.00  0.00     0.201 C 
HETATM   12  C8  UNL     1      -2.622  17.544  19.287  1.00  0.00     0.069 C 
HETATM   13  C9  UNL     1      -2.404  18.785  18.531  1.00  0.00     0.249 C 
HETATM   14  C12 UNL     1      -3.899  17.522  18.496  1.00  0.00     0.249 C 
HETATM   15  N2  UNL     1      -2.879  17.929  17.507  1.00  0.00    -0.036 N 
BRANCH  15  16
HETATM   16  C10 UNL     1      -3.143  18.205  16.251  1.00  0.00     0.319 C 
HETATM   17  C11 UNL     1      -2.356  19.425  15.747  1.00  0.00     0.071 C 
BRANCH  16  18
HETATM   18  O3  UNL     1      -2.788  17.158  15.364  1.00  0.00    -0.370 OA
ATOM     19  H3  UNL     1      -2.780  17.427  14.453  1.00  0.00     0.212 HD
ENDBRANCH  16  18
ENDBRANCH  15  16
ENDBRANCH  10  11
ENDBRANCH   9  10
BRANCH   9  20
HETATM   20  C13 UNL     1       0.940  16.426  19.650  1.00  0.00     0.224 C 
HETATM   21  O4  UNL     1       0.609  16.348  20.842  1.00  0.00    -0.273 OA
HETATM   22  N3  UNL     1       2.106  17.141  19.295  1.00  0.00    -0.359 N 
ATOM     23  H3  UNL     1       2.347  17.183  18.304  1.00  0.00     0.162 HD
BRANCH  22  24
HETATM   24  C14 UNL     1       2.971  17.806  20.208  1.00  0.00     0.143 C 
BRANCH  24  25
HETATM   25  C15 UNL     1       3.002  19.300  20.041  1.00  0.00     0.157 C 
BRANCH  25  26
HETATM   26  N4  UNL     1       2.163  19.741  18.953  1.00  0.00    -0.225 N 
HETATM   27  C16 UNL     1       2.639  20.535  17.884  1.00  0.00     0.669 C 
HETATM   28  N5  UNL     1       2.366  21.798  17.898  1.00  0.00    -0.235 N 
HETATM   29  N6  UNL     1       3.397  20.001  16.808  1.00  0.00    -0.218 N 
ATOM     30  H52 UNL     1       1.821  22.182  18.670  1.00  0.00     0.174 HD
ATOM     31  H51 UNL     1       2.709  22.371  17.127  1.00  0.00     0.174 HD
HETATM   32  C17 UNL     1       2.986  18.815  16.095  1.00  0.00     0.141 C 
HETATM   33  C21 UNL     1       4.623  20.657  16.408  1.00  0.00     0.141 C 
HETATM   34  C18 UNL     1       2.685  19.187  14.672  1.00  0.00     0.020 C 
HETATM   35  C19 UNL     1       3.362  20.483  14.291  1.00  0.00     0.003 C 
HETATM   36  C20 UNL     1       4.746  20.608  14.902  1.00  0.00     0.020 C 
ATOM     37  H4  UNL     1       1.181  19.467  18.955  1.00  0.00     0.177 HD
ENDBRANCH  25  26
ENDBRANCH  24  25
ENDBRANCH  22  24
ENDBRANCH   9  20
ENDBRANCH   8   9
ENDBRANCH   3   6
TORSDOF 11
ENDMDL
MODEL 4
REMARK VINA RESULT: -6.643904091      1.485      1.693
REMARK  11 active torsions:
REMARK  status: ('A' for Active; 'I' for Inactive)
REMARK    1  A    between atoms: C2_3  and  O1_4 
REMARK    2  A    between atoms: C2_3  and  C3_6 
REMARK    3  A    between atoms: C4_8  and  C5_9 
REMARK    4  A    between atoms: C5_9  and  C6_10 
REMARK    5  A    between atoms: C5_9  and  C13_20 
REMARK    6  A    between atoms: C6_10  and  C7_11 
REMARK    7  A    between atoms: N2_14  and  C10_15 
REMARK    8  A    between atoms: C10_15  and  O3_17 
REMARK       I    between atoms: C13_20  and  N3_22 
REMARK    9  A    between atoms: N3_22  and  C14_24 
REMARK   10  A    between atoms: C14_24  and  C15_25 
REMARK   11  A    between atoms: C15_25  and  N4_26 
REMARK       I    between atoms: N4_26  and  C16_28 
REMARK       I    between atoms: C16_28  and  N6_32 
ROOT
HETATM    1  C1  UNL     1      -1.997  12.183  15.226  1.00  0.00     0.231 C 
HETATM    2  N1  UNL     1      -1.483  12.240  16.291  1.00  0.00    -0.406 NA
HETATM    3  C2  UNL     1      -0.911  12.303  17.480  1.00  0.00     0.220 C 
ENDROOT
BRANCH   3   4
HETATM    4  O1  UNL     1       0.256  11.670  17.570  1.00  0.00    -0.337 OA
ATOM      5  H1  UNL     1       0.964  12.070  17.079  1.00  0.00     0.220 HD
ENDBRANCH   3   4
BRANCH   3   6
HETATM    6  C3  UNL     1      -1.313  12.942  18.713  1.00  0.00     0.240 A 
HETATM    7  O2  UNL     1      -0.281  13.620  19.368  1.00  0.00    -0.365 OA
HETATM    8  C4  UNL     1      -1.493  14.286  19.126  1.00  0.00     0.173 A 
BRANCH   8   9
HETATM    9  C5  UNL     1      -1.614  15.571  18.450  1.00  0.00     0.112 C 
BRANCH   9  10
HETATM   10  C6  UNL     1      -2.675  16.560  18.831  1.00  0.00     0.050 C 
BRANCH  10  11
HETATM   11  C7  UNL     1      -3.556  16.981  17.723  1.00  0.00     0.201 C 
HETATM   12  C8  UNL     1      -4.968  17.364  18.014  1.00  0.00     0.069 C 
HETATM   13  C9  UNL     1      -4.396  18.656  18.418  1.00  0.00     0.249 C 
HETATM   14  C12 UNL     1      -4.853  17.969  16.643  1.00  0.00     0.249 C 
HETATM   15  N2  UNL     1      -3.583  18.343  17.301  1.00  0.00    -0.036 N 
BRANCH  15  16
HETATM   16  C10 UNL     1      -2.644  19.061  16.730  1.00  0.00     0.319 C 
HETATM   17  C11 UNL     1      -1.728  19.742  17.759  1.00  0.00     0.071 C 
BRANCH  16  18
HETATM   18  O3  UNL     1      -1.768  18.293  15.923  1.00  0.00    -0.370 OA
ATOM     19  H3  UNL     1      -1.030  18.792  15.595  1.00  0.00     0.212 HD
ENDBRANCH  16  18
ENDBRANCH  15  16
ENDBRANCH  10  11
ENDBRANCH   9  10
BRANCH   9  20
HETATM   20  C13 UNL     1      -0.282  16.300  18.377  1.00  0.00     0.224 C 
HETATM   21  O4  UNL     1       0.154  16.610  17.259  1.00  0.00    -0.273 OA
HETATM   22  N3  UNL     1       0.463  16.628  19.532  1.00  0.00    -0.359 N 
ATOM     23  H3  UNL     1       0.073  16.358  20.435  1.00  0.00     0.162 HD
BRANCH  22  24
HETATM   24  C14 UNL     1       1.714  17.307  19.537  1.00  0.00     0.143 C 
BRANCH  24  25
HETATM   25  C15 UNL     1       1.655  18.698  18.971  1.00  0.00     0.157 C 
BRANCH  25  26
HETATM   26  N4  UNL     1       2.314  18.791  17.691  1.00  0.00    -0.225 N 
HETATM   27  C16 UNL     1       1.839  19.603  16.635  1.00  0.00     0.669 C 
HETATM   28  N5  UNL     1       1.207  19.029  15.665  1.00  0.00    -0.235 N 
HETATM   29  N6  UNL     1       2.031  21.010  16.602  1.00  0.00    -0.218 N 
ATOM     30  H52 UNL     1       1.069  18.018  15.689  1.00  0.00     0.174 HD
ATOM     31  H51 UNL     1       0.865  19.614  14.903  1.00  0.00     0.174 HD
HETATM   32  C17 UNL     1       3.320  21.614  16.842  1.00  0.00     0.141 C 
HETATM   33  C21 UNL     1       0.905  21.874  16.321  1.00  0.00     0.141 C 
HETATM   34  C18 UNL     1       3.769  22.308  15.589  1.00  0.00     0.020 C 
HETATM   35  C19 UNL     1       2.600  22.609  14.682  1.00  0.00     0.003 C 
HETATM   36  C20 UNL     1       1.364  23.027  15.458  1.00  0.00     0.020 C 
ATOM     37  H4  UNL     1       3.162  18.245  17.541  1.00  0.00     0.177 HD
ENDBRANCH  25  26
ENDBRANCH  24  25
ENDBRANCH  22  24
ENDBRANCH   9  20
ENDBRANCH   8   9
ENDBRANCH   3   6
TORSDOF 11
ENDMDL
MODEL 5
REMARK VINA RESULT: -6.629718119      1.777      2.308
REMARK  11 active torsions:
REMARK  status: ('A' for Active; 'I' for Inactive)
REMARK    1  A    between atoms: C2_3  and  O1_4 
REMARK    2  A    between atoms: C2_3  and  C3_6 
REMARK    3  A    between atoms: C4_8  and  C5_9 
REMARK    4  A    between atoms: C5_9  and  C6_10 
REMARK    5  A    between atoms: C5_9  and  C13_20 
REMARK    6  A    between atoms: C6_10  and  C7_11 
REMARK    7  A    between atoms: N2_14  and  C10_15 
REMARK    8  A    between atoms: C10_15  and  O3_17 
REMARK       I    between atoms: C13_20  and  N3_22 
REMARK    9  A    between atoms: N3_22  and  C14_24 
REMARK   10  A    between atoms: C14_24  and  C15_25 
REMARK   11  A    between atoms: C15_25  and  N4_26 
REMARK       I    between atoms: N4_26  and  C16_28 
REMARK       I    between atoms: C16_28  and  N6_32 
ROOT
HETATM    1  C1  UNL     1      -2.201  12.565  15.005  1.00  0.00     0.231 C 
HETATM    2  N1  UNL     1      -1.670  12.417  16.052  1.00  0.00    -0.406 NA
HETATM    3  C2  UNL     1      -1.077  12.251  17.222  1.00  0.00     0.220 C 
ENDROOT
BRANCH   3   4
HETATM    4  O1  UNL     1      -0.062  11.392  17.214  1.00  0.00    -0.337 OA
ATOM      5  H1  UNL     1      -0.315  10.479  17.137  1.00  0.00     0.220 HD
ENDBRANCH   3   4
BRANCH   3   6
HETATM    6  C3  UNL     1      -1.323  12.839  18.520  1.00  0.00     0.240 A 
HETATM    7  O2  UNL     1      -0.196  13.427  19.102  1.00  0.00    -0.365 OA
HETATM    8  C4  UNL     1      -1.388  14.164  19.017  1.00  0.00     0.173 A 
BRANCH   8   9
HETATM    9  C5  UNL     1      -1.504  15.490  18.423  1.00  0.00     0.112 C 
BRANCH   9  10
HETATM   10  C6  UNL     1      -2.605  16.429  18.816  1.00  0.00     0.050 C 
BRANCH  10  11
HETATM   11  C7  UNL     1      -3.478  16.861  17.706  1.00  0.00     0.201 C 
HETATM   12  C8  UNL     1      -4.892  17.240  17.990  1.00  0.00     0.069 C 
HETATM   13  C9  UNL     1      -4.323  18.529  18.408  1.00  0.00     0.249 C 
HETATM   14  C12 UNL     1      -4.767  17.857  16.624  1.00  0.00     0.249 C 
HETATM   15  N2  UNL     1      -3.502  18.225  17.294  1.00  0.00    -0.036 N 
BRANCH  15  16
HETATM   16  C10 UNL     1      -2.559  18.948  16.737  1.00  0.00     0.319 C 
HETATM   17  C11 UNL     1      -1.647  19.616  17.778  1.00  0.00     0.071 C 
BRANCH  16  18
HETATM   18  O3  UNL     1      -1.681  18.189  15.926  1.00  0.00    -0.370 OA
ATOM     19  H3  UNL     1      -0.895  18.663  15.681  1.00  0.00     0.212 HD
ENDBRANCH  16  18
ENDBRANCH  15  16
ENDBRANCH  10  11
ENDBRANCH   9  10
BRANCH   9  20
HETATM   20  C13 UNL     1      -0.187  16.247  18.467  1.00  0.00     0.224 C 
HETATM   21  O4  UNL     1       0.245  16.728  17.410  1.00  0.00    -0.273 OA
HETATM   22  N3  UNL     1       0.548  16.414  19.662  1.00  0.00    -0.359 N 
ATOM     23  H3  UNL     1       0.162  16.004  20.513  1.00  0.00     0.162 HD
BRANCH  22  24
HETATM   24  C14 UNL     1       1.785  17.108  19.775  1.00  0.00     0.143 C 
BRANCH  24  25
HETATM   25  C15 UNL     1       1.693  18.398  20.542  1.00  0.00     0.157 C 
BRANCH  25  26
HETATM   26  N4  UNL     1       1.435  19.525  19.679  1.00  0.00    -0.225 N 
HETATM   27  C16 UNL     1       2.407  20.507  19.379  1.00  0.00     0.669 C 
HETATM   28  N5  UNL     1       2.331  21.643  19.991  1.00  0.00    -0.235 N 
HETATM   29  N6  UNL     1       3.452  20.293  18.441  1.00  0.00    -0.218 N 
ATOM     30  H52 UNL     1       1.580  21.797  20.665  1.00  0.00     0.174 HD
ATOM     31  H51 UNL     1       3.032  22.351  19.776  1.00  0.00     0.174 HD
HETATM   32  C17 UNL     1       3.202  19.757  17.125  1.00  0.00     0.141 C 
HETATM   33  C21 UNL     1       4.814  20.617  18.809  1.00  0.00     0.141 C 
HETATM   34  C18 UNL     1       3.557  20.800  16.104  1.00  0.00     0.020 C 
HETATM   35  C19 UNL     1       4.503  21.828  16.679  1.00  0.00     0.003 C 
HETATM   36  C20 UNL     1       5.526  21.207  17.613  1.00  0.00     0.020 C 
ATOM     37  H4  UNL     1       0.507  19.617  19.264  1.00  0.00     0.177 HD
ENDBRANCH  25  26
ENDBRANCH  24  25
ENDBRANCH  22  24
ENDBRANCH   9  20
ENDBRANCH   8   9
ENDBRANCH   3   6
TORSDOF 11
ENDMDL
