MODEL 1
REMARK VINA RESULT: -5.064522462      0.000      0.000
REMARK  2 active torsions:
REMARK  status: ('A' for Active; 'I' for Inactive)
REMARK    1  A    between atoms: C5_5  and  C6_6 
REMARK    2  A    between atoms: C6_6  and  N1_7 
ROOT
HETATM    1  C1  UNL     1      52.300  71.533 -31.959  1.00  0.00     0.014 C 
HETATM    2  C2  UNL     1      52.187  70.440 -31.440  1.00  0.00    -0.084 C 
HETATM    3  C3  UNL     1      52.037  69.114 -30.822  1.00  0.00     0.265 C 
HETATM    4  C4  UNL     1      52.700  68.979 -29.474  1.00  0.00     0.081 C 
HETATM    5  C5  UNL     1      53.325  67.761 -30.071  1.00  0.00     0.209 C 
HETATM    6  N3  UNL     1      52.950  68.170 -31.412  1.00  0.00    -0.054 N 
ATOM      7  H31 UNL     1      53.658  68.477 -32.081  1.00  0.00     0.279 HD
ATOM      8  H32 UNL     1      52.624  67.486 -32.093  1.00  0.00     0.279 HD
ENDROOT
BRANCH   5   9
HETATM    9  C6  UNL     1      52.631  66.456 -29.723  1.00  0.00     0.172 C 
BRANCH   9  10
HETATM   10  N1  UNL     1      53.470  65.711 -28.856  1.00  0.00    -0.341 N 
HETATM   11  N2  UNL     1      53.067  64.961 -27.948  1.00  0.00    -0.349 N 
ATOM     12  H22 UNL     1      52.056  64.888 -27.832  1.00  0.00     0.176 HD
ATOM     13  H21 UNL     1      53.671  64.425 -27.324  1.00  0.00     0.176 HD
ATOM     14  H1  UNL     1      54.478  65.797 -28.986  1.00  0.00     0.179 HD
ENDBRANCH   9  10
ENDBRANCH   5   9
TORSDOF 2
ENDMDL
MODEL 2
REMARK VINA RESULT: -4.882240507      1.119      1.231
REMARK  2 active torsions:
REMARK  status: ('A' for Active; 'I' for Inactive)
REMARK    1  A    between atoms: C5_5  and  C6_6 
REMARK    2  A    between atoms: C6_6  and  N1_7 
ROOT
HETATM    1  C1  UNL     1      52.114  71.437 -31.922  1.00  0.00     0.014 C 
HETATM    2  C2  UNL     1      52.634  70.494 -31.357  1.00  0.00    -0.084 C 
HETATM    3  C3  UNL     1      53.273  69.363 -30.670  1.00  0.00     0.265 C 
HETATM    4  C4  UNL     1      52.827  68.007 -31.155  1.00  0.00     0.081 C 
HETATM    5  C5  UNL     1      52.587  67.734 -29.707  1.00  0.00     0.209 C 
HETATM    6  N3  UNL     1      52.673  69.145 -29.379  1.00  0.00    -0.054 N 
ATOM      7  H31 UNL     1      51.844  69.666 -29.095  1.00  0.00     0.279 HD
ATOM      8  H32 UNL     1      53.142  69.454 -28.528  1.00  0.00     0.279 HD
ENDROOT
BRANCH   5   9
HETATM    9  C6  UNL     1      53.705  66.978 -29.010  1.00  0.00     0.172 C 
BRANCH   9  10
HETATM   10  N1  UNL     1      53.291  65.638 -28.805  1.00  0.00    -0.341 N 
HETATM   11  N2  UNL     1      53.413  65.011 -27.737  1.00  0.00    -0.349 N 
ATOM     12  H22 UNL     1      53.846  65.513 -26.961  1.00  0.00     0.176 HD
ATOM     13  H21 UNL     1      53.115  64.046 -27.590  1.00  0.00     0.176 HD
ATOM     14  H1  UNL     1      52.861  65.152 -29.592  1.00  0.00     0.179 HD
ENDBRANCH   9  10
ENDBRANCH   5   9
TORSDOF 2
ENDMDL
MODEL 3
REMARK VINA RESULT: -4.659915902      1.906      2.437
REMARK  2 active torsions:
REMARK  status: ('A' for Active; 'I' for Inactive)
REMARK    1  A    between atoms: C5_5  and  C6_6 
REMARK    2  A    between atoms: C6_6  and  N1_7 
ROOT
HETATM    1  C1  UNL     1      54.293  71.886 -28.167  1.00  0.00     0.014 C 
HETATM    2  C2  UNL     1      54.254  70.747 -28.591  1.00  0.00    -0.084 C 
HETATM    3  C3  UNL     1      54.223  69.368 -29.100  1.00  0.00     0.265 C 
HETATM    4  C4  UNL     1      53.031  69.052 -29.966  1.00  0.00     0.081 C 
HETATM    5  C5  UNL     1      52.865  67.883 -29.052  1.00  0.00     0.209 C 
HETATM    6  N3  UNL     1      53.775  68.457 -28.079  1.00  0.00    -0.054 N 
ATOM      7  H31 UNL     1      53.430  68.805 -27.184  1.00  0.00     0.279 HD
ATOM      8  H32 UNL     1      54.440  67.869 -27.577  1.00  0.00     0.279 HD
ENDROOT
BRANCH   5   9
HETATM    9  C6  UNL     1      53.438  66.579 -29.579  1.00  0.00     0.172 C 
BRANCH   9  10
HETATM   10  N1  UNL     1      52.837  65.502 -28.880  1.00  0.00    -0.341 N 
HETATM   11  N2  UNL     1      53.292  64.984 -27.844  1.00  0.00    -0.349 N 
ATOM     12  H22 UNL     1      54.163  65.375 -27.484  1.00  0.00     0.176 HD
ATOM     13  H21 UNL     1      52.860  64.209 -27.341  1.00  0.00     0.176 HD
ATOM     14  H1  UNL     1      51.967  65.123 -29.254  1.00  0.00     0.179 HD
ENDBRANCH   9  10
ENDBRANCH   5   9
TORSDOF 2
ENDMDL
MODEL 4
REMARK VINA RESULT: -4.658035758      1.112      1.112
REMARK  2 active torsions:
REMARK  status: ('A' for Active; 'I' for Inactive)
REMARK    1  A    between atoms: C5_5  and  C6_6 
REMARK    2  A    between atoms: C6_6  and  N1_7 
ROOT
HETATM    1  C1  UNL     1      51.621  71.570 -32.146  1.00  0.00     0.014 C 
HETATM    2  C2  UNL     1      51.805  70.606 -31.428  1.00  0.00    -0.084 C 
HETATM    3  C3  UNL     1      52.017  69.433 -30.569  1.00  0.00     0.265 C 
HETATM    4  C4  UNL     1      52.673  69.741 -29.246  1.00  0.00     0.081 C 
HETATM    5  C5  UNL     1      53.616  68.650 -29.630  1.00  0.00     0.209 C 
HETATM    6  N3  UNL     1      53.162  68.679 -31.008  1.00  0.00    -0.054 N 
ATOM      7  H31 UNL     1      53.767  69.034 -31.749  1.00  0.00     0.279 HD
ATOM      8  H32 UNL     1      53.046  67.815 -31.536  1.00  0.00     0.279 HD
ENDROOT
BRANCH   5   9
HETATM    9  C6  UNL     1      53.303  67.295 -29.018  1.00  0.00     0.172 C 
BRANCH   9  10
HETATM   10  N1  UNL     1      54.365  66.930 -28.153  1.00  0.00    -0.341 N 
HETATM   11  N2  UNL     1      54.239  66.241 -27.124  1.00  0.00    -0.349 N 
ATOM     12  H22 UNL     1      53.295  65.923 -26.901  1.00  0.00     0.176 HD
ATOM     13  H21 UNL     1      55.004  65.978 -26.501  1.00  0.00     0.176 HD
ATOM     14  H1  UNL     1      55.302  67.256 -28.391  1.00  0.00     0.179 HD
ENDBRANCH   9  10
ENDBRANCH   5   9
TORSDOF 2
ENDMDL
MODEL 5
REMARK VINA RESULT: -4.572782178      1.836      4.594
REMARK  2 active torsions:
REMARK  status: ('A' for Active; 'I' for Inactive)
REMARK    1  A    between atoms: C5_5  and  C6_6 
REMARK    2  A    between atoms: C6_6  and  N1_7 
ROOT
HETATM    1  C1  UNL     1      53.259  65.555 -27.483  1.00  0.00     0.014 C 
HETATM    2  C2  UNL     1      53.391  66.404 -28.343  1.00  0.00    -0.084 C 
HETATM    3  C3  UNL     1      53.558  67.421 -29.392  1.00  0.00     0.265 C 
HETATM    4  C4  UNL     1      53.329  68.837 -28.927  1.00  0.00     0.081 C 
HETATM    5  C5  UNL     1      52.407  68.913 -30.099  1.00  0.00     0.209 C 
HETATM    6  N3  UNL     1      52.400  67.470 -30.245  1.00  0.00    -0.054 N 
ATOM      7  H31 UNL     1      51.565  66.927 -30.023  1.00  0.00     0.279 HD
ATOM      8  H32 UNL     1      52.415  67.040 -31.170  1.00  0.00     0.279 HD
ENDROOT
BRANCH   5   9
HETATM    9  C6  UNL     1      53.008  69.549 -31.340  1.00  0.00     0.172 C 
BRANCH   9  10
HETATM   10  N1  UNL     1      52.020  70.349 -31.966  1.00  0.00    -0.341 N 
HETATM   11  N2  UNL     1      50.817  70.375 -31.646  1.00  0.00    -0.349 N 
ATOM     12  H22 UNL     1      50.538  69.769 -30.874  1.00  0.00     0.176 HD
ATOM     13  H21 UNL     1      50.106  70.951 -32.097  1.00  0.00     0.176 HD
ATOM     14  H1  UNL     1      52.316  70.949 -32.737  1.00  0.00     0.179 HD
ENDBRANCH   9  10
ENDBRANCH   5   9
TORSDOF 2
ENDMDL
