MODEL 1
REMARK VINA RESULT: -6.939811572      0.000      0.000
REMARK  11 active torsions:
REMARK  status: ('A' for Active; 'I' for Inactive)
REMARK    1  A    between atoms: C1_2  and  C2_3 
REMARK       I    between atoms: C1_2  and  N2_10 
REMARK    2  A    between atoms: C2_3  and  O2_4 
REMARK    3  A    between atoms: N1_6  and  O3_8 
REMARK    4  A    between atoms: N2_10  and  O4_11 
REMARK    5  A    between atoms: N2_10  and  C3_13 
REMARK    6  A    between atoms: C4_14  and  C5_15 
REMARK    7  A    between atoms: C4_14  and  C6_20 
REMARK    8  A    between atoms: C5_15  and  O5_16 
REMARK    9  A    between atoms: C5_15  and  O6_18 
REMARK   10  A    between atoms: C9_23  and  S1_24 
REMARK   11  A    between atoms: S1_24  and  C10_25 
ROOT
HETATM    1  C3  UNL     1      74.526  44.684  50.655  1.00  0.00     0.135 C 
HETATM    2  C4  UNL     1      73.465  45.588  51.043  1.00  0.00    -0.004 C 
ENDROOT
BRANCH   2   3
HETATM    3  C5  UNL     1      72.458  45.878  49.910  1.00  0.00     0.286 C 
BRANCH   3   4
HETATM    4  O5  UNL     1      71.870  47.110  50.023  1.00  0.00    -0.367 OA
ATOM      5  H5  UNL     1      70.941  47.059  50.212  1.00  0.00     0.213 HD
ENDBRANCH   3   4
BRANCH   3   6
HETATM    6  O6  UNL     1      73.204  45.852  48.738  1.00  0.00    -0.367 OA
ATOM      7  H6  UNL     1      73.297  46.761  48.478  1.00  0.00     0.213 HD
ENDBRANCH   3   6
ENDBRANCH   2   3
BRANCH   2   8
HETATM    8  C6  UNL     1      72.679  45.483  52.265  1.00  0.00     0.022 C 
HETATM    9  C7  UNL     1      73.442  45.212  53.549  1.00  0.00     0.010 C 
HETATM   10  C8  UNL     1      72.305  45.231  54.572  1.00  0.00     0.016 C 
HETATM   11  C9  UNL     1      71.043  44.879  53.824  1.00  0.00     0.053 C 
HETATM   12  C11 UNL     1      71.487  44.630  52.362  1.00  0.00     0.024 C 
BRANCH  11  13
HETATM   13  S1  UNL     1      70.295  43.377  54.494  1.00  0.00    -0.096 SA
BRANCH  13  14
HETATM   14  C10 UNL     1      68.626  43.123  53.912  1.00  0.00     0.416 C 
HETATM   15  F1  UNL     1      68.292  44.189  53.091  1.00  0.00    -0.203 F 
HETATM   16  F2  UNL     1      68.571  41.959  53.181  1.00  0.00    -0.203 F 
ENDBRANCH  13  14
ENDBRANCH  11  13
ENDBRANCH   2   8
BRANCH   1  17
HETATM   17  N2  UNL     1      74.325  43.373  50.191  1.00  0.00    -0.195 N 
HETATM   18  C1  UNL     1      74.152  42.233  51.012  1.00  0.00     0.323 C 
HETATM   19  O1  UNL     1      74.213  42.301  52.271  1.00  0.00    -0.261 OA
BRANCH  18  20
HETATM   20  C2  UNL     1      73.888  40.896  50.471  1.00  0.00     0.232 C 
HETATM   21  N1  UNL     1      72.704  40.380  50.522  1.00  0.00    -0.243 N 
ATOM     22  H1  UNL     1      71.952  40.921  50.947  1.00  0.00     0.196 HD
BRANCH  20  23
HETATM   23  O2  UNL     1      74.894  40.149  49.891  1.00  0.00    -0.341 OA
ATOM     24  H2  UNL     1      74.886  39.953  48.961  1.00  0.00     0.219 HD
ENDBRANCH  20  23
BRANCH  21  25
HETATM   25  O3  UNL     1      72.425  39.149  50.033  1.00  0.00    -0.288 OA
ATOM     26  H3  UNL     1      71.694  38.986  49.448  1.00  0.00     0.244 HD
ENDBRANCH  21  25
ENDBRANCH  18  20
BRANCH  17  27
HETATM   27  O4  UNL     1      74.264  43.098  48.832  1.00  0.00    -0.280 OA
ATOM     28  H4  UNL     1      73.380  42.976  48.504  1.00  0.00     0.245 HD
ENDBRANCH  17  27
ENDBRANCH   1  17
TORSDOF 11
ENDMDL
MODEL 2
REMARK VINA RESULT: -6.923502042      1.547      1.662
REMARK  11 active torsions:
REMARK  status: ('A' for Active; 'I' for Inactive)
REMARK    1  A    between atoms: C1_2  and  C2_3 
REMARK       I    between atoms: C1_2  and  N2_10 
REMARK    2  A    between atoms: C2_3  and  O2_4 
REMARK    3  A    between atoms: N1_6  and  O3_8 
REMARK    4  A    between atoms: N2_10  and  O4_11 
REMARK    5  A    between atoms: N2_10  and  C3_13 
REMARK    6  A    between atoms: C4_14  and  C5_15 
REMARK    7  A    between atoms: C4_14  and  C6_20 
REMARK    8  A    between atoms: C5_15  and  O5_16 
REMARK    9  A    between atoms: C5_15  and  O6_18 
REMARK   10  A    between atoms: C9_23  and  S1_24 
REMARK   11  A    between atoms: S1_24  and  C10_25 
ROOT
HETATM    1  C3  UNL     1      74.544  44.663  50.605  1.00  0.00     0.135 C 
HETATM    2  C4  UNL     1      73.489  45.560  51.020  1.00  0.00    -0.004 C 
ENDROOT
BRANCH   2   3
HETATM    3  C5  UNL     1      72.438  45.826  49.921  1.00  0.00     0.286 C 
BRANCH   3   4
HETATM    4  O5  UNL     1      71.810  47.033  50.066  1.00  0.00    -0.367 OA
ATOM      5  H5  UNL     1      70.920  47.029  49.732  1.00  0.00     0.213 HD
ENDBRANCH   3   4
BRANCH   3   6
HETATM    6  O6  UNL     1      73.149  45.840  48.727  1.00  0.00    -0.367 OA
ATOM      7  H6  UNL     1      72.585  45.414  48.092  1.00  0.00     0.213 HD
ENDBRANCH   3   6
ENDBRANCH   2   3
BRANCH   2   8
HETATM    8  C6  UNL     1      72.748  45.462  52.271  1.00  0.00     0.022 C 
HETATM    9  C7  UNL     1      73.565  45.282  53.537  1.00  0.00     0.010 C 
HETATM   10  C8  UNL     1      72.460  45.280  54.596  1.00  0.00     0.016 C 
HETATM   11  C9  UNL     1      71.196  44.833  53.904  1.00  0.00     0.053 C 
HETATM   12  C11 UNL     1      71.607  44.552  52.439  1.00  0.00     0.024 C 
BRANCH  11  13
HETATM   13  S1  UNL     1      70.552  43.321  54.654  1.00  0.00    -0.096 SA
BRANCH  13  14
HETATM   14  C10 UNL     1      71.719  42.558  55.770  1.00  0.00     0.416 C 
HETATM   15  F1  UNL     1      71.076  41.508  56.409  1.00  0.00    -0.203 F 
HETATM   16  F2  UNL     1      72.780  42.063  55.048  1.00  0.00    -0.203 F 
ENDBRANCH  13  14
ENDBRANCH  11  13
ENDBRANCH   2   8
BRANCH   1  17
HETATM   17  N2  UNL     1      74.342  43.344  50.164  1.00  0.00    -0.195 N 
HETATM   18  C1  UNL     1      74.199  42.215  51.004  1.00  0.00     0.323 C 
HETATM   19  O1  UNL     1      74.292  42.300  52.260  1.00  0.00    -0.261 OA
BRANCH  18  20
HETATM   20  C2  UNL     1      73.931  40.869  50.488  1.00  0.00     0.232 C 
HETATM   21  N1  UNL     1      72.735  40.381  50.490  1.00  0.00    -0.243 N 
ATOM     22  H1  UNL     1      71.974  40.952  50.858  1.00  0.00     0.196 HD
BRANCH  20  23
HETATM   23  O2  UNL     1      74.948  40.082  49.984  1.00  0.00    -0.341 OA
ATOM     24  H2  UNL     1      75.204  40.135  49.071  1.00  0.00     0.219 HD
ENDBRANCH  20  23
BRANCH  21  25
HETATM   25  O3  UNL     1      72.452  39.144  50.022  1.00  0.00    -0.288 OA
ATOM     26  H3  UNL     1      72.331  38.962  49.097  1.00  0.00     0.244 HD
ENDBRANCH  21  25
ENDBRANCH  18  20
BRANCH  17  27
HETATM   27  O4  UNL     1      74.248  43.051  48.810  1.00  0.00    -0.280 OA
ATOM     28  H4  UNL     1      73.762  43.697  48.310  1.00  0.00     0.245 HD
ENDBRANCH  17  27
ENDBRANCH   1  17
TORSDOF 11
ENDMDL
MODEL 3
REMARK VINA RESULT: -6.773553810      1.278      1.646
REMARK  11 active torsions:
REMARK  status: ('A' for Active; 'I' for Inactive)
REMARK    1  A    between atoms: C1_2  and  C2_3 
REMARK       I    between atoms: C1_2  and  N2_10 
REMARK    2  A    between atoms: C2_3  and  O2_4 
REMARK    3  A    between atoms: N1_6  and  O3_8 
REMARK    4  A    between atoms: N2_10  and  O4_11 
REMARK    5  A    between atoms: N2_10  and  C3_13 
REMARK    6  A    between atoms: C4_14  and  C5_15 
REMARK    7  A    between atoms: C4_14  and  C6_20 
REMARK    8  A    between atoms: C5_15  and  O5_16 
REMARK    9  A    between atoms: C5_15  and  O6_18 
REMARK   10  A    between atoms: C9_23  and  S1_24 
REMARK   11  A    between atoms: S1_24  and  C10_25 
ROOT
HETATM    1  C3  UNL     1      74.772  43.625  52.042  1.00  0.00     0.135 C 
HETATM    2  C4  UNL     1      74.080  44.889  51.923  1.00  0.00    -0.004 C 
ENDROOT
BRANCH   2   3
HETATM    3  C5  UNL     1      73.710  45.255  50.470  1.00  0.00     0.286 C 
BRANCH   3   4
HETATM    4  O5  UNL     1      73.589  46.604  50.275  1.00  0.00    -0.367 OA
ATOM      5  H5  UNL     1      73.430  46.833  49.367  1.00  0.00     0.213 HD
ENDBRANCH   3   4
BRANCH   3   6
HETATM    6  O6  UNL     1      74.765  44.791  49.693  1.00  0.00    -0.367 OA
ATOM      7  H6  UNL     1      75.382  45.512  49.649  1.00  0.00     0.213 HD
ENDBRANCH   3   6
ENDBRANCH   2   3
BRANCH   2   8
HETATM    8  C6  UNL     1      72.951  45.308  52.744  1.00  0.00     0.022 C 
HETATM    9  C7  UNL     1      72.943  44.838  54.187  1.00  0.00     0.010 C 
HETATM   10  C8  UNL     1      71.672  45.513  54.704  1.00  0.00     0.016 C 
HETATM   11  C9  UNL     1      70.783  45.740  53.506  1.00  0.00     0.053 C 
HETATM   12  C11 UNL     1      71.559  45.155  52.302  1.00  0.00     0.024 C 
BRANCH  11  13
HETATM   13  S1  UNL     1      69.212  44.869  53.696  1.00  0.00    -0.096 SA
BRANCH  13  14
HETATM   14  C10 UNL     1      69.389  43.097  53.560  1.00  0.00     0.416 C 
HETATM   15  F1  UNL     1      69.880  42.622  54.766  1.00  0.00    -0.203 F 
HETATM   16  F2  UNL     1      68.156  42.534  53.323  1.00  0.00    -0.203 F 
ENDBRANCH  13  14
ENDBRANCH  11  13
ENDBRANCH   2   8
BRANCH   1  17
HETATM   17  N2  UNL     1      74.251  42.389  51.625  1.00  0.00    -0.195 N 
HETATM   18  C1  UNL     1      74.728  41.627  50.532  1.00  0.00     0.323 C 
HETATM   19  O1  UNL     1      75.664  42.038  49.790  1.00  0.00    -0.261 OA
BRANCH  18  20
HETATM   20  C2  UNL     1      74.180  40.314  50.177  1.00  0.00     0.232 C 
HETATM   21  N1  UNL     1      72.906  40.135  50.059  1.00  0.00    -0.243 N 
ATOM     22  H1  UNL     1      72.283  40.927  50.216  1.00  0.00     0.196 HD
BRANCH  20  23
HETATM   23  O2  UNL     1      75.008  39.231  49.959  1.00  0.00    -0.341 OA
ATOM     24  H2  UNL     1      74.689  38.449  49.522  1.00  0.00     0.219 HD
ENDBRANCH  20  23
BRANCH  21  25
HETATM   25  O3  UNL     1      72.367  38.938  49.733  1.00  0.00    -0.288 OA
ATOM     26  H3  UNL     1      71.500  38.673  50.019  1.00  0.00     0.244 HD
ENDBRANCH  21  25
ENDBRANCH  18  20
BRANCH  17  27
HETATM   27  O4  UNL     1      73.192  41.796  52.300  1.00  0.00    -0.280 OA
ATOM     28  H4  UNL     1      73.363  41.642  53.222  1.00  0.00     0.245 HD
ENDBRANCH  17  27
ENDBRANCH   1  17
TORSDOF 11
ENDMDL
MODEL 4
REMARK VINA RESULT: -6.721338298      1.081      1.279
REMARK  11 active torsions:
REMARK  status: ('A' for Active; 'I' for Inactive)
REMARK    1  A    between atoms: C1_2  and  C2_3 
REMARK       I    between atoms: C1_2  and  N2_10 
REMARK    2  A    between atoms: C2_3  and  O2_4 
REMARK    3  A    between atoms: N1_6  and  O3_8 
REMARK    4  A    between atoms: N2_10  and  O4_11 
REMARK    5  A    between atoms: N2_10  and  C3_13 
REMARK    6  A    between atoms: C4_14  and  C5_15 
REMARK    7  A    between atoms: C4_14  and  C6_20 
REMARK    8  A    between atoms: C5_15  and  O5_16 
REMARK    9  A    between atoms: C5_15  and  O6_18 
REMARK   10  A    between atoms: C9_23  and  S1_24 
REMARK   11  A    between atoms: S1_24  and  C10_25 
ROOT
HETATM    1  C3  UNL     1      75.237  43.473  51.828  1.00  0.00     0.135 C 
HETATM    2  C4  UNL     1      74.473  44.699  51.899  1.00  0.00    -0.004 C 
ENDROOT
BRANCH   2   3
HETATM    3  C5  UNL     1      74.330  45.415  50.539  1.00  0.00     0.286 C 
BRANCH   3   4
HETATM    4  O5  UNL     1      73.370  44.854  49.741  1.00  0.00    -0.367 OA
ATOM      5  H5  UNL     1      72.613  44.554  50.230  1.00  0.00     0.213 HD
ENDBRANCH   3   4
BRANCH   3   6
HETATM    6  O6  UNL     1      73.943  46.715  50.846  1.00  0.00    -0.367 OA
ATOM      7  H6  UNL     1      73.454  47.017  50.090  1.00  0.00     0.213 HD
ENDBRANCH   3   6
ENDBRANCH   2   3
BRANCH   2   8
HETATM    8  C6  UNL     1      73.190  44.850  52.572  1.00  0.00     0.022 C 
HETATM    9  C7  UNL     1      73.227  45.275  54.029  1.00  0.00     0.010 C 
HETATM   10  C8  UNL     1      71.732  45.373  54.340  1.00  0.00     0.016 C 
HETATM   11  C9  UNL     1      71.026  44.459  53.369  1.00  0.00     0.053 C 
HETATM   12  C11 UNL     1      72.148  43.816  52.519  1.00  0.00     0.024 C 
BRANCH  11  13
HETATM   13  S1  UNL     1      70.115  43.169  54.247  1.00  0.00    -0.096 SA
BRANCH  13  14
HETATM   14  C10 UNL     1      68.386  43.126  53.802  1.00  0.00     0.416 C 
HETATM   15  F1  UNL     1      68.099  44.280  53.089  1.00  0.00    -0.203 F 
HETATM   16  F2  UNL     1      68.149  42.032  53.002  1.00  0.00    -0.203 F 
ENDBRANCH  13  14
ENDBRANCH  11  13
ENDBRANCH   2   8
BRANCH   1  17
HETATM   17  N2  UNL     1      74.898  42.369  51.027  1.00  0.00    -0.195 N 
HETATM   18  C1  UNL     1      74.308  41.170  51.494  1.00  0.00     0.323 C 
HETATM   19  O1  UNL     1      74.075  40.974  52.720  1.00  0.00    -0.261 OA
BRANCH  18  20
HETATM   20  C2  UNL     1      73.924  40.073  50.602  1.00  0.00     0.232 C 
HETATM   21  N1  UNL     1      72.681  39.766  50.423  1.00  0.00    -0.243 N 
ATOM     22  H1  UNL     1      71.968  40.303  50.914  1.00  0.00     0.196 HD
BRANCH  20  23
HETATM   23  O2  UNL     1      74.875  39.334  49.926  1.00  0.00    -0.341 OA
ATOM     24  H2  UNL     1      75.714  39.713  49.690  1.00  0.00     0.219 HD
ENDBRANCH  20  23
BRANCH  21  25
HETATM   25  O3  UNL     1      72.291  38.759  49.607  1.00  0.00    -0.288 OA
ATOM     26  H3  UNL     1      71.789  38.015  49.918  1.00  0.00     0.244 HD
ENDBRANCH  21  25
ENDBRANCH  18  20
BRANCH  17  27
HETATM   27  O4  UNL     1      75.116  42.388  49.656  1.00  0.00    -0.280 OA
ATOM     28  H4  UNL     1      74.763  43.157  49.222  1.00  0.00     0.245 HD
ENDBRANCH  17  27
ENDBRANCH   1  17
TORSDOF 11
ENDMDL
MODEL 5
REMARK VINA RESULT: -6.719185769      1.972      2.285
REMARK  11 active torsions:
REMARK  status: ('A' for Active; 'I' for Inactive)
REMARK    1  A    between atoms: C1_2  and  C2_3 
REMARK       I    between atoms: C1_2  and  N2_10 
REMARK    2  A    between atoms: C2_3  and  O2_4 
REMARK    3  A    between atoms: N1_6  and  O3_8 
REMARK    4  A    between atoms: N2_10  and  O4_11 
REMARK    5  A    between atoms: N2_10  and  C3_13 
REMARK    6  A    between atoms: C4_14  and  C5_15 
REMARK    7  A    between atoms: C4_14  and  C6_20 
REMARK    8  A    between atoms: C5_15  and  O5_16 
REMARK    9  A    between atoms: C5_15  and  O6_18 
REMARK   10  A    between atoms: C9_23  and  S1_24 
REMARK   11  A    between atoms: S1_24  and  C10_25 
ROOT
HETATM    1  C3  UNL     1      75.417  43.260  51.817  1.00  0.00     0.135 C 
HETATM    2  C4  UNL     1      74.528  44.344  52.173  1.00  0.00    -0.004 C 
ENDROOT
BRANCH   2   3
HETATM    3  C5  UNL     1      73.966  45.106  50.953  1.00  0.00     0.286 C 
BRANCH   3   4
HETATM    4  O5  UNL     1      74.012  46.465  51.108  1.00  0.00    -0.367 OA
ATOM      5  H5  UNL     1      74.852  46.836  50.863  1.00  0.00     0.213 HD
ENDBRANCH   3   4
BRANCH   3   6
HETATM    6  O6  UNL     1      74.789  44.755  49.889  1.00  0.00    -0.367 OA
ATOM      7  H6  UNL     1      75.670  44.746  50.244  1.00  0.00     0.213 HD
ENDBRANCH   3   6
ENDBRANCH   2   3
BRANCH   2   8
HETATM    8  C6  UNL     1      73.433  44.250  53.129  1.00  0.00     0.022 C 
HETATM    9  C7  UNL     1      72.080  43.833  52.582  1.00  0.00     0.010 C 
HETATM   10  C8  UNL     1      71.247  43.800  53.865  1.00  0.00     0.016 C 
HETATM   11  C9  UNL     1      71.915  44.737  54.841  1.00  0.00     0.053 C 
HETATM   12  C11 UNL     1      73.127  45.327  54.081  1.00  0.00     0.024 C 
BRANCH  11  13
HETATM   13  S1  UNL     1      70.795  46.069  55.324  1.00  0.00    -0.096 SA
BRANCH  13  14
HETATM   14  C10 UNL     1      69.627  46.484  54.038  1.00  0.00     0.416 C 
HETATM   15  F1  UNL     1      69.004  47.670  54.392  1.00  0.00    -0.203 F 
HETATM   16  F2  UNL     1      70.302  46.667  52.853  1.00  0.00    -0.203 F 
ENDBRANCH  13  14
ENDBRANCH  11  13
ENDBRANCH   2   8
BRANCH   1  17
HETATM   17  N2  UNL     1      75.057  42.165  51.014  1.00  0.00    -0.195 N 
HETATM   18  C1  UNL     1      74.327  41.034  51.453  1.00  0.00     0.323 C 
HETATM   19  O1  UNL     1      73.970  40.896  52.656  1.00  0.00    -0.261 OA
BRANCH  18  20
HETATM   20  C2  UNL     1      73.929  39.946  50.555  1.00  0.00     0.232 C 
HETATM   21  N1  UNL     1      72.683  39.667  50.359  1.00  0.00    -0.243 N 
ATOM     22  H1  UNL     1      71.976  40.220  50.842  1.00  0.00     0.196 HD
BRANCH  20  23
HETATM   23  O2  UNL     1      74.873  39.188  49.890  1.00  0.00    -0.341 OA
ATOM     24  H2  UNL     1      75.721  39.009  50.278  1.00  0.00     0.219 HD
ENDBRANCH  20  23
BRANCH  21  25
HETATM   25  O3  UNL     1      72.281  38.670  49.537  1.00  0.00    -0.288 OA
ATOM     26  H3  UNL     1      72.822  38.344  48.827  1.00  0.00     0.244 HD
ENDBRANCH  21  25
ENDBRANCH  18  20
BRANCH  17  27
HETATM   27  O4  UNL     1      75.395  42.124  49.668  1.00  0.00    -0.280 OA
ATOM     28  H4  UNL     1      75.655  42.967  49.312  1.00  0.00     0.245 HD
ENDBRANCH  17  27
ENDBRANCH   1  17
TORSDOF 11
ENDMDL
