MODEL 1
REMARK VINA RESULT: -9.227720721      0.000      0.000
REMARK  10 active torsions:
REMARK  status: ('A' for Active; 'I' for Inactive)
REMARK    1  A    between atoms: C4_4  and  N1_5 
REMARK       I    between atoms: N1_5  and  C5_7 
REMARK    2  A    between atoms: C5_7  and  C6_9 
REMARK    3  A    between atoms: C6_9  and  N2_10 
REMARK    4  A    between atoms: N2_10  and  C7_13 
REMARK    5  A    between atoms: C7_13  and  C8_14 
REMARK    6  A    between atoms: C8_14  and  O2_15 
REMARK    7  A    between atoms: C8_14  and  C9_17 
REMARK    8  A    between atoms: C9_17  and  N3_18 
REMARK    9  A    between atoms: C9_17  and  C10_22 
REMARK   10  A    between atoms: C13_33  and  C14_34 
ROOT
HETATM    1  C1  UNL     1     -43.530  78.742 102.892  1.00  0.00     0.050 C 
HETATM    2  C2  UNL     1     -44.464  77.656 102.501  1.00  0.00    -0.029 A 
HETATM    3  C3  UNL     1     -44.137  76.462 101.837  1.00  0.00     0.041 A 
HETATM    4  C4  UNL     1     -45.251  75.692 101.635  1.00  0.00     0.064 A 
HETATM    5  C12 UNL     1     -46.353  76.384 102.179  1.00  0.00     0.089 A 
HETATM    6  N8  UNL     1     -47.668  76.108 102.257  1.00  0.00    -0.335 N 
ATOM      7  H8  UNL     1     -48.031  75.234 101.877  1.00  0.00     0.168 HD
HETATM    8  C13 UNL     1     -48.492  76.980 102.833  1.00  0.00     0.155 A 
HETATM    9  N13 UNL     1     -48.016  78.115 103.328  1.00  0.00    -0.283 N 
ATOM     10  H13 UNL     1     -48.674  78.762 103.763  1.00  0.00     0.188 HD
HETATM   11  N14 UNL     1     -46.740  78.459 103.291  1.00  0.00    -0.296 N 
ATOM     12  H14 UNL     1     -46.439  79.349 103.689  1.00  0.00     0.187 HD
HETATM   13  C19 UNL     1     -45.823  77.619 102.716  1.00  0.00     0.083 A 
ENDROOT
BRANCH   4  14
HETATM   14  N1  UNL     1     -45.458  74.446 100.997  1.00  0.00    -0.324 N 
HETATM   15  C5  UNL     1     -44.734  73.285 101.395  1.00  0.00     0.247 C 
HETATM   16  O1  UNL     1     -43.904  73.299 102.317  1.00  0.00    -0.271 OA
ATOM     17  H1  UNL     1     -46.136  74.379 100.238  1.00  0.00     0.169 HD
BRANCH  15  18
HETATM   18  C6  UNL     1     -45.010  72.053 100.661  1.00  0.00     0.335 C 
BRANCH  18  19
HETATM   19  N2  UNL     1     -44.000  71.551  99.791  1.00  0.00    -0.064 N 
ATOM     20  H22 UNL     1     -44.392  71.197  98.919  1.00  0.00     0.277 HD
ATOM     21  H21 UNL     1     -43.424  72.299  99.405  1.00  0.00     0.277 HD
BRANCH  19  22
HETATM   22  C7  UNL     1     -43.203  70.553 100.466  1.00  0.00     0.266 C 
BRANCH  22  23
HETATM   23  C8  UNL     1     -41.739  70.956 100.329  1.00  0.00     0.181 C 
BRANCH  23  24
HETATM   24  O2  UNL     1     -41.524  71.794 101.473  1.00  0.00    -0.391 OA
ATOM     25  H2  UNL     1     -40.769  71.396 101.891  1.00  0.00     0.210 HD
ENDBRANCH  23  24
BRANCH  23  26
HETATM   26  C9  UNL     1     -41.579  71.876  99.161  1.00  0.00     0.283 C 
BRANCH  26  27
HETATM   27  N3  UNL     1     -40.827  71.328  98.071  1.00  0.00    -0.066 N 
ATOM     28  H33 UNL     1     -40.020  71.918  97.865  1.00  0.00     0.275 HD
ATOM     29  H32 UNL     1     -40.350  70.475  98.363  1.00  0.00     0.275 HD
ATOM     30  H31 UNL     1     -41.369  71.160  97.224  1.00  0.00     0.275 HD
ENDBRANCH  26  27
BRANCH  26  31
HETATM   31  C10 UNL     1     -41.021  73.168  99.676  1.00  0.00     0.143 A 
HETATM   32  N4  UNL     1     -41.702  74.253 100.024  1.00  0.00    -0.269 N 
HETATM   33  N5  UNL     1     -40.857  75.194 100.403  1.00  0.00    -0.003 NA
ATOM     34  H4  UNL     1     -42.718  74.345 100.004  1.00  0.00     0.185 HD
HETATM   35  N6  UNL     1     -39.626  74.688 100.288  1.00  0.00    -0.221 N 
HETATM   36  C11 UNL     1     -38.467  75.492 100.625  1.00  0.00     0.197 C 
HETATM   37  N7  UNL     1     -39.704  73.446  99.845  1.00  0.00    -0.271 N 
ATOM     38  H7  UNL     1     -38.922  72.816  99.664  1.00  0.00     0.189 HD
ENDBRANCH  26  31
ENDBRANCH  23  26
ENDBRANCH  22  23
ENDBRANCH  19  22
ENDBRANCH  18  19
ENDBRANCH  15  18
ENDBRANCH   4  14
BRANCH   8  39
HETATM   39  C14 UNL     1     -49.931  76.630 102.867  1.00  0.00     0.122 A 
HETATM   40  N9  UNL     1     -50.940  77.387 103.237  1.00  0.00    -0.332 N 
HETATM   41  C15 UNL     1     -52.146  76.910 103.222  1.00  0.00     0.128 A 
ATOM     42  H9  UNL     1     -50.775  78.349 103.535  1.00  0.00     0.168 HD
HETATM   43  N10 UNL     1     -53.284  77.589 103.572  1.00  0.00    -0.337 N 
HETATM   44  C18 UNL     1     -52.318  75.617 102.814  1.00  0.00     0.094 A 
HETATM   45  C16 UNL     1     -54.476  76.997 103.510  1.00  0.00     0.183 A 
ATOM     46  H10 UNL     1     -53.218  78.558 103.883  1.00  0.00     0.168 HD
HETATM   47  N11 UNL     1     -54.684  75.735 103.117  1.00  0.00    -0.338 N 
HETATM   48  C17 UNL     1     -53.598  75.038 102.767  1.00  0.00     0.120 A 
ATOM     49  H11 UNL     1     -55.619  75.327 103.086  1.00  0.00     0.168 HD
HETATM   50  N12 UNL     1     -53.654  73.820 102.377  1.00  0.00    -0.384 N 
ATOM     51 2H12 UNL     1     -54.582  73.400 102.343  1.00  0.00     0.157 HD
ATOM     52 1H12 UNL     1     -52.825  73.289 102.110  1.00  0.00     0.157 HD
HETATM   53  S1  UNL     1     -50.700  75.162 102.473  1.00  0.00    -0.061 SA
ENDBRANCH   8  39
TORSDOF 10
ENDMDL
MODEL 2
REMARK VINA RESULT: -9.036311159      3.771      7.182
REMARK  10 active torsions:
REMARK  status: ('A' for Active; 'I' for Inactive)
REMARK    1  A    between atoms: C4_4  and  N1_5 
REMARK       I    between atoms: N1_5  and  C5_7 
REMARK    2  A    between atoms: C5_7  and  C6_9 
REMARK    3  A    between atoms: C6_9  and  N2_10 
REMARK    4  A    between atoms: N2_10  and  C7_13 
REMARK    5  A    between atoms: C7_13  and  C8_14 
REMARK    6  A    between atoms: C8_14  and  O2_15 
REMARK    7  A    between atoms: C8_14  and  C9_17 
REMARK    8  A    between atoms: C9_17  and  N3_18 
REMARK    9  A    between atoms: C9_17  and  C10_22 
REMARK   10  A    between atoms: C13_33  and  C14_34 
ROOT
HETATM    1  C1  UNL     1     -42.819  70.009  97.366  1.00  0.00     0.050 C 
HETATM    2  C2  UNL     1     -42.387  71.024  98.360  1.00  0.00    -0.029 A 
HETATM    3  C3  UNL     1     -41.101  71.174  98.908  1.00  0.00     0.041 A 
HETATM    4  C4  UNL     1     -41.065  72.215  99.796  1.00  0.00     0.064 A 
HETATM    5  C12 UNL     1     -42.356  72.780  99.846  1.00  0.00     0.089 A 
HETATM    6  N8  UNL     1     -42.889  73.803 100.539  1.00  0.00    -0.335 N 
ATOM      7  H8  UNL     1     -42.309  74.343 101.181  1.00  0.00     0.168 HD
HETATM    8  C13 UNL     1     -44.175  74.106 100.384  1.00  0.00     0.155 A 
HETATM    9  N13 UNL     1     -44.927  73.402  99.547  1.00  0.00    -0.283 N 
ATOM     10  H13 UNL     1     -45.909  73.660  99.451  1.00  0.00     0.188 HD
HETATM   11  N14 UNL     1     -44.479  72.385  98.831  1.00  0.00    -0.296 N 
ATOM     12  H14 UNL     1     -45.110  71.883  98.205  1.00  0.00     0.187 HD
HETATM   13  C19 UNL     1     -43.166  72.006  98.930  1.00  0.00     0.083 A 
ENDROOT
BRANCH   4  14
HETATM   14  N1  UNL     1     -40.043  72.741 100.620  1.00  0.00    -0.324 N 
HETATM   15  C5  UNL     1     -39.441  74.002 100.335  1.00  0.00     0.247 C 
HETATM   16  O1  UNL     1     -39.783  74.701  99.370  1.00  0.00    -0.271 OA
ATOM     17  H1  UNL     1     -39.731  72.209 101.433  1.00  0.00     0.169 HD
BRANCH  15  18
HETATM   18  C6  UNL     1     -38.383  74.446 101.239  1.00  0.00     0.335 C 
BRANCH  18  19
HETATM   19  N2  UNL     1     -37.162  74.905 100.666  1.00  0.00    -0.064 N 
ATOM     20  H22 UNL     1     -37.274  75.808 100.207  1.00  0.00     0.277 HD
ATOM     21  H21 UNL     1     -36.488  75.181 101.380  1.00  0.00     0.277 HD
BRANCH  19  22
HETATM   22  C7  UNL     1     -36.620  73.909  99.771  1.00  0.00     0.266 C 
BRANCH  22  23
HETATM   23  C8  UNL     1     -36.414  74.569  98.412  1.00  0.00     0.181 C 
BRANCH  23  24
HETATM   24  O2  UNL     1     -37.369  73.899  97.578  1.00  0.00    -0.391 OA
ATOM     25  H2  UNL     1     -36.823  73.384  96.997  1.00  0.00     0.210 HD
ENDBRANCH  23  24
BRANCH  23  26
HETATM   26  C9  UNL     1     -35.086  74.164  97.855  1.00  0.00     0.283 C 
BRANCH  26  27
HETATM   27  N3  UNL     1     -34.106  73.822  98.842  1.00  0.00    -0.066 N 
ATOM     28  H33 UNL     1     -33.665  72.931  98.611  1.00  0.00     0.275 HD
ATOM     29  H32 UNL     1     -33.299  74.441  98.769  1.00  0.00     0.275 HD
ATOM     30  H31 UNL     1     -34.457  73.807  99.800  1.00  0.00     0.275 HD
ENDBRANCH  26  27
BRANCH  26  31
HETATM   31  C10 UNL     1     -34.636  75.250  96.925  1.00  0.00     0.143 A 
HETATM   32  N4  UNL     1     -33.489  75.917  96.968  1.00  0.00    -0.269 N 
HETATM   33  N5  UNL     1     -33.470  76.812  95.998  1.00  0.00    -0.003 NA
ATOM     34  H4  UNL     1     -32.740  75.762  97.643  1.00  0.00     0.185 HD
HETATM   35  N6  UNL     1     -34.626  76.703  95.337  1.00  0.00    -0.221 N 
HETATM   36  C11 UNL     1     -34.912  77.568  94.209  1.00  0.00     0.197 C 
HETATM   37  N7  UNL     1     -35.355  75.749  95.889  1.00  0.00    -0.271 N 
ATOM     38  H7  UNL     1     -36.283  75.446  95.592  1.00  0.00     0.189 HD
ENDBRANCH  26  31
ENDBRANCH  23  26
ENDBRANCH  22  23
ENDBRANCH  19  22
ENDBRANCH  18  19
ENDBRANCH  15  18
ENDBRANCH   4  14
BRANCH   8  39
HETATM   39  C14 UNL     1     -44.709  75.226 101.192  1.00  0.00     0.122 A 
HETATM   40  N9  UNL     1     -45.965  75.505 101.460  1.00  0.00    -0.332 N 
HETATM   41  C15 UNL     1     -46.257  76.546 102.177  1.00  0.00     0.128 A 
ATOM     42  H9  UNL     1     -46.709  74.904 101.106  1.00  0.00     0.168 HD
HETATM   43  N10 UNL     1     -47.518  76.947 102.537  1.00  0.00    -0.337 N 
HETATM   44  C18 UNL     1     -45.227  77.321 102.631  1.00  0.00     0.094 A 
HETATM   45  C16 UNL     1     -47.699  78.034 103.285  1.00  0.00     0.183 A 
ATOM     46  H10 UNL     1     -48.327  76.406 102.228  1.00  0.00     0.168 HD
HETATM   47  N11 UNL     1     -46.718  78.817 103.748  1.00  0.00    -0.338 N 
HETATM   48  C17 UNL     1     -45.472  78.460 103.418  1.00  0.00     0.120 A 
ATOM     49  H11 UNL     1     -46.909  79.640 104.319  1.00  0.00     0.168 HD
HETATM   50  N12 UNL     1     -44.442  79.123 103.789  1.00  0.00    -0.384 N 
ATOM     51 2H12 UNL     1     -44.619  79.949 104.360  1.00  0.00     0.157 HD
ATOM     52 1H12 UNL     1     -43.491  78.850 103.537  1.00  0.00     0.157 HD
HETATM   53  S1  UNL     1     -43.878  76.486 101.983  1.00  0.00    -0.061 SA
ENDBRANCH   8  39
TORSDOF 10
ENDMDL
MODEL 3
REMARK VINA RESULT: -8.847168087      1.168      1.587
REMARK  10 active torsions:
REMARK  status: ('A' for Active; 'I' for Inactive)
REMARK    1  A    between atoms: C4_4  and  N1_5 
REMARK       I    between atoms: N1_5  and  C5_7 
REMARK    2  A    between atoms: C5_7  and  C6_9 
REMARK    3  A    between atoms: C6_9  and  N2_10 
REMARK    4  A    between atoms: N2_10  and  C7_13 
REMARK    5  A    between atoms: C7_13  and  C8_14 
REMARK    6  A    between atoms: C8_14  and  O2_15 
REMARK    7  A    between atoms: C8_14  and  C9_17 
REMARK    8  A    between atoms: C9_17  and  N3_18 
REMARK    9  A    between atoms: C9_17  and  C10_22 
REMARK   10  A    between atoms: C13_33  and  C14_34 
ROOT
HETATM    1  C1  UNL     1     -43.153  79.014 102.935  1.00  0.00     0.050 C 
HETATM    2  C2  UNL     1     -44.026  77.881 102.538  1.00  0.00    -0.029 A 
HETATM    3  C3  UNL     1     -43.629  76.696 101.894  1.00  0.00     0.041 A 
HETATM    4  C4  UNL     1     -44.700  75.872 101.679  1.00  0.00     0.064 A 
HETATM    5  C12 UNL     1     -45.845  76.516 102.193  1.00  0.00     0.089 A 
HETATM    6  N8  UNL     1     -47.146  76.178 102.248  1.00  0.00    -0.335 N 
ATOM      7  H8  UNL     1     -47.459  75.283 101.871  1.00  0.00     0.168 HD
HETATM    8  C13 UNL     1     -48.023  77.015 102.797  1.00  0.00     0.155 A 
HETATM    9  N13 UNL     1     -47.612  78.177 103.288  1.00  0.00    -0.283 N 
ATOM     10  H13 UNL     1     -48.309  78.796 103.703  1.00  0.00     0.188 HD
HETATM   11  N14 UNL     1     -46.354  78.582 103.273  1.00  0.00    -0.296 N 
ATOM     12  H14 UNL     1     -46.103  79.489 103.667  1.00  0.00     0.187 HD
HETATM   13  C19 UNL     1     -45.386  77.780 102.726  1.00  0.00     0.083 A 
ENDROOT
BRANCH   4  14
HETATM   14  N1  UNL     1     -44.834  74.611 101.051  1.00  0.00    -0.324 N 
HETATM   15  C5  UNL     1     -44.226  73.445 101.602  1.00  0.00     0.247 C 
HETATM   16  O1  UNL     1     -43.567  73.469 102.651  1.00  0.00    -0.271 OA
ATOM     17  H1  UNL     1     -45.374  74.536 100.189  1.00  0.00     0.169 HD
BRANCH  15  18
HETATM   18  C6  UNL     1     -44.411  72.197 100.867  1.00  0.00     0.335 C 
BRANCH  18  19
HETATM   19  N2  UNL     1     -43.555  71.939  99.758  1.00  0.00    -0.064 N 
ATOM     20  H22 UNL     1     -43.960  71.256  99.117  1.00  0.00     0.277 HD
ATOM     21  H21 UNL     1     -43.507  72.734  99.122  1.00  0.00     0.277 HD
BRANCH  19  22
HETATM   22  C7  UNL     1     -42.246  71.537 100.215  1.00  0.00     0.266 C 
BRANCH  22  23
HETATM   23  C8  UNL     1     -41.212  72.314  99.408  1.00  0.00     0.181 C 
BRANCH  23  24
HETATM   24  O2  UNL     1     -40.064  71.454  99.436  1.00  0.00    -0.391 OA
ATOM     25  H2  UNL     1     -40.319  70.738  98.867  1.00  0.00     0.210 HD
ENDBRANCH  23  24
BRANCH  23  26
HETATM   26  C9  UNL     1     -40.786  73.526 100.174  1.00  0.00     0.283 C 
BRANCH  26  27
HETATM   27  N3  UNL     1     -41.457  74.734  99.796  1.00  0.00    -0.066 N 
ATOM     28  H33 UNL     1     -41.400  74.872  98.787  1.00  0.00     0.275 HD
ATOM     29  H32 UNL     1     -42.466  74.627  99.902  1.00  0.00     0.275 HD
ATOM     30  H31 UNL     1     -41.136  75.568 100.287  1.00  0.00     0.275 HD
ENDBRANCH  26  27
BRANCH  26  31
HETATM   31  C10 UNL     1     -39.293  73.623 100.074  1.00  0.00     0.143 A 
HETATM   32  N4  UNL     1     -38.412  73.451 101.053  1.00  0.00    -0.269 N 
HETATM   33  N5  UNL     1     -37.195  73.643 100.579  1.00  0.00    -0.003 NA
ATOM     34  H4  UNL     1     -38.640  73.209 102.017  1.00  0.00     0.185 HD
HETATM   35  N6  UNL     1     -37.317  73.940  99.283  1.00  0.00    -0.221 N 
HETATM   36  C11 UNL     1     -36.143  74.216  98.478  1.00  0.00     0.197 C 
HETATM   37  N7  UNL     1     -38.596  73.931  98.952  1.00  0.00    -0.271 N 
ATOM     38  H7  UNL     1     -38.986  74.121  98.028  1.00  0.00     0.189 HD
ENDBRANCH  26  31
ENDBRANCH  23  26
ENDBRANCH  22  23
ENDBRANCH  19  22
ENDBRANCH  18  19
ENDBRANCH  15  18
ENDBRANCH   4  14
BRANCH   8  39
HETATM   39  C14 UNL     1     -49.444  76.597 102.807  1.00  0.00     0.122 A 
HETATM   40  N9  UNL     1     -50.484  77.274 103.239  1.00  0.00    -0.332 N 
HETATM   41  C15 UNL     1     -51.667  76.744 103.188  1.00  0.00     0.128 A 
ATOM     42  H9  UNL     1     -50.362  78.215 103.613  1.00  0.00     0.168 HD
HETATM   43  N10 UNL     1     -52.833  77.339 103.595  1.00  0.00    -0.337 N 
HETATM   44  C18 UNL     1     -51.781  75.482 102.678  1.00  0.00     0.094 A 
HETATM   45  C16 UNL     1     -53.997  76.698 103.489  1.00  0.00     0.183 A 
ATOM     46  H10 UNL     1     -52.810  78.282 103.984  1.00  0.00     0.168 HD
HETATM   47  N11 UNL     1     -54.149  75.464 102.995  1.00  0.00    -0.338 N 
HETATM   48  C17 UNL     1     -53.034  74.849 102.587  1.00  0.00     0.120 A 
ATOM     49  H11 UNL     1     -55.063  75.017 102.934  1.00  0.00     0.168 HD
HETATM   50  N12 UNL     1     -53.035  73.665 102.101  1.00  0.00    -0.384 N 
ATOM     51 2H12 UNL     1     -53.944  73.206 102.035  1.00  0.00     0.157 HD
ATOM     52 1H12 UNL     1     -52.184  73.197 101.789  1.00  0.00     0.157 HD
HETATM   53  S1  UNL     1     -50.146  75.132 102.297  1.00  0.00    -0.061 SA
ENDBRANCH   8  39
TORSDOF 10
ENDMDL
MODEL 4
REMARK VINA RESULT: -8.812098111      1.768      2.047
REMARK  10 active torsions:
REMARK  status: ('A' for Active; 'I' for Inactive)
REMARK    1  A    between atoms: C4_4  and  N1_5 
REMARK       I    between atoms: N1_5  and  C5_7 
REMARK    2  A    between atoms: C5_7  and  C6_9 
REMARK    3  A    between atoms: C6_9  and  N2_10 
REMARK    4  A    between atoms: N2_10  and  C7_13 
REMARK    5  A    between atoms: C7_13  and  C8_14 
REMARK    6  A    between atoms: C8_14  and  O2_15 
REMARK    7  A    between atoms: C8_14  and  C9_17 
REMARK    8  A    between atoms: C9_17  and  N3_18 
REMARK    9  A    between atoms: C9_17  and  C10_22 
REMARK   10  A    between atoms: C13_33  and  C14_34 
ROOT
HETATM    1  C1  UNL     1     -43.654  78.677 102.877  1.00  0.00     0.050 C 
HETATM    2  C2  UNL     1     -44.596  77.595 102.493  1.00  0.00    -0.029 A 
HETATM    3  C3  UNL     1     -44.278  76.397 101.830  1.00  0.00     0.041 A 
HETATM    4  C4  UNL     1     -45.396  75.633 101.635  1.00  0.00     0.064 A 
HETATM    5  C12 UNL     1     -46.493  76.331 102.181  1.00  0.00     0.089 A 
HETATM    6  N8  UNL     1     -47.808  76.062 102.266  1.00  0.00    -0.335 N 
ATOM      7  H8  UNL     1     -48.177  75.189 101.889  1.00  0.00     0.168 HD
HETATM    8  C13 UNL     1     -48.626  76.939 102.842  1.00  0.00     0.155 A 
HETATM    9  N13 UNL     1     -48.142  78.074 103.333  1.00  0.00    -0.283 N 
ATOM     10  H13 UNL     1     -48.795  78.725 103.769  1.00  0.00     0.188 HD
HETATM   11  N14 UNL     1     -46.865  78.411 103.290  1.00  0.00    -0.296 N 
ATOM     12  H14 UNL     1     -46.557  79.300 103.685  1.00  0.00     0.187 HD
HETATM   13  C19 UNL     1     -45.954  77.565 102.713  1.00  0.00     0.083 A 
ENDROOT
BRANCH   4  14
HETATM   14  N1  UNL     1     -45.611  74.386 101.001  1.00  0.00    -0.324 N 
HETATM   15  C5  UNL     1     -45.765  74.295  99.587  1.00  0.00     0.247 C 
HETATM   16  O1  UNL     1     -45.708  75.285  98.844  1.00  0.00    -0.271 OA
ATOM     17  H1  UNL     1     -45.658  73.539 101.566  1.00  0.00     0.169 HD
BRANCH  15  18
HETATM   18  C6  UNL     1     -45.999  72.963  99.034  1.00  0.00     0.335 C 
BRANCH  18  19
HETATM   19  N2  UNL     1     -44.910  72.298  98.402  1.00  0.00    -0.064 N 
ATOM     20  H22 UNL     1     -45.198  71.830  97.543  1.00  0.00     0.277 HD
ATOM     21  H21 UNL     1     -44.244  72.958  97.999  1.00  0.00     0.277 HD
BRANCH  19  22
HETATM   22  C7  UNL     1     -44.272  71.387  99.324  1.00  0.00     0.266 C 
BRANCH  22  23
HETATM   23  C8  UNL     1     -42.784  71.715  99.347  1.00  0.00     0.181 C 
BRANCH  23  24
HETATM   24  O2  UNL     1     -42.194  70.511  99.858  1.00  0.00    -0.391 OA
ATOM     25  H2  UNL     1     -42.291  69.902  99.136  1.00  0.00     0.210 HD
ENDBRANCH  23  24
BRANCH  23  26
HETATM   26  C9  UNL     1     -42.511  72.738 100.404  1.00  0.00     0.283 C 
BRANCH  26  27
HETATM   27  N3  UNL     1     -41.934  73.955  99.918  1.00  0.00    -0.066 N 
ATOM     28  H33 UNL     1     -41.157  73.753  99.288  1.00  0.00     0.275 HD
ATOM     29  H32 UNL     1     -42.571  74.415  99.268  1.00  0.00     0.275 HD
ATOM     30  H31 UNL     1     -41.640  74.606 100.647  1.00  0.00     0.275 HD
ENDBRANCH  26  27
BRANCH  26  31
HETATM   31  C10 UNL     1     -41.691  72.078 101.472  1.00  0.00     0.143 A 
HETATM   32  N4  UNL     1     -42.133  71.533 102.599  1.00  0.00    -0.269 N 
HETATM   33  N5  UNL     1     -41.106  71.078 103.293  1.00  0.00    -0.003 NA
ATOM     34  H4  UNL     1     -43.111  71.475 102.883  1.00  0.00     0.185 HD
HETATM   35  N6  UNL     1     -40.004  71.343 102.587  1.00  0.00    -0.221 N 
HETATM   36  C11 UNL     1     -38.698  70.969 103.095  1.00  0.00     0.197 C 
HETATM   37  N7  UNL     1     -40.341  71.956 101.465  1.00  0.00    -0.271 N 
ATOM     38  H7  UNL     1     -39.705  72.276 100.734  1.00  0.00     0.189 HD
ENDBRANCH  26  31
ENDBRANCH  23  26
ENDBRANCH  22  23
ENDBRANCH  19  22
ENDBRANCH  18  19
ENDBRANCH  15  18
ENDBRANCH   4  14
BRANCH   8  39
HETATM   39  C14 UNL     1     -50.066  76.597 102.884  1.00  0.00     0.122 A 
HETATM   40  N9  UNL     1     -51.066  77.350 103.282  1.00  0.00    -0.332 N 
HETATM   41  C15 UNL     1     -52.275  76.880 103.268  1.00  0.00     0.128 A 
ATOM     42  H9  UNL     1     -50.893  78.303 103.603  1.00  0.00     0.168 HD
HETATM   43  N10 UNL     1     -53.406  77.557 103.647  1.00  0.00    -0.337 N 
HETATM   44  C18 UNL     1     -52.459  75.599 102.830  1.00  0.00     0.094 A 
HETATM   45  C16 UNL     1     -54.602  76.973 103.584  1.00  0.00     0.183 A 
ATOM     46  H10 UNL     1     -53.331  78.518 103.982  1.00  0.00     0.168 HD
HETATM   47  N11 UNL     1     -54.822  75.723 103.161  1.00  0.00    -0.338 N 
HETATM   48  C17 UNL     1     -53.743  75.029 102.782  1.00  0.00     0.120 A 
ATOM     49  H11 UNL     1     -55.759  75.321 103.130  1.00  0.00     0.168 HD
HETATM   50  N12 UNL     1     -53.810  73.821 102.363  1.00  0.00    -0.384 N 
ATOM     51 2H12 UNL     1     -54.742  73.407 102.328  1.00  0.00     0.157 HD
ATOM     52 1H12 UNL     1     -52.987  73.292 102.074  1.00  0.00     0.157 HD
HETATM   53  S1  UNL     1     -50.848  75.144 102.461  1.00  0.00    -0.061 SA
ENDBRANCH   8  39
TORSDOF 10
ENDMDL
MODEL 5
REMARK VINA RESULT: -8.785807063      3.768      7.155
REMARK  10 active torsions:
REMARK  status: ('A' for Active; 'I' for Inactive)
REMARK    1  A    between atoms: C4_4  and  N1_5 
REMARK       I    between atoms: N1_5  and  C5_7 
REMARK    2  A    between atoms: C5_7  and  C6_9 
REMARK    3  A    between atoms: C6_9  and  N2_10 
REMARK    4  A    between atoms: N2_10  and  C7_13 
REMARK    5  A    between atoms: C7_13  and  C8_14 
REMARK    6  A    between atoms: C8_14  and  O2_15 
REMARK    7  A    between atoms: C8_14  and  C9_17 
REMARK    8  A    between atoms: C9_17  and  N3_18 
REMARK    9  A    between atoms: C9_17  and  C10_22 
REMARK   10  A    between atoms: C13_33  and  C14_34 
ROOT
HETATM    1  C1  UNL     1     -42.746  70.088  97.461  1.00  0.00     0.050 C 
HETATM    2  C2  UNL     1     -42.252  71.110  98.418  1.00  0.00    -0.029 A 
HETATM    3  C3  UNL     1     -40.935  71.255  98.890  1.00  0.00     0.041 A 
HETATM    4  C4  UNL     1     -40.841  72.304  99.764  1.00  0.00     0.064 A 
HETATM    5  C12 UNL     1     -42.122  72.881  99.880  1.00  0.00     0.089 A 
HETATM    6  N8  UNL     1     -42.607  73.916 100.591  1.00  0.00    -0.335 N 
ATOM      7  H8  UNL     1     -41.987  74.458 101.193  1.00  0.00     0.168 HD
HETATM    8  C13 UNL     1     -43.897  74.228 100.506  1.00  0.00     0.155 A 
HETATM    9  N13 UNL     1     -44.701  73.522  99.721  1.00  0.00    -0.283 N 
ATOM     10  H13 UNL     1     -45.684  73.787  99.677  1.00  0.00     0.188 HD
HETATM   11  N14 UNL     1     -44.302  72.494  98.991  1.00  0.00    -0.296 N 
ATOM     12  H14 UNL     1     -44.971  71.991  98.408  1.00  0.00     0.187 HD
HETATM   13  C19 UNL     1     -42.989  72.104  99.020  1.00  0.00     0.083 A 
ENDROOT
BRANCH   4  14
HETATM   14  N1  UNL     1     -39.769  72.830 100.523  1.00  0.00    -0.324 N 
HETATM   15  C5  UNL     1     -39.224  72.112 101.627  1.00  0.00     0.247 C 
HETATM   16  O1  UNL     1     -39.645  70.998 101.971  1.00  0.00    -0.271 OA
ATOM     17  H1  UNL     1     -39.380  73.740 100.276  1.00  0.00     0.169 HD
BRANCH  15  18
HETATM   18  C6  UNL     1     -38.131  72.751 102.355  1.00  0.00     0.335 C 
BRANCH  18  19
HETATM   19  N2  UNL     1     -37.334  73.707 101.662  1.00  0.00    -0.064 N 
ATOM     20  H22 UNL     1     -37.905  74.367 101.135  1.00  0.00     0.277 HD
ATOM     21  H21 UNL     1     -36.891  74.368 102.301  1.00  0.00     0.277 HD
BRANCH  19  22
HETATM   22  C7  UNL     1     -36.366  73.042 100.822  1.00  0.00     0.266 C 
BRANCH  22  23
HETATM   23  C8  UNL     1     -36.333  73.771  99.483  1.00  0.00     0.181 C 
BRANCH  23  24
HETATM   24  O2  UNL     1     -37.396  73.148  98.748  1.00  0.00    -0.391 OA
ATOM     25  H2  UNL     1     -37.311  73.530  97.882  1.00  0.00     0.210 HD
ENDBRANCH  23  24
BRANCH  23  26
HETATM   26  C9  UNL     1     -35.094  73.392  98.736  1.00  0.00     0.283 C 
BRANCH  26  27
HETATM   27  N3  UNL     1     -33.971  73.076  99.568  1.00  0.00    -0.066 N 
ATOM     28  H33 UNL     1     -33.809  72.069  99.578  1.00  0.00     0.275 HD
ATOM     29  H32 UNL     1     -33.105  73.389  99.129  1.00  0.00     0.275 HD
ATOM     30  H31 UNL     1     -34.036  73.435 100.521  1.00  0.00     0.275 HD
ENDBRANCH  26  27
BRANCH  26  31
HETATM   31  C10 UNL     1     -34.810  74.484  97.748  1.00  0.00     0.143 A 
HETATM   32  N4  UNL     1     -33.712  75.225  97.667  1.00  0.00    -0.269 N 
HETATM   33  N5  UNL     1     -33.848  76.097  96.685  1.00  0.00    -0.003 NA
ATOM     34  H4  UNL     1     -32.893  75.135  98.268  1.00  0.00     0.185 HD
HETATM   35  N6  UNL     1     -35.052  75.897  96.143  1.00  0.00    -0.221 N 
HETATM   36  C11 UNL     1     -35.504  76.714  95.034  1.00  0.00     0.197 C 
HETATM   37  N7  UNL     1     -35.659  74.910  96.780  1.00  0.00    -0.271 N 
ATOM     38  H7  UNL     1     -36.589  74.541  96.581  1.00  0.00     0.189 HD
ENDBRANCH  26  31
ENDBRANCH  23  26
ENDBRANCH  22  23
ENDBRANCH  19  22
ENDBRANCH  18  19
ENDBRANCH  15  18
ENDBRANCH   4  14
BRANCH   8  39
HETATM   39  C14 UNL     1     -44.376  75.361 101.331  1.00  0.00     0.122 A 
HETATM   40  N9  UNL     1     -43.680  76.117 102.150  1.00  0.00    -0.332 N 
HETATM   41  C15 UNL     1     -44.269  77.064 102.814  1.00  0.00     0.128 A 
ATOM     42  H9  UNL     1     -42.678  75.961 102.264  1.00  0.00     0.168 HD
HETATM   43  N10 UNL     1     -43.664  77.927 103.691  1.00  0.00    -0.337 N 
HETATM   44  C18 UNL     1     -45.611  77.236 102.628  1.00  0.00     0.094 A 
HETATM   45  C16 UNL     1     -44.371  78.870 104.313  1.00  0.00     0.183 A 
ATOM     46  H10 UNL     1     -42.663  77.847 103.869  1.00  0.00     0.168 HD
HETATM   47  N11 UNL     1     -45.685  79.070 104.158  1.00  0.00    -0.338 N 
HETATM   48  C17 UNL     1     -46.311  78.248 103.310  1.00  0.00     0.120 A 
ATOM     49  H11 UNL     1     -46.180  79.808 104.657  1.00  0.00     0.168 HD
HETATM   50  N12 UNL     1     -47.567  78.324 103.073  1.00  0.00    -0.384 N 
ATOM     51 2H12 UNL     1     -48.075  79.057 103.568  1.00  0.00     0.157 HD
ATOM     52 1H12 UNL     1     -48.045  77.697 102.426  1.00  0.00     0.157 HD
HETATM   53  S1  UNL     1     -45.947  76.000 101.489  1.00  0.00    -0.061 SA
ENDBRANCH   8  39
TORSDOF 10
ENDMDL
