MODEL 1
REMARK VINA RESULT: -4.932029971      0.000      0.000
REMARK  1 active torsions:
REMARK  status: ('A' for Active; 'I' for Inactive)
REMARK    1  A    between atoms: C5_6  and  O2_7 
ROOT
HETATM    1  C1  UNL     1      74.542  44.679  53.840  1.00  0.00     0.078 C 
HETATM    2  C2  UNL     1      74.408  44.168  52.402  1.00  0.00     0.156 C 
HETATM    3  C3  UNL     1      72.937  43.957  52.159  1.00  0.00     0.078 C 
HETATM    4  O1  UNL     1      75.082  42.940  52.376  1.00  0.00    -0.353 OA
HETATM    5  C4  UNL     1      75.101  42.405  51.099  1.00  0.00     0.205 C 
HETATM    6  C5  UNL     1      75.710  43.358  50.090  1.00  0.00     0.165 C 
HETATM    7  C6  UNL     1      75.131  44.744  50.277  1.00  0.00     0.205 C 
HETATM    8  O3  UNL     1      74.979  45.109  51.586  1.00  0.00    -0.353 OA
ENDROOT
BRANCH   6   9
HETATM    9  O2  UNL     1      75.459  42.857  48.833  1.00  0.00    -0.391 OA
ATOM     10  H2  UNL     1      74.566  42.535  48.822  1.00  0.00     0.210 HD
ENDBRANCH   6   9
TORSDOF 1
ENDMDL
MODEL 2
REMARK VINA RESULT: -4.931303203      2.621      4.253
REMARK  1 active torsions:
REMARK  status: ('A' for Active; 'I' for Inactive)
REMARK    1  A    between atoms: C5_6  and  O2_7 
ROOT
HETATM    1  C1  UNL     1      74.821  44.455  53.733  1.00  0.00     0.078 C 
HETATM    2  C2  UNL     1      73.461  44.300  53.045  1.00  0.00     0.156 C 
HETATM    3  C3  UNL     1      73.721  43.594  51.741  1.00  0.00     0.078 C 
HETATM    4  O1  UNL     1      73.010  45.605  52.806  1.00  0.00    -0.353 OA
HETATM    5  C4  UNL     1      71.740  45.603  52.253  1.00  0.00     0.205 C 
HETATM    6  C5  UNL     1      70.743  44.852  53.113  1.00  0.00     0.165 C 
HETATM    7  C6  UNL     1      71.334  43.530  53.551  1.00  0.00     0.205 C 
HETATM    8  O3  UNL     1      72.653  43.603  53.905  1.00  0.00    -0.353 OA
ENDROOT
BRANCH   6   9
HETATM    9  O2  UNL     1      69.593  44.686  52.376  1.00  0.00    -0.391 OA
ATOM     10  H2  UNL     1      69.846  44.448  51.492  1.00  0.00     0.210 HD
ENDBRANCH   6   9
TORSDOF 1
ENDMDL
MODEL 3
REMARK VINA RESULT: -4.907918732      2.588      3.823
REMARK  1 active torsions:
REMARK  status: ('A' for Active; 'I' for Inactive)
REMARK    1  A    between atoms: C5_6  and  O2_7 
ROOT
HETATM    1  C1  UNL     1      74.676  45.001  53.703  1.00  0.00     0.078 C 
HETATM    2  C2  UNL     1      73.576  45.259  52.668  1.00  0.00     0.156 C 
HETATM    3  C3  UNL     1      73.178  43.912  52.125  1.00  0.00     0.078 C 
HETATM    4  O1  UNL     1      74.179  46.026  51.663  1.00  0.00    -0.353 OA
HETATM    5  C4  UNL     1      73.260  46.396  50.696  1.00  0.00     0.205 C 
HETATM    6  C5  UNL     1      72.078  47.140  51.285  1.00  0.00     0.165 C 
HETATM    7  C6  UNL     1      71.572  46.412  52.511  1.00  0.00     0.205 C 
HETATM    8  O3  UNL     1      72.565  45.921  53.314  1.00  0.00    -0.353 OA
ENDROOT
BRANCH   6   9
HETATM    9  O2  UNL     1      71.115  47.240  50.308  1.00  0.00    -0.391 OA
ATOM     10  H2  UNL     1      70.277  47.035  50.704  1.00  0.00     0.210 HD
ENDBRANCH   6   9
TORSDOF 1
ENDMDL
MODEL 4
REMARK VINA RESULT: -4.800411829      3.526      5.287
REMARK  1 active torsions:
REMARK  status: ('A' for Active; 'I' for Inactive)
REMARK    1  A    between atoms: C5_6  and  O2_7 
ROOT
HETATM    1  C1  UNL     1      73.593  47.025  50.750  1.00  0.00     0.078 C 
HETATM    2  C2  UNL     1      72.492  46.445  51.643  1.00  0.00     0.156 C 
HETATM    3  C3  UNL     1      71.654  45.555  50.764  1.00  0.00     0.078 C 
HETATM    4  O1  UNL     1      71.739  47.547  52.072  1.00  0.00    -0.353 OA
HETATM    5  C4  UNL     1      70.748  47.161  52.959  1.00  0.00     0.205 C 
HETATM    6  C5  UNL     1      71.308  46.413  54.152  1.00  0.00     0.165 C 
HETATM    7  C6  UNL     1      72.296  45.366  53.685  1.00  0.00     0.205 C 
HETATM    8  O3  UNL     1      73.113  45.788  52.673  1.00  0.00    -0.353 OA
ENDROOT
BRANCH   6   9
HETATM    9  O2  UNL     1      70.250  45.857  54.835  1.00  0.00    -0.391 OA
ATOM     10  H2  UNL     1      69.859  45.196  54.277  1.00  0.00     0.210 HD
ENDBRANCH   6   9
TORSDOF 1
ENDMDL
MODEL 5
REMARK VINA RESULT: -4.769551674      3.372      5.005
REMARK  1 active torsions:
REMARK  status: ('A' for Active; 'I' for Inactive)
REMARK    1  A    between atoms: C5_6  and  O2_7 
ROOT
HETATM    1  C1  UNL     1      74.271  45.009  53.429  1.00  0.00     0.078 C 
HETATM    2  C2  UNL     1      72.809  45.345  53.116  1.00  0.00     0.156 C 
HETATM    3  C3  UNL     1      72.212  44.112  52.492  1.00  0.00     0.078 C 
HETATM    4  O1  UNL     1      72.857  46.386  52.179  1.00  0.00    -0.353 OA
HETATM    5  C4  UNL     1      71.585  46.839  51.869  1.00  0.00     0.205 C 
HETATM    6  C5  UNL     1      70.819  47.278  53.101  1.00  0.00     0.165 C 
HETATM    7  C6  UNL     1      70.962  46.239  54.192  1.00  0.00     0.205 C 
HETATM    8  O3  UNL     1      72.220  45.714  54.297  1.00  0.00    -0.353 OA
ENDROOT
BRANCH   6   9
HETATM    9  O2  UNL     1      69.506  47.467  52.735  1.00  0.00    -0.391 OA
ATOM     10  H2  UNL     1      69.204  48.270  53.141  1.00  0.00     0.210 HD
ENDBRANCH   6   9
TORSDOF 1
ENDMDL
