MODEL 1
REMARK VINA RESULT: -4.614853261      0.000      0.000
REMARK  2 active torsions:
REMARK  status: ('A' for Active; 'I' for Inactive)
REMARK    1  A    between atoms: C3_3  and  N1_4 
REMARK    2  A    between atoms: C6_11  and  O1_12 
ROOT
HETATM    1  C1  UNL     1      71.194  46.241  53.143  1.00  0.00     0.016 C 
HETATM    2  C2  UNL     1      72.344  46.346  52.176  1.00  0.00     0.073 C 
HETATM    3  C3  UNL     1      73.280  45.178  52.235  1.00  0.00     0.219 C 
HETATM    4  C4  UNL     1      73.934  45.216  50.872  1.00  0.00     0.308 C 
HETATM    5  N2  UNL     1      73.173  46.113  50.052  1.00  0.00     0.115 N 
HETATM    6  C5  UNL     1      73.751  47.450  50.012  1.00  0.00     0.313 C 
HETATM    7  C6  UNL     1      71.871  46.180  50.724  1.00  0.00     0.361 C 
ENDROOT
BRANCH   3   8
HETATM    8  N1  UNL     1      74.296  45.288  53.240  1.00  0.00    -0.073 N 
ATOM      9  H13 UNL     1      74.535  46.267  53.401  1.00  0.00     0.274 HD
ATOM     10  H12 UNL     1      73.917  45.047  54.156  1.00  0.00     0.274 HD
ATOM     11  H11 UNL     1      75.137  44.743  53.049  1.00  0.00     0.274 HD
ENDBRANCH   3   8
BRANCH   7  12
HETATM   12  O1  UNL     1      71.097  47.211  50.296  1.00  0.00    -0.367 OA
ATOM     13  H1  UNL     1      71.286  47.473  49.403  1.00  0.00     0.212 HD
ENDBRANCH   7  12
TORSDOF 2
ENDMDL
MODEL 2
REMARK VINA RESULT: -4.575817725      2.061      3.019
REMARK  2 active torsions:
REMARK  status: ('A' for Active; 'I' for Inactive)
REMARK    1  A    between atoms: C3_3  and  N1_4 
REMARK    2  A    between atoms: C6_11  and  O1_12 
ROOT
HETATM    1  C1  UNL     1      72.919  48.945  50.135  1.00  0.00     0.016 C 
HETATM    2  C2  UNL     1      73.019  47.581  50.767  1.00  0.00     0.073 C 
HETATM    3  C3  UNL     1      71.737  46.808  50.721  1.00  0.00     0.219 C 
HETATM    4  C4  UNL     1      72.215  45.378  50.843  1.00  0.00     0.308 C 
HETATM    5  N2  UNL     1      73.633  45.377  50.635  1.00  0.00     0.115 N 
HETATM    6  C5  UNL     1      74.375  45.394  51.889  1.00  0.00     0.313 C 
HETATM    7  C6  UNL     1      73.882  46.634  49.921  1.00  0.00     0.361 C 
ENDROOT
BRANCH   3   8
HETATM    8  N1  UNL     1      70.839  47.091  51.802  1.00  0.00    -0.073 N 
ATOM      9  H13 UNL     1      71.318  46.997  52.698  1.00  0.00     0.274 HD
ATOM     10  H12 UNL     1      70.615  48.086  51.828  1.00  0.00     0.274 HD
ATOM     11  H11 UNL     1      69.984  46.534  51.795  1.00  0.00     0.274 HD
ENDBRANCH   3   8
BRANCH   7  12
HETATM   12  O1  UNL     1      75.193  46.988  49.895  1.00  0.00    -0.367 OA
ATOM     13  H1  UNL     1      75.765  46.278  49.629  1.00  0.00     0.212 HD
ENDBRANCH   7  12
TORSDOF 2
ENDMDL
MODEL 3
REMARK VINA RESULT: -4.569190111      2.387      3.549
REMARK  2 active torsions:
REMARK  status: ('A' for Active; 'I' for Inactive)
REMARK    1  A    between atoms: C3_3  and  N1_4 
REMARK    2  A    between atoms: C6_11  and  O1_12 
ROOT
HETATM    1  C1  UNL     1      71.243  47.319  52.529  1.00  0.00     0.016 C 
HETATM    2  C2  UNL     1      71.376  45.819  52.584  1.00  0.00     0.073 C 
HETATM    3  C3  UNL     1      72.685  45.318  52.055  1.00  0.00     0.219 C 
HETATM    4  C4  UNL     1      72.813  43.970  52.729  1.00  0.00     0.308 C 
HETATM    5  N2  UNL     1      71.830  43.913  53.771  1.00  0.00     0.115 N 
HETATM    6  C5  UNL     1      70.615  43.227  53.348  1.00  0.00     0.313 C 
HETATM    7  C6  UNL     1      71.513  45.321  54.030  1.00  0.00     0.361 C 
ENDROOT
BRANCH   3   8
HETATM    8  N1  UNL     1      72.715  45.131  50.634  1.00  0.00    -0.073 N 
ATOM      9  H13 UNL     1      73.551  44.615  50.360  1.00  0.00     0.274 HD
ATOM     10  H12 UNL     1      71.997  44.466  50.348  1.00  0.00     0.274 HD
ATOM     11  H11 UNL     1      72.636  45.994  50.096  1.00  0.00     0.274 HD
ENDBRANCH   3   8
BRANCH   7  12
HETATM   12  O1  UNL     1      70.381  45.493  54.761  1.00  0.00    -0.367 OA
ATOM     13  H1  UNL     1      70.050  44.683  55.130  1.00  0.00     0.212 HD
ENDBRANCH   7  12
TORSDOF 2
ENDMDL
MODEL 4
REMARK VINA RESULT: -4.565808935      2.155      3.155
REMARK  2 active torsions:
REMARK  status: ('A' for Active; 'I' for Inactive)
REMARK    1  A    between atoms: C3_3  and  N1_4 
REMARK    2  A    between atoms: C6_11  and  O1_12 
ROOT
HETATM    1  C1  UNL     1      72.211  47.751  50.944  1.00  0.00     0.016 C 
HETATM    2  C2  UNL     1      72.137  46.609  51.924  1.00  0.00     0.073 C 
HETATM    3  C3  UNL     1      70.853  46.566  52.693  1.00  0.00     0.219 C 
HETATM    4  C4  UNL     1      70.775  45.116  53.114  1.00  0.00     0.308 C 
HETATM    5  N2  UNL     1      71.752  44.392  52.356  1.00  0.00     0.115 N 
HETATM    6  C5  UNL     1      72.996  44.205  53.094  1.00  0.00     0.313 C 
HETATM    7  C6  UNL     1      72.011  45.260  51.202  1.00  0.00     0.361 C 
ENDROOT
BRANCH   3   8
HETATM    8  N1  UNL     1      70.840  47.392  53.865  1.00  0.00    -0.073 N 
ATOM      9  H13 UNL     1      71.779  47.735  54.070  1.00  0.00     0.274 HD
ATOM     10  H12 UNL     1      70.369  48.276  53.673  1.00  0.00     0.274 HD
ATOM     11  H11 UNL     1      70.436  46.946  54.689  1.00  0.00     0.274 HD
ENDBRANCH   3   8
BRANCH   7  12
HETATM   12  O1  UNL     1      73.131  44.918  50.513  1.00  0.00    -0.367 OA
ATOM     13  H1  UNL     1      73.131  44.012  50.229  1.00  0.00     0.212 HD
ENDBRANCH   7  12
TORSDOF 2
ENDMDL
MODEL 5
REMARK VINA RESULT: -4.553754317      2.105      2.429
REMARK  2 active torsions:
REMARK  status: ('A' for Active; 'I' for Inactive)
REMARK    1  A    between atoms: C3_3  and  N1_4 
REMARK    2  A    between atoms: C6_11  and  O1_12 
ROOT
HETATM    1  C1  UNL     1      70.961  43.280  54.170  1.00  0.00     0.016 C 
HETATM    2  C2  UNL     1      71.612  44.327  53.303  1.00  0.00     0.073 C 
HETATM    3  C3  UNL     1      72.629  43.769  52.357  1.00  0.00     0.219 C 
HETATM    4  C4  UNL     1      72.680  44.825  51.275  1.00  0.00     0.308 C 
HETATM    5  N2  UNL     1      71.554  45.691  51.463  1.00  0.00     0.115 N 
HETATM    6  C5  UNL     1      71.902  46.896  52.207  1.00  0.00     0.313 C 
HETATM    7  C6  UNL     1      70.627  44.889  52.268  1.00  0.00     0.361 C 
ENDROOT
BRANCH   3   8
HETATM    8  N1  UNL     1      73.939  43.619  52.920  1.00  0.00    -0.073 N 
ATOM      9  H13 UNL     1      74.621  44.155  52.384  1.00  0.00     0.274 HD
ATOM     10  H12 UNL     1      73.999  44.104  53.815  1.00  0.00     0.274 HD
ATOM     11  H11 UNL     1      74.245  42.650  53.018  1.00  0.00     0.274 HD
ENDBRANCH   3   8
BRANCH   7  12
HETATM   12  O1  UNL     1      69.627  45.620  52.827  1.00  0.00    -0.367 OA
ATOM     13  H1  UNL     1      69.484  46.450  52.389  1.00  0.00     0.212 HD
ENDBRANCH   7  12
TORSDOF 2
ENDMDL
