MODEL 1
REMARK VINA RESULT: -8.054429661      0.000      0.000
REMARK  3 active torsions:
REMARK  status: ('A' for Active; 'I' for Inactive)
REMARK    1  A    between atoms: C2_2  and  O1_3 
REMARK    2  A    between atoms: O1_3  and  C3_4 
REMARK       I    between atoms: C3_4  and  N1_6 
REMARK    3  A    between atoms: N1_6  and  C4_8 
ROOT
HETATM    1  C4  UNL     1      15.341  66.828   4.443  1.00  0.00     0.081 A 
HETATM    2  C5  UNL     1      15.614  67.081   5.756  1.00  0.00     0.075 A 
HETATM    3  C6  UNL     1      16.730  67.792   6.020  1.00  0.00     0.085 A 
HETATM    4  C7  UNL     1      17.484  68.195   4.954  1.00  0.00     0.027 A 
HETATM    5  S1  UNL     1      16.632  67.579   3.620  1.00  0.00    -0.073 SA
HETATM    6  C8  UNL     1      18.747  68.988   5.054  1.00  0.00     0.001 C 
HETATM    7  C9  UNL     1      19.947  68.127   4.724  1.00  0.00     0.042 C 
HETATM    8  C10 UNL     1      21.071  69.002   4.210  1.00  0.00     0.233 C 
HETATM    9  N2  UNL     1      20.742  69.443   2.868  1.00  0.00    -0.075 N 
ATOM     10  H21 UNL     1      21.112  68.808   2.161  1.00  0.00     0.277 HD
ATOM     11  H22 UNL     1      21.262  70.282   2.608  1.00  0.00     0.277 HD
HETATM   12  C11 UNL     1      19.321  69.630   2.727  1.00  0.00     0.233 C 
HETATM   13  C12 UNL     1      18.735  70.119   4.033  1.00  0.00     0.042 C 
HETATM   14  C13 UNL     1      18.842  69.597   6.412  1.00  0.00     0.042 C 
HETATM   15  C14 UNL     1      18.550  68.537   7.448  1.00  0.00     0.176 C 
HETATM   16  O3  UNL     1      17.193  68.162   7.321  1.00  0.00    -0.350 OA
ENDROOT
BRANCH   1  17
HETATM   17  N1  UNL     1      14.219  66.095   3.890  1.00  0.00    -0.296 N 
HETATM   18  C3  UNL     1      14.309  64.696   3.700  1.00  0.00     0.365 C 
HETATM   19  O2  UNL     1      15.346  64.064   4.002  1.00  0.00    -0.238 OA
ATOM     20  H1  UNL     1      13.364  66.588   3.636  1.00  0.00     0.171 HD
BRANCH  18  21
HETATM   21  O1  UNL     1      13.237  64.026   3.177  1.00  0.00    -0.304 OA
BRANCH  21  22
HETATM   22  C2  UNL     1      11.974  63.933   3.809  1.00  0.00     0.176 C 
HETATM   23  C1  UNL     1      12.101  63.914   5.316  1.00  0.00     0.034 C 
ENDBRANCH  21  22
ENDBRANCH  18  21
ENDBRANCH   1  17
TORSDOF 3
ENDMDL
MODEL 2
REMARK VINA RESULT: -8.006351037      2.113      3.081
REMARK  3 active torsions:
REMARK  status: ('A' for Active; 'I' for Inactive)
REMARK    1  A    between atoms: C2_2  and  O1_3 
REMARK    2  A    between atoms: O1_3  and  C3_4 
REMARK       I    between atoms: C3_4  and  N1_6 
REMARK    3  A    between atoms: N1_6  and  C4_8 
ROOT
HETATM    1  C4  UNL     1      15.787  67.444   4.411  1.00  0.00     0.081 A 
HETATM    2  C5  UNL     1      16.769  67.837   3.549  1.00  0.00     0.075 A 
HETATM    3  C6  UNL     1      17.922  68.272   4.097  1.00  0.00     0.085 A 
HETATM    4  C7  UNL     1      18.006  68.279   5.461  1.00  0.00     0.027 A 
HETATM    5  S1  UNL     1      16.489  67.687   5.946  1.00  0.00    -0.073 SA
HETATM    6  C8  UNL     1      19.200  68.725   6.240  1.00  0.00     0.001 C 
HETATM    7  C9  UNL     1      18.934  70.052   6.916  1.00  0.00     0.042 C 
HETATM    8  C10 UNL     1      19.811  70.179   8.144  1.00  0.00     0.233 C 
HETATM    9  N2  UNL     1      19.299  69.300   9.177  1.00  0.00    -0.075 N 
ATOM     10  H21 UNL     1      18.634  69.779   9.785  1.00  0.00     0.277 HD
ATOM     11  H22 UNL     1      20.012  69.079   9.873  1.00  0.00     0.277 HD
HETATM   12  C11 UNL     1      18.731  68.110   8.597  1.00  0.00     0.233 C 
HETATM   13  C12 UNL     1      19.500  67.727   7.352  1.00  0.00     0.042 C 
HETATM   14  C13 UNL     1      20.387  68.776   5.338  1.00  0.00     0.042 C 
HETATM   15  C14 UNL     1      20.013  69.512   4.073  1.00  0.00     0.176 C 
HETATM   16  O3  UNL     1      19.069  68.727   3.373  1.00  0.00    -0.350 OA
ENDROOT
BRANCH   1  17
HETATM   17  N1  UNL     1      14.465  66.941   4.090  1.00  0.00    -0.296 N 
HETATM   18  C3  UNL     1      14.146  65.583   4.323  1.00  0.00     0.365 C 
HETATM   19  O2  UNL     1      14.986  64.791   4.807  1.00  0.00    -0.238 OA
ATOM     20  H1  UNL     1      13.764  67.567   3.695  1.00  0.00     0.171 HD
BRANCH  18  21
HETATM   21  O1  UNL     1      12.892  65.132   4.013  1.00  0.00    -0.304 OA
BRANCH  21  22
HETATM   22  C2  UNL     1      12.271  64.023   4.636  1.00  0.00     0.176 C 
HETATM   23  C1  UNL     1      11.601  64.413   5.935  1.00  0.00     0.034 C 
ENDBRANCH  21  22
ENDBRANCH  18  21
ENDBRANCH   1  17
TORSDOF 3
ENDMDL
MODEL 3
REMARK VINA RESULT: -8.003867664      2.243      2.978
REMARK  3 active torsions:
REMARK  status: ('A' for Active; 'I' for Inactive)
REMARK    1  A    between atoms: C2_2  and  O1_3 
REMARK    2  A    between atoms: O1_3  and  C3_4 
REMARK       I    between atoms: C3_4  and  N1_6 
REMARK    3  A    between atoms: N1_6  and  C4_8 
ROOT
HETATM    1  C4  UNL     1      15.289  67.628   5.820  1.00  0.00     0.081 A 
HETATM    2  C5  UNL     1      15.600  68.044   4.558  1.00  0.00     0.075 A 
HETATM    3  C6  UNL     1      16.877  68.413   4.335  1.00  0.00     0.085 A 
HETATM    4  C7  UNL     1      17.746  68.337   5.388  1.00  0.00     0.027 A 
HETATM    5  S1  UNL     1      16.771  67.761   6.654  1.00  0.00    -0.073 SA
HETATM    6  C8  UNL     1      19.193  68.703   5.327  1.00  0.00     0.001 C 
HETATM    7  C9  UNL     1      19.451  69.995   6.071  1.00  0.00     0.042 C 
HETATM    8  C10 UNL     1      20.887  70.025   6.550  1.00  0.00     0.233 C 
HETATM    9  N2  UNL     1      21.029  69.102   7.659  1.00  0.00    -0.075 N 
ATOM     10  H21 UNL     1      20.876  69.562   8.557  1.00  0.00     0.277 HD
ATOM     11  H22 UNL     1      22.000  68.819   7.795  1.00  0.00     0.277 HD
HETATM   12  C11 UNL     1      20.162  67.964   7.489  1.00  0.00     0.233 C 
HETATM   13  C12 UNL     1      20.030  67.633   6.019  1.00  0.00     0.042 C 
HETATM   14  C13 UNL     1      19.626  68.773   3.902  1.00  0.00     0.042 C 
HETATM   15  C14 UNL     1      18.624  69.592   3.123  1.00  0.00     0.176 C 
HETATM   16  O3  UNL     1      17.405  68.877   3.089  1.00  0.00    -0.350 OA
ENDROOT
BRANCH   1  17
HETATM   17  N1  UNL     1      14.005  67.183   6.323  1.00  0.00    -0.296 N 
HETATM   18  C3  UNL     1      13.500  65.913   5.958  1.00  0.00     0.365 C 
HETATM   19  O2  UNL     1      14.142  65.152   5.200  1.00  0.00    -0.238 OA
ATOM     20  H1  UNL     1      13.463  67.786   6.942  1.00  0.00     0.171 HD
BRANCH  18  21
HETATM   21  O1  UNL     1      12.285  65.515   6.446  1.00  0.00    -0.304 OA
BRANCH  21  22
HETATM   22  C2  UNL     1      11.603  64.350   6.021  1.00  0.00     0.176 C 
HETATM   23  C1  UNL     1      10.669  64.637   4.866  1.00  0.00     0.034 C 
ENDBRANCH  21  22
ENDBRANCH  18  21
ENDBRANCH   1  17
TORSDOF 3
ENDMDL
MODEL 4
REMARK VINA RESULT: -7.964595275      2.225      3.177
REMARK  3 active torsions:
REMARK  status: ('A' for Active; 'I' for Inactive)
REMARK    1  A    between atoms: C2_2  and  O1_3 
REMARK    2  A    between atoms: O1_3  and  C3_4 
REMARK       I    between atoms: C3_4  and  N1_6 
REMARK    3  A    between atoms: N1_6  and  C4_8 
ROOT
HETATM    1  C4  UNL     1      14.529  66.306   4.868  1.00  0.00     0.081 A 
HETATM    2  C5  UNL     1      15.273  66.845   3.859  1.00  0.00     0.075 A 
HETATM    3  C6  UNL     1      16.363  67.553   4.217  1.00  0.00     0.085 A 
HETATM    4  C7  UNL     1      16.626  67.668   5.554  1.00  0.00     0.027 A 
HETATM    5  S1  UNL     1      15.359  66.795   6.275  1.00  0.00    -0.073 SA
HETATM    6  C8  UNL     1      17.785  68.411   6.134  1.00  0.00     0.001 C 
HETATM    7  C9  UNL     1      17.323  69.691   6.796  1.00  0.00     0.042 C 
HETATM    8  C10 UNL     1      18.307  70.084   7.877  1.00  0.00     0.233 C 
HETATM    9  N2  UNL     1      18.148  69.186   9.003  1.00  0.00    -0.075 N 
ATOM     10  H21 UNL     1      17.481  69.548   9.685  1.00  0.00     0.277 HD
ATOM     11  H22 UNL     1      18.979  69.169   9.595  1.00  0.00     0.277 HD
HETATM   12  C11 UNL     1      17.787  67.865   8.554  1.00  0.00     0.233 C 
HETATM   13  C12 UNL     1      18.447  67.577   7.224  1.00  0.00     0.042 C 
HETATM   14  C13 UNL     1      18.798  68.658   5.067  1.00  0.00     0.042 C 
HETATM   15  C14 UNL     1      18.102  69.211   3.846  1.00  0.00     0.176 C 
HETATM   16  O3  UNL     1      17.271  68.196   3.319  1.00  0.00    -0.350 OA
ENDROOT
BRANCH   1  17
HETATM   17  N1  UNL     1      13.322  65.510   4.760  1.00  0.00    -0.296 N 
HETATM   18  C3  UNL     1      13.325  64.313   4.006  1.00  0.00     0.365 C 
HETATM   19  O2  UNL     1      14.357  63.917   3.420  1.00  0.00    -0.238 OA
ATOM     20  H1  UNL     1      12.469  65.813   5.230  1.00  0.00     0.171 HD
BRANCH  18  21
HETATM   21  O1  UNL     1      12.173  63.579   3.920  1.00  0.00    -0.304 OA
BRANCH  21  22
HETATM   22  C2  UNL     1      10.884  64.140   3.764  1.00  0.00     0.176 C 
HETATM   23  C1  UNL     1      10.094  64.095   5.053  1.00  0.00     0.034 C 
ENDBRANCH  21  22
ENDBRANCH  18  21
ENDBRANCH   1  17
TORSDOF 3
ENDMDL
MODEL 5
REMARK VINA RESULT: -7.318732771      1.368      1.519
REMARK  3 active torsions:
REMARK  status: ('A' for Active; 'I' for Inactive)
REMARK    1  A    between atoms: C2_2  and  O1_3 
REMARK    2  A    between atoms: O1_3  and  C3_4 
REMARK       I    between atoms: C3_4  and  N1_6 
REMARK    3  A    between atoms: N1_6  and  C4_8 
ROOT
HETATM    1  C4  UNL     1      15.629  67.323   5.284  1.00  0.00     0.081 A 
HETATM    2  C5  UNL     1      16.543  67.570   6.267  1.00  0.00     0.075 A 
HETATM    3  C6  UNL     1      17.633  68.285   5.921  1.00  0.00     0.085 A 
HETATM    4  C7  UNL     1      17.725  68.699   4.621  1.00  0.00     0.027 A 
HETATM    5  S1  UNL     1      16.305  68.086   3.917  1.00  0.00    -0.073 SA
HETATM    6  C8  UNL     1      18.855  69.497   4.059  1.00  0.00     0.001 C 
HETATM    7  C9  UNL     1      19.712  68.645   3.148  1.00  0.00     0.042 C 
HETATM    8  C10 UNL     1      20.405  69.530   2.133  1.00  0.00     0.233 C 
HETATM    9  N2  UNL     1      19.428  69.977   1.159  1.00  0.00    -0.075 N 
ATOM     10  H21 UNL     1      19.378  69.348   0.357  1.00  0.00     0.277 HD
ATOM     11  H22 UNL     1      19.736  70.820   0.674  1.00  0.00     0.277 HD
HETATM   12  C11 UNL     1      18.139  70.157   1.776  1.00  0.00     0.233 C 
HETATM   13  C12 UNL     1      18.314  70.635   3.201  1.00  0.00     0.042 C 
HETATM   14  C13 UNL     1      19.640  70.099   5.176  1.00  0.00     0.042 C 
HETATM   15  C14 UNL     1      19.929  69.032   6.205  1.00  0.00     0.176 C 
HETATM   16  O3  UNL     1      18.703  68.650   6.796  1.00  0.00    -0.350 OA
ENDROOT
BRANCH   1  17
HETATM   17  N1  UNL     1      14.384  66.587   5.387  1.00  0.00    -0.296 N 
HETATM   18  C3  UNL     1      14.250  65.327   4.759  1.00  0.00     0.365 C 
HETATM   19  O2  UNL     1      15.192  64.822   4.107  1.00  0.00    -0.238 OA
ATOM     20  H1  UNL     1      13.603  66.979   5.913  1.00  0.00     0.171 HD
BRANCH  18  21
HETATM   21  O1  UNL     1      13.066  64.651   4.870  1.00  0.00    -0.304 OA
BRANCH  21  22
HETATM   22  C2  UNL     1      12.081  64.931   5.847  1.00  0.00     0.176 C 
HETATM   23  C1  UNL     1      10.746  64.316   5.490  1.00  0.00     0.034 C 
ENDBRANCH  21  22
ENDBRANCH  18  21
ENDBRANCH   1  17
TORSDOF 3
ENDMDL
