MODEL 1
REMARK VINA RESULT: -7.908727853      0.000      0.000
REMARK  4 active torsions:
REMARK  status: ('A' for Active; 'I' for Inactive)
REMARK    1  A    between atoms: N1_5  and  C4_6 
REMARK    2  A    between atoms: N2_9  and  C7_10 
REMARK    3  A    between atoms: N3_11  and  C8_13 
REMARK    4  A    between atoms: C12_19  and  O2_20 
ROOT
HETATM    1  C4  UNL     1      15.281  66.628   5.746  1.00  0.00     0.092 C 
HETATM    2  C5  UNL     1      15.978  67.346   4.607  1.00  0.00     0.045 C 
HETATM    3  C6  UNL     1      16.602  68.646   5.121  1.00  0.00     0.125 C 
HETATM    4  N2  UNL     1      17.122  68.455   6.478  1.00  0.00    -0.377 N 
HETATM    5  C9  UNL     1      16.187  68.044   7.504  1.00  0.00     0.125 C 
HETATM    6  C10 UNL     1      14.895  67.651   6.817  1.00  0.00     0.045 C 
ENDROOT
BRANCH   1   7
HETATM    7  N1  UNL     1      14.172  65.839   5.317  1.00  0.00    -0.359 N 
HETATM    8  C3  UNL     1      13.000  65.843   5.990  1.00  0.00     0.095 A 
HETATM    9  C2  UNL     1      11.922  65.069   5.565  1.00  0.00     0.075 A 
HETATM   10  C1  UNL     1      12.051  64.282   4.434  1.00  0.00     0.207 A 
HETATM   11  O1  UNL     1      11.101  63.560   4.006  1.00  0.00    -0.285 OA
HETATM   12  C12 UNL     1      13.243  64.279   3.751  1.00  0.00     0.131 A 
HETATM   13  C11 UNL     1      14.280  65.059   4.208  1.00  0.00     0.131 A 
BRANCH  12  14
HETATM   14  O2  UNL     1      13.373  63.487   2.612  1.00  0.00    -0.356 OA
ATOM     15  H2  UNL     1      12.593  63.137   2.197  1.00  0.00     0.218 HD
ENDBRANCH  12  14
ENDBRANCH   1   7
BRANCH   4  16
HETATM   16  C7  UNL     1      18.497  68.677   6.731  1.00  0.00     0.179 C 
HETATM   17  N3  UNL     1      18.938  69.787   7.151  1.00  0.00    -0.337 N 
ATOM     18  H3  UNL     1      18.251  70.525   7.304  1.00  0.00     0.168 HD
BRANCH  17  19
HETATM   19  C8  UNL     1      20.273  70.102   7.428  1.00  0.00     0.150 C 
HETATM   20  S1  UNL     1      20.750  70.141   9.000  1.00  0.00    -0.052 SA
HETATM   21  S2  UNL     1      21.499  70.465   6.179  1.00  0.00    -0.020 SA
ENDBRANCH  17  19
ENDBRANCH   4  16
TORSDOF 4
ENDMDL
MODEL 2
REMARK VINA RESULT: -7.795602595      1.225      1.393
REMARK  4 active torsions:
REMARK  status: ('A' for Active; 'I' for Inactive)
REMARK    1  A    between atoms: N1_5  and  C4_6 
REMARK    2  A    between atoms: N2_9  and  C7_10 
REMARK    3  A    between atoms: N3_11  and  C8_13 
REMARK    4  A    between atoms: C12_19  and  O2_20 
ROOT
HETATM    1  C4  UNL     1      15.665  66.884   5.316  1.00  0.00     0.092 C 
HETATM    2  C5  UNL     1      16.272  67.403   4.027  1.00  0.00     0.045 C 
HETATM    3  C6  UNL     1      16.924  68.766   4.276  1.00  0.00     0.125 C 
HETATM    4  N2  UNL     1      17.544  68.795   5.604  1.00  0.00    -0.377 N 
HETATM    5  C9  UNL     1      16.690  68.561   6.749  1.00  0.00     0.125 C 
HETATM    6  C10 UNL     1      15.353  68.070   6.233  1.00  0.00     0.045 C 
ENDROOT
BRANCH   1   7
HETATM    7  N1  UNL     1      14.532  66.042   5.105  1.00  0.00    -0.359 N 
HETATM    8  C3  UNL     1      13.480  66.048   5.954  1.00  0.00     0.095 A 
HETATM    9  C2  UNL     1      12.378  65.223   5.740  1.00  0.00     0.075 A 
HETATM   10  C1  UNL     1      12.357  64.382   4.641  1.00  0.00     0.207 A 
HETATM   11  O1  UNL     1      11.379  63.612   4.402  1.00  0.00    -0.285 OA
HETATM   12  C12 UNL     1      13.427  64.378   3.779  1.00  0.00     0.131 A 
HETATM   13  C11 UNL     1      14.494  65.210   4.030  1.00  0.00     0.131 A 
BRANCH  12  14
HETATM   14  O2  UNL     1      13.407  63.533   2.672  1.00  0.00    -0.356 OA
ATOM     15  H2  UNL     1      14.107  62.900   2.558  1.00  0.00     0.218 HD
ENDBRANCH  12  14
ENDBRANCH   1   7
BRANCH   4  16
HETATM   16  C7  UNL     1      18.933  69.047   5.714  1.00  0.00     0.179 C 
HETATM   17  N3  UNL     1      19.581  69.671   4.823  1.00  0.00    -0.337 N 
ATOM     18  H3  UNL     1      19.053  69.990   4.010  1.00  0.00     0.168 HD
BRANCH  17  19
HETATM   19  C8  UNL     1      20.948  69.966   4.841  1.00  0.00     0.150 C 
HETATM   20  S1  UNL     1      21.611  70.478   6.255  1.00  0.00    -0.052 SA
HETATM   21  S2  UNL     1      22.027  69.823   3.422  1.00  0.00    -0.020 SA
ENDBRANCH  17  19
ENDBRANCH   4  16
TORSDOF 4
ENDMDL
MODEL 3
REMARK VINA RESULT: -7.780754160      0.765      1.240
REMARK  4 active torsions:
REMARK  status: ('A' for Active; 'I' for Inactive)
REMARK    1  A    between atoms: N1_5  and  C4_6 
REMARK    2  A    between atoms: N2_9  and  C7_10 
REMARK    3  A    between atoms: N3_11  and  C8_13 
REMARK    4  A    between atoms: C12_19  and  O2_20 
ROOT
HETATM    1  C4  UNL     1      15.350  66.521   5.711  1.00  0.00     0.092 C 
HETATM    2  C5  UNL     1      15.779  67.555   4.689  1.00  0.00     0.045 C 
HETATM    3  C6  UNL     1      16.434  68.742   5.399  1.00  0.00     0.125 C 
HETATM    4  N2  UNL     1      17.217  68.275   6.547  1.00  0.00    -0.377 N 
HETATM    5  C9  UNL     1      16.520  67.544   7.583  1.00  0.00     0.125 C 
HETATM    6  C10 UNL     1      15.137  67.213   7.060  1.00  0.00     0.045 C 
ENDROOT
BRANCH   1   7
HETATM    7  N1  UNL     1      14.214  65.761   5.299  1.00  0.00    -0.359 N 
HETATM    8  C3  UNL     1      13.057  65.786   5.998  1.00  0.00     0.095 A 
HETATM    9  C2  UNL     1      11.953  65.041   5.588  1.00  0.00     0.075 A 
HETATM   10  C1  UNL     1      12.039  64.263   4.448  1.00  0.00     0.207 A 
HETATM   11  O1  UNL     1      11.064  63.567   4.033  1.00  0.00    -0.285 OA
HETATM   12  C12 UNL     1      13.215  64.239   3.739  1.00  0.00     0.131 A 
HETATM   13  C11 UNL     1      14.280  64.991   4.181  1.00  0.00     0.131 A 
BRANCH  12  14
HETATM   14  O2  UNL     1      13.303  63.456   2.590  1.00  0.00    -0.356 OA
ATOM     15  H2  UNL     1      13.045  62.542   2.630  1.00  0.00     0.218 HD
ENDBRANCH  12  14
ENDBRANCH   1   7
BRANCH   4  16
HETATM   16  C7  UNL     1      18.604  68.554   6.599  1.00  0.00     0.179 C 
HETATM   17  N3  UNL     1      19.159  69.379   5.815  1.00  0.00    -0.337 N 
ATOM     18  H3  UNL     1      18.556  69.842   5.134  1.00  0.00     0.168 HD
BRANCH  17  19
HETATM   19  C8  UNL     1      20.516  69.720   5.788  1.00  0.00     0.150 C 
HETATM   20  S1  UNL     1      21.313  69.614   4.355  1.00  0.00    -0.052 SA
HETATM   21  S2  UNL     1      21.443  70.265   7.216  1.00  0.00    -0.020 SA
ENDBRANCH  17  19
ENDBRANCH   4  16
TORSDOF 4
ENDMDL
MODEL 4
REMARK VINA RESULT: -7.720863034      2.266      2.881
REMARK  4 active torsions:
REMARK  status: ('A' for Active; 'I' for Inactive)
REMARK    1  A    between atoms: N1_5  and  C4_6 
REMARK    2  A    between atoms: N2_9  and  C7_10 
REMARK    3  A    between atoms: N3_11  and  C8_13 
REMARK    4  A    between atoms: C12_19  and  O2_20 
ROOT
HETATM    1  C4  UNL     1      15.763  66.962   5.192  1.00  0.00     0.092 C 
HETATM    2  C5  UNL     1      15.907  67.534   3.796  1.00  0.00     0.045 C 
HETATM    3  C6  UNL     1      16.800  68.777   3.836  1.00  0.00     0.125 C 
HETATM    4  N2  UNL     1      17.874  68.595   4.818  1.00  0.00    -0.377 N 
HETATM    5  C9  UNL     1      17.493  68.349   6.192  1.00  0.00     0.125 C 
HETATM    6  C10 UNL     1      16.003  68.076   6.214  1.00  0.00     0.045 C 
ENDROOT
BRANCH   1   7
HETATM    7  N1  UNL     1      14.522  66.287   5.398  1.00  0.00    -0.359 N 
HETATM    8  C3  UNL     1      14.225  65.141   4.746  1.00  0.00     0.095 A 
HETATM    9  C2  UNL     1      13.012  64.489   4.954  1.00  0.00     0.075 A 
HETATM   10  C1  UNL     1      12.093  65.021   5.841  1.00  0.00     0.207 A 
HETATM   11  O1  UNL     1      10.975  64.467   6.065  1.00  0.00    -0.285 OA
HETATM   12  C12 UNL     1      12.397  66.186   6.503  1.00  0.00     0.131 A 
HETATM   13  C11 UNL     1      13.608  66.796   6.267  1.00  0.00     0.131 A 
BRANCH  12  14
HETATM   14  O2  UNL     1      11.473  66.723   7.397  1.00  0.00    -0.356 OA
ATOM     15  H2  UNL     1      10.882  67.406   7.100  1.00  0.00     0.218 HD
ENDBRANCH  12  14
ENDBRANCH   1   7
BRANCH   4  16
HETATM   16  C7  UNL     1      19.222  68.668   4.390  1.00  0.00     0.179 C 
HETATM   17  N3  UNL     1      19.718  69.718   3.887  1.00  0.00    -0.337 N 
ATOM     18  H3  UNL     1      19.097  70.523   3.801  1.00  0.00     0.168 HD
BRANCH  17  19
HETATM   19  C8  UNL     1      21.032  69.886   3.437  1.00  0.00     0.150 C 
HETATM   20  S1  UNL     1      22.191  70.239   4.547  1.00  0.00    -0.052 SA
HETATM   21  S2  UNL     1      21.535  69.741   1.727  1.00  0.00    -0.020 SA
ENDBRANCH  17  19
ENDBRANCH   4  16
TORSDOF 4
ENDMDL
MODEL 5
REMARK VINA RESULT: -7.648813737      1.968      2.422
REMARK  4 active torsions:
REMARK  status: ('A' for Active; 'I' for Inactive)
REMARK    1  A    between atoms: N1_5  and  C4_6 
REMARK    2  A    between atoms: N2_9  and  C7_10 
REMARK    3  A    between atoms: N3_11  and  C8_13 
REMARK    4  A    between atoms: C12_19  and  O2_20 
ROOT
HETATM    1  C4  UNL     1      16.050  66.938   4.869  1.00  0.00     0.092 C 
HETATM    2  C5  UNL     1      16.314  67.640   3.552  1.00  0.00     0.045 C 
HETATM    3  C6  UNL     1      17.056  68.955   3.806  1.00  0.00     0.125 C 
HETATM    4  N2  UNL     1      18.004  68.794   4.913  1.00  0.00    -0.377 N 
HETATM    5  C9  UNL     1      17.474  68.394   6.199  1.00  0.00     0.125 C 
HETATM    6  C10 UNL     1      16.032  67.978   5.993  1.00  0.00     0.045 C 
ENDROOT
BRANCH   1   7
HETATM    7  N1  UNL     1      14.872  66.132   4.850  1.00  0.00    -0.359 N 
HETATM    8  C3  UNL     1      13.932  66.234   5.815  1.00  0.00     0.095 A 
HETATM    9  C2  UNL     1      12.785  65.442   5.789  1.00  0.00     0.075 A 
HETATM   10  C1  UNL     1      12.604  64.536   4.759  1.00  0.00     0.207 A 
HETATM   11  O1  UNL     1      11.580  63.793   4.689  1.00  0.00    -0.285 OA
HETATM   12  C12 UNL     1      13.562  64.434   3.780  1.00  0.00     0.131 A 
HETATM   13  C11 UNL     1      14.678  65.236   3.846  1.00  0.00     0.131 A 
BRANCH  12  14
HETATM   14  O2  UNL     1      13.381  63.522   2.742  1.00  0.00    -0.356 OA
ATOM     15  H2  UNL     1      13.749  63.711   1.887  1.00  0.00     0.218 HD
ENDBRANCH  12  14
ENDBRANCH   1   7
BRANCH   4  16
HETATM   16  C7  UNL     1      19.381  69.032   4.684  1.00  0.00     0.179 C 
HETATM   17  N3  UNL     1      19.807  69.581   3.626  1.00  0.00    -0.337 N 
ATOM     18  H3  UNL     1      19.107  69.849   2.934  1.00  0.00     0.168 HD
BRANCH  17  19
HETATM   19  C8  UNL     1      21.142  69.857   3.311  1.00  0.00     0.150 C 
HETATM   20  S1  UNL     1      21.608  69.733   1.740  1.00  0.00    -0.052 SA
HETATM   21  S2  UNL     1      22.380  70.337   4.509  1.00  0.00    -0.020 SA
ENDBRANCH  17  19
ENDBRANCH   4  16
TORSDOF 4
ENDMDL
