MODEL 1
REMARK VINA RESULT: -9.565417282      0.000      0.000
REMARK  0 active torsions:
REMARK  status: ('A' for Active; 'I' for Inactive)
ROOT
HETATM    1  O1  UNL     1      20.591  16.795 -21.289  1.00  0.00    -0.285 OA
HETATM    2  C1  UNL     1      20.507  17.922 -21.740  1.00  0.00     0.210 C 
HETATM    3  C2  UNL     1      19.745  18.120 -22.891  1.00  0.00     0.028 A 
HETATM    4  C3  UNL     1      19.859  17.067 -23.767  1.00  0.00     0.016 A 
HETATM    5  C4  UNL     1      19.307  17.149 -25.021  1.00  0.00     0.001 A 
HETATM    6  C5  UNL     1      18.629  18.320 -25.396  1.00  0.00     0.001 A 
HETATM    7  C6  UNL     1      18.498  19.396 -24.535  1.00  0.00     0.013 A 
HETATM    8  C7  UNL     1      19.058  19.258 -23.300  1.00  0.00    -0.009 A 
HETATM    9  C8  UNL     1      18.808  20.342 -22.477  1.00  0.00     0.015 A 
HETATM   10  C9  UNL     1      17.689  21.115 -22.556  1.00  0.00     0.004 A 
HETATM   11  C10 UNL     1      16.538  21.030 -23.274  1.00  0.00     0.014 A 
HETATM   12  C11 UNL     1      15.546  21.987 -23.069  1.00  0.00     0.001 A 
HETATM   13  C12 UNL     1      15.741  22.994 -22.152  1.00  0.00     0.002 A 
HETATM   14  C13 UNL     1      16.916  23.060 -21.428  1.00  0.00     0.030 A 
HETATM   15  C14 UNL     1      17.902  22.124 -21.619  1.00  0.00     0.043 A 
HETATM   16  N1  UNL     1      19.096  21.960 -20.990  1.00  0.00    -0.354 N 
ATOM     17  H1  UNL     1      19.482  22.562 -20.262  1.00  0.00     0.166 HD
HETATM   18  C15 UNL     1      19.667  20.871 -21.496  1.00  0.00     0.057 A 
HETATM   19  C16 UNL     1      20.814  20.296 -21.034  1.00  0.00     0.022 A 
HETATM   20  C17 UNL     1      21.623  21.195 -20.388  1.00  0.00     0.017 A 
HETATM   21  C18 UNL     1      22.805  20.749 -19.788  1.00  0.00     0.018 A 
HETATM   22  C19 UNL     1      23.118  19.415 -19.867  1.00  0.00     0.088 A 
HETATM   23  N2  UNL     1      22.321  18.540 -20.503  1.00  0.00    -0.362 N 
ATOM     24  H2  UNL     1      22.587  17.556 -20.542  1.00  0.00     0.165 HD
HETATM   25  C20 UNL     1      21.175  18.940 -21.091  1.00  0.00     0.096 A 
ENDROOT
TORSDOF 0
ENDMDL
MODEL 2
REMARK VINA RESULT: -9.163283680      2.145      4.428
REMARK  0 active torsions:
REMARK  status: ('A' for Active; 'I' for Inactive)
ROOT
HETATM    1  O1  UNL     1      21.350  21.233 -22.489  1.00  0.00    -0.285 OA
HETATM    2  C1  UNL     1      20.210  20.812 -22.419  1.00  0.00     0.210 C 
HETATM    3  C2  UNL     1      19.286  21.523 -21.654  1.00  0.00     0.028 A 
HETATM    4  C3  UNL     1      19.861  22.058 -20.525  1.00  0.00     0.016 A 
HETATM    5  C4  UNL     1      19.079  22.660 -19.571  1.00  0.00     0.001 A 
HETATM    6  C5  UNL     1      17.689  22.717 -19.761  1.00  0.00     0.001 A 
HETATM    7  C6  UNL     1      17.083  22.188 -20.887  1.00  0.00     0.013 A 
HETATM    8  C7  UNL     1      17.907  21.610 -21.807  1.00  0.00    -0.009 A 
HETATM    9  C8  UNL     1      17.230  21.183 -22.936  1.00  0.00     0.015 A 
HETATM   10  C9  UNL     1      16.103  21.778 -23.417  1.00  0.00     0.004 A 
HETATM   11  C10 UNL     1      15.421  22.906 -23.084  1.00  0.00     0.014 A 
HETATM   12  C11 UNL     1      14.304  23.262 -23.837  1.00  0.00     0.001 A 
HETATM   13  C12 UNL     1      13.910  22.478 -24.897  1.00  0.00     0.002 A 
HETATM   14  C13 UNL     1      14.620  21.338 -25.222  1.00  0.00     0.030 A 
HETATM   15  C14 UNL     1      15.722  20.975 -24.489  1.00  0.00     0.043 A 
HETATM   16  N1  UNL     1      16.592  19.944 -24.659  1.00  0.00    -0.354 N 
ATOM     17  H1  UNL     1      16.538  19.220 -25.375  1.00  0.00     0.166 HD
HETATM   18  C15 UNL     1      17.528  20.054 -23.720  1.00  0.00     0.057 A 
HETATM   19  C16 UNL     1      18.653  19.288 -23.637  1.00  0.00     0.022 A 
HETATM   20  C17 UNL     1      18.495  18.064 -24.235  1.00  0.00     0.017 A 
HETATM   21  C18 UNL     1      19.582  17.186 -24.301  1.00  0.00     0.018 A 
HETATM   22  C19 UNL     1      20.779  17.582 -23.761  1.00  0.00     0.088 A 
HETATM   23  N2  UNL     1      20.926  18.783 -23.175  1.00  0.00    -0.362 N 
ATOM     24  H2  UNL     1      21.832  19.042 -22.784  1.00  0.00     0.165 HD
HETATM   25  C20 UNL     1      19.897  19.651 -23.096  1.00  0.00     0.096 A 
ENDROOT
TORSDOF 0
ENDMDL
MODEL 3
REMARK VINA RESULT: -8.839091003      2.684      6.386
REMARK  0 active torsions:
REMARK  status: ('A' for Active; 'I' for Inactive)
ROOT
HETATM    1  O1  UNL     1      15.664  21.936 -20.882  1.00  0.00    -0.285 OA
HETATM    2  C1  UNL     1      16.411  21.789 -21.832  1.00  0.00     0.210 C 
HETATM    3  C2  UNL     1      17.783  21.726 -21.594  1.00  0.00     0.028 A 
HETATM    4  C3  UNL     1      18.165  22.574 -20.581  1.00  0.00     0.016 A 
HETATM    5  C4  UNL     1      19.497  22.766 -20.306  1.00  0.00     0.001 A 
HETATM    6  C5  UNL     1      20.458  22.091 -21.074  1.00  0.00     0.001 A 
HETATM    7  C6  UNL     1      20.103  21.232 -22.100  1.00  0.00     0.013 A 
HETATM    8  C7  UNL     1      18.768  21.071 -22.324  1.00  0.00    -0.009 A 
HETATM    9  C8  UNL     1      18.501  20.134 -23.306  1.00  0.00     0.015 A 
HETATM   10  C9  UNL     1      19.297  19.059 -23.569  1.00  0.00     0.004 A 
HETATM   11  C10 UNL     1      20.397  18.536 -22.967  1.00  0.00     0.014 A 
HETATM   12  C11 UNL     1      20.949  17.364 -23.479  1.00  0.00     0.001 A 
HETATM   13  C12 UNL     1      20.380  16.756 -24.574  1.00  0.00     0.002 A 
HETATM   14  C13 UNL     1      19.259  17.301 -25.169  1.00  0.00     0.030 A 
HETATM   15  C14 UNL     1      18.704  18.456 -24.676  1.00  0.00     0.043 A 
HETATM   16  N1  UNL     1      17.587  19.130 -25.057  1.00  0.00    -0.354 N 
ATOM     17  H1  UNL     1      16.973  18.889 -25.836  1.00  0.00     0.166 HD
HETATM   18  C15 UNL     1      17.440  20.160 -24.229  1.00  0.00     0.057 A 
HETATM   19  C16 UNL     1      16.366  20.999 -24.199  1.00  0.00     0.022 A 
HETATM   20  C17 UNL     1      15.716  21.058 -25.406  1.00  0.00     0.017 A 
HETATM   21  C18 UNL     1      14.548  21.818 -25.522  1.00  0.00     0.018 A 
HETATM   22  C19 UNL     1      14.086  22.484 -24.415  1.00  0.00     0.088 A 
HETATM   23  N2  UNL     1      14.729  22.423 -23.236  1.00  0.00    -0.362 N 
ATOM     24  H2  UNL     1      14.356  22.933 -22.435  1.00  0.00     0.165 HD
HETATM   25  C20 UNL     1      15.858  21.699 -23.093  1.00  0.00     0.096 A 
ENDROOT
TORSDOF 0
ENDMDL
MODEL 4
REMARK VINA RESULT: -8.533242251      1.504      2.132
REMARK  0 active torsions:
REMARK  status: ('A' for Active; 'I' for Inactive)
ROOT
HETATM    1  O1  UNL     1      19.876  18.130 -20.444  1.00  0.00    -0.285 OA
HETATM    2  C1  UNL     1      19.650  19.000 -21.265  1.00  0.00     0.210 C 
HETATM    3  C2  UNL     1      19.312  18.616 -22.562  1.00  0.00     0.028 A 
HETATM    4  C3  UNL     1      20.005  17.498 -22.961  1.00  0.00     0.016 A 
HETATM    5  C4  UNL     1      19.922  17.060 -24.260  1.00  0.00     0.001 A 
HETATM    6  C5  UNL     1      19.126  17.771 -25.172  1.00  0.00     0.001 A 
HETATM    7  C6  UNL     1      18.416  18.899 -24.799  1.00  0.00     0.013 A 
HETATM    8  C7  UNL     1      18.527  19.284 -23.496  1.00  0.00    -0.009 A 
HETATM    9  C8  UNL     1      17.723  20.367 -23.189  1.00  0.00     0.015 A 
HETATM   10  C9  UNL     1      16.535  20.631 -23.803  1.00  0.00     0.004 A 
HETATM   11  C10 UNL     1      15.775  19.956 -24.704  1.00  0.00     0.014 A 
HETATM   12  C11 UNL     1      14.553  20.502 -25.094  1.00  0.00     0.001 A 
HETATM   13  C12 UNL     1      14.136  21.701 -24.567  1.00  0.00     0.002 A 
HETATM   14  C13 UNL     1      14.921  22.370 -23.647  1.00  0.00     0.030 A 
HETATM   15  C14 UNL     1      16.127  21.844 -23.254  1.00  0.00     0.043 A 
HETATM   16  N1  UNL     1      17.024  22.290 -22.335  1.00  0.00    -0.354 N 
ATOM     17  H1  UNL     1      16.955  23.150 -21.791  1.00  0.00     0.166 HD
HETATM   18  C15 UNL     1      18.009  21.398 -22.275  1.00  0.00     0.057 A 
HETATM   19  C16 UNL     1      19.034  21.416 -21.376  1.00  0.00     0.022 A 
HETATM   20  C17 UNL     1      19.292  22.679 -20.905  1.00  0.00     0.017 A 
HETATM   21  C18 UNL     1      20.266  22.859 -19.919  1.00  0.00     0.018 A 
HETATM   22  C19 UNL     1      20.937  21.758 -19.450  1.00  0.00     0.088 A 
HETATM   23  N2  UNL     1      20.680  20.524 -19.917  1.00  0.00    -0.362 N 
ATOM     24  H2  UNL     1      21.200  19.729 -19.545  1.00  0.00     0.165 HD
HETATM   25  C20 UNL     1      19.747  20.318 -20.868  1.00  0.00     0.096 A 
ENDROOT
TORSDOF 0
ENDMDL
MODEL 5
REMARK VINA RESULT: -7.087690134      1.752      4.976
REMARK  0 active torsions:
REMARK  status: ('A' for Active; 'I' for Inactive)
ROOT
HETATM    1  O1  UNL     1      17.602  20.582 -25.481  1.00  0.00    -0.285 OA
HETATM    2  C1  UNL     1      17.807  20.206 -24.341  1.00  0.00     0.210 C 
HETATM    3  C2  UNL     1      18.611  19.084 -24.147  1.00  0.00     0.028 A 
HETATM    4  C3  UNL     1      18.414  18.139 -25.126  1.00  0.00     0.016 A 
HETATM    5  C4  UNL     1      19.001  16.902 -25.020  1.00  0.00     0.001 A 
HETATM    6  C5  UNL     1      19.798  16.616 -23.900  1.00  0.00     0.001 A 
HETATM    7  C6  UNL     1      20.014  17.548 -22.900  1.00  0.00     0.013 A 
HETATM    8  C7  UNL     1      19.415  18.762 -23.059  1.00  0.00    -0.009 A 
HETATM    9  C8  UNL     1      19.751  19.658 -22.059  1.00  0.00     0.015 A 
HETATM   10  C9  UNL     1      20.942  19.648 -21.398  1.00  0.00     0.004 A 
HETATM   11  C10 UNL     1      22.095  18.946 -21.551  1.00  0.00     0.014 A 
HETATM   12  C11 UNL     1      23.170  19.229 -20.711  1.00  0.00     0.001 A 
HETATM   13  C12 UNL     1      23.054  20.207 -19.750  1.00  0.00     0.002 A 
HETATM   14  C13 UNL     1      21.874  20.913 -19.614  1.00  0.00     0.030 A 
HETATM   15  C14 UNL     1      20.807  20.645 -20.434  1.00  0.00     0.043 A 
HETATM   16  N1  UNL     1      19.588  21.242 -20.518  1.00  0.00    -0.354 N 
ATOM     17  H1  UNL     1      19.246  22.001 -19.928  1.00  0.00     0.166 HD
HETATM   18  C15 UNL     1      18.925  20.656 -21.511  1.00  0.00     0.057 A 
HETATM   19  C16 UNL     1      17.718  21.061 -21.998  1.00  0.00     0.022 A 
HETATM   20  C17 UNL     1      16.985  21.751 -21.066  1.00  0.00     0.017 A 
HETATM   21  C18 UNL     1      15.751  22.300 -21.430  1.00  0.00     0.018 A 
HETATM   22  C19 UNL     1      15.312  22.129 -22.718  1.00  0.00     0.088 A 
HETATM   23  N2  UNL     1      16.034  21.451 -23.626  1.00  0.00    -0.362 N 
ATOM     24  H2  UNL     1      15.674  21.343 -24.574  1.00  0.00     0.165 HD
HETATM   25  C20 UNL     1      17.227  20.909 -23.305  1.00  0.00     0.096 A 
ENDROOT
TORSDOF 0
ENDMDL
