MODEL 1
REMARK VINA RESULT: -7.165677288      0.000      0.000
REMARK  8 active torsions:
REMARK  status: ('A' for Active; 'I' for Inactive)
REMARK    1  A    between atoms: N1_1  and  C1_5 
REMARK    2  A    between atoms: C1_5  and  C2_6 
REMARK    3  A    between atoms: C2_6  and  S1_7 
REMARK    4  A    between atoms: S1_7  and  C3_8 
REMARK    5  A    between atoms: C3_8  and  C4_9 
REMARK    6  A    between atoms: N3_13  and  C6_15 
REMARK    7  A    between atoms: C6_15  and  C7_16 
REMARK    8  A    between atoms: C14_27  and  O2_28 
ROOT
HETATM    1  C4  UNL     1      39.687   3.277   5.394  1.00  0.00     0.146 C 
HETATM    2  N2  UNL     1      39.762   4.367   6.355  1.00  0.00    -0.218 N 
ATOM      3  H2  UNL     1      39.521   4.192   7.330  1.00  0.00     0.178 HD
HETATM    4  C5  UNL     1      40.169   5.682   5.953  1.00  0.00     0.677 C 
HETATM    5  N3  UNL     1      40.335   6.543   6.870  1.00  0.00    -0.222 N 
ATOM      6  H3  UNL     1      40.161   6.218   7.821  1.00  0.00     0.178 HD
HETATM    7  N5  UNL     1      40.354   5.917   4.563  1.00  0.00    -0.158 N 
ATOM      8  H5  UNL     1      40.643   6.838   4.235  1.00  0.00     0.187 HD
HETATM    9  C13 UNL     1      40.135   4.864   3.631  1.00  0.00     0.266 C 
HETATM   10  O1  UNL     1      40.702   4.856   2.493  1.00  0.00    -0.270 OA
HETATM   11  C14 UNL     1      39.211   3.773   4.054  1.00  0.00     0.234 C 
ENDROOT
BRANCH   5  12
HETATM   12  C6  UNL     1      40.731   7.905   6.743  1.00  0.00     0.176 C 
BRANCH  12  13
HETATM   13  C7  UNL     1      40.347   8.634   7.997  1.00  0.00    -0.040 A 
HETATM   14  C8  UNL     1      41.182   9.517   8.623  1.00  0.00     0.011 A 
HETATM   15  C9  UNL     1      40.780  10.167   9.782  1.00  0.00     0.027 A 
HETATM   16  C10 UNL     1      39.533   9.925  10.309  1.00  0.00     0.046 A 
HETATM   17  N4  UNL     1      39.091  10.575  11.495  1.00  0.00    -0.102 NA
HETATM   18  C11 UNL     1      38.678   9.026   9.673  1.00  0.00     0.027 A 
HETATM   19  C12 UNL     1      39.106   8.400   8.530  1.00  0.00     0.011 A 
ENDBRANCH  12  13
ENDBRANCH   5  12
BRANCH   1  20
HETATM   20  C3  UNL     1      38.747   2.195   5.917  1.00  0.00     0.102 C 
BRANCH  20  21
HETATM   21  S1  UNL     1      37.912   2.755   7.427  1.00  0.00    -0.165 SA
BRANCH  21  22
HETATM   22  C2  UNL     1      36.244   2.035   7.540  1.00  0.00     0.101 C 
BRANCH  22  23
HETATM   23  C1  UNL     1      35.983   1.702   8.999  1.00  0.00     0.239 C 
BRANCH  23  24
HETATM   24  N1  UNL     1      37.123   0.991   9.565  1.00  0.00    -0.079 N 
ATOM     25  H13 UNL     1      37.548   0.354   8.892  1.00  0.00     0.274 HD
ATOM     26  H12 UNL     1      37.921   1.609   9.713  1.00  0.00     0.274 HD
ATOM     27  H11 UNL     1      36.849   0.511  10.422  1.00  0.00     0.274 HD
ENDBRANCH  23  24
ENDBRANCH  22  23
ENDBRANCH  21  22
ENDBRANCH  20  21
ENDBRANCH   1  20
BRANCH  11  28
HETATM   28  O2  UNL     1      37.936   4.354   4.159  1.00  0.00    -0.384 OA
ATOM     29  H2  UNL     1      37.453   4.259   3.347  1.00  0.00     0.210 HD
ENDBRANCH  11  28
TORSDOF 8
ENDMDL
MODEL 2
REMARK VINA RESULT: -7.040392174      3.667      7.254
REMARK  8 active torsions:
REMARK  status: ('A' for Active; 'I' for Inactive)
REMARK    1  A    between atoms: N1_1  and  C1_5 
REMARK    2  A    between atoms: C1_5  and  C2_6 
REMARK    3  A    between atoms: C2_6  and  S1_7 
REMARK    4  A    between atoms: S1_7  and  C3_8 
REMARK    5  A    between atoms: C3_8  and  C4_9 
REMARK    6  A    between atoms: N3_13  and  C6_15 
REMARK    7  A    between atoms: C6_15  and  C7_16 
REMARK    8  A    between atoms: C14_27  and  O2_28 
ROOT
HETATM    1  C4  UNL     1      39.879   6.542   5.419  1.00  0.00     0.146 C 
HETATM    2  N2  UNL     1      38.614   5.963   5.843  1.00  0.00    -0.218 N 
ATOM      3  H2  UNL     1      38.154   6.322   6.679  1.00  0.00     0.178 HD
HETATM    4  C5  UNL     1      38.003   4.897   5.104  1.00  0.00     0.677 C 
HETATM    5  N3  UNL     1      36.840   4.536   5.462  1.00  0.00    -0.222 N 
ATOM      6  H3  UNL     1      36.442   5.043   6.252  1.00  0.00     0.178 HD
HETATM    7  N5  UNL     1      38.746   4.330   4.032  1.00  0.00    -0.158 N 
ATOM      8  H5  UNL     1      38.348   3.570   3.481  1.00  0.00     0.187 HD
HETATM    9  C13 UNL     1      40.045   4.825   3.730  1.00  0.00     0.266 C 
HETATM   10  O1  UNL     1      40.547   4.707   2.567  1.00  0.00    -0.270 OA
HETATM   11  C14 UNL     1      40.787   5.488   4.841  1.00  0.00     0.234 C 
ENDROOT
BRANCH   5  12
HETATM   12  C6  UNL     1      36.021   3.514   4.902  1.00  0.00     0.176 C 
BRANCH  12  13
HETATM   13  C7  UNL     1      35.439   4.019   3.615  1.00  0.00    -0.040 A 
HETATM   14  C8  UNL     1      34.751   5.197   3.528  1.00  0.00     0.011 A 
HETATM   15  C9  UNL     1      34.231   5.622   2.312  1.00  0.00     0.027 A 
HETATM   16  C10 UNL     1      34.406   4.855   1.184  1.00  0.00     0.046 A 
HETATM   17  N4  UNL     1      33.886   5.261  -0.076  1.00  0.00    -0.102 NA
HETATM   18  C11 UNL     1      35.107   3.652   1.269  1.00  0.00     0.027 A 
HETATM   19  C12 UNL     1      35.607   3.262   2.485  1.00  0.00     0.011 A 
ENDBRANCH  12  13
ENDBRANCH   5  12
BRANCH   1  20
HETATM   20  C3  UNL     1      40.556   7.223   6.605  1.00  0.00     0.102 C 
BRANCH  20  21
HETATM   21  S1  UNL     1      39.332   8.104   7.614  1.00  0.00    -0.165 SA
BRANCH  21  22
HETATM   22  C2  UNL     1      40.126   8.857   9.069  1.00  0.00     0.101 C 
BRANCH  22  23
HETATM   23  C1  UNL     1      41.619   8.597   8.966  1.00  0.00     0.239 C 
BRANCH  23  24
HETATM   24  N1  UNL     1      41.983   7.429   9.758  1.00  0.00    -0.079 N 
ATOM     25  H13 UNL     1      41.917   7.612  10.759  1.00  0.00     0.274 HD
ATOM     26  H12 UNL     1      41.281   6.692   9.694  1.00  0.00     0.274 HD
ATOM     27  H11 UNL     1      42.910   7.097   9.492  1.00  0.00     0.274 HD
ENDBRANCH  23  24
ENDBRANCH  22  23
ENDBRANCH  21  22
ENDBRANCH  20  21
ENDBRANCH   1  20
BRANCH  11  28
HETATM   28  O2  UNL     1      41.058   4.486   5.788  1.00  0.00    -0.384 OA
ATOM     29  H2  UNL     1      40.265   4.229   6.245  1.00  0.00     0.210 HD
ENDBRANCH  11  28
TORSDOF 8
ENDMDL
MODEL 3
REMARK VINA RESULT: -7.038270049      1.766      2.506
REMARK  8 active torsions:
REMARK  status: ('A' for Active; 'I' for Inactive)
REMARK    1  A    between atoms: N1_1  and  C1_5 
REMARK    2  A    between atoms: C1_5  and  C2_6 
REMARK    3  A    between atoms: C2_6  and  S1_7 
REMARK    4  A    between atoms: S1_7  and  C3_8 
REMARK    5  A    between atoms: C3_8  and  C4_9 
REMARK    6  A    between atoms: N3_13  and  C6_15 
REMARK    7  A    between atoms: C6_15  and  C7_16 
REMARK    8  A    between atoms: C14_27  and  O2_28 
ROOT
HETATM    1  C4  UNL     1      39.610   3.333   5.256  1.00  0.00     0.146 C 
HETATM    2  N2  UNL     1      39.723   4.370   6.269  1.00  0.00    -0.218 N 
ATOM      3  H2  UNL     1      39.460   4.160   7.232  1.00  0.00     0.178 HD
HETATM    4  C5  UNL     1      40.197   5.682   5.937  1.00  0.00     0.677 C 
HETATM    5  N3  UNL     1      40.389   6.489   6.897  1.00  0.00    -0.222 N 
ATOM      6  H3  UNL     1      40.187   6.127   7.829  1.00  0.00     0.178 HD
HETATM    7  N5  UNL     1      40.412   5.974   4.563  1.00  0.00    -0.158 N 
ATOM      8  H5  UNL     1      40.749   6.896   4.283  1.00  0.00     0.187 HD
HETATM    9  C13 UNL     1      40.157   4.980   3.578  1.00  0.00     0.266 C 
HETATM   10  O1  UNL     1      40.739   5.000   2.447  1.00  0.00    -0.270 OA
HETATM   11  C14 UNL     1      39.176   3.915   3.936  1.00  0.00     0.234 C 
ENDROOT
BRANCH   5  12
HETATM   12  C6  UNL     1      40.852   7.835   6.841  1.00  0.00     0.176 C 
BRANCH  12  13
HETATM   13  C7  UNL     1      40.362   8.560   8.060  1.00  0.00    -0.040 A 
HETATM   14  C8  UNL     1      39.120   8.354   8.593  1.00  0.00     0.011 A 
HETATM   15  C9  UNL     1      38.713   9.050   9.724  1.00  0.00     0.027 A 
HETATM   16  C10 UNL     1      39.562   9.954  10.317  1.00  0.00     0.046 A 
HETATM   17  N4  UNL     1      39.176  10.683  11.476  1.00  0.00    -0.102 NA
HETATM   18  C11 UNL     1      40.830  10.167   9.777  1.00  0.00     0.027 A 
HETATM   19  C12 UNL     1      41.201   9.463   8.659  1.00  0.00     0.011 A 
ENDBRANCH  12  13
ENDBRANCH   5  12
BRANCH   1  20
HETATM   20  C3  UNL     1      38.613   2.273   5.714  1.00  0.00     0.102 C 
BRANCH  20  21
HETATM   21  S1  UNL     1      38.601   0.873   4.559  1.00  0.00    -0.165 SA
BRANCH  21  22
HETATM   22  C2  UNL     1      40.300   0.344   4.178  1.00  0.00     0.101 C 
BRANCH  22  23
HETATM   23  C1  UNL     1      40.868  -0.317   5.423  1.00  0.00     0.239 C 
BRANCH  23  24
HETATM   24  N1  UNL     1      41.626   0.651   6.206  1.00  0.00    -0.079 N 
ATOM     25  H13 UNL     1      41.278   1.601   6.077  1.00  0.00     0.274 HD
ATOM     26  H12 UNL     1      41.443   0.558   7.206  1.00  0.00     0.274 HD
ATOM     27  H11 UNL     1      42.620   0.577   5.993  1.00  0.00     0.274 HD
ENDBRANCH  23  24
ENDBRANCH  22  23
ENDBRANCH  21  22
ENDBRANCH  20  21
ENDBRANCH   1  20
BRANCH  11  28
HETATM   28  O2  UNL     1      37.929   4.551   4.054  1.00  0.00    -0.384 OA
ATOM     29  H2  UNL     1      37.226   3.967   3.793  1.00  0.00     0.210 HD
ENDBRANCH  11  28
TORSDOF 8
ENDMDL
MODEL 4
REMARK VINA RESULT: -6.930816243      2.331      6.412
REMARK  8 active torsions:
REMARK  status: ('A' for Active; 'I' for Inactive)
REMARK    1  A    between atoms: N1_1  and  C1_5 
REMARK    2  A    between atoms: C1_5  and  C2_6 
REMARK    3  A    between atoms: C2_6  and  S1_7 
REMARK    4  A    between atoms: S1_7  and  C3_8 
REMARK    5  A    between atoms: C3_8  and  C4_9 
REMARK    6  A    between atoms: N3_13  and  C6_15 
REMARK    7  A    between atoms: C6_15  and  C7_16 
REMARK    8  A    between atoms: C14_27  and  O2_28 
ROOT
HETATM    1  C4  UNL     1      39.657   6.448   5.767  1.00  0.00     0.146 C 
HETATM    2  N2  UNL     1      39.192   5.643   6.885  1.00  0.00    -0.218 N 
ATOM      3  H2  UNL     1      39.145   6.056   7.815  1.00  0.00     0.178 HD
HETATM    4  C5  UNL     1      38.798   4.276   6.699  1.00  0.00     0.677 C 
HETATM    5  N3  UNL     1      38.282   3.681   7.694  1.00  0.00    -0.222 N 
ATOM      6  H3  UNL     1      38.193   4.236   8.546  1.00  0.00     0.178 HD
HETATM    7  N5  UNL     1      39.016   3.697   5.419  1.00  0.00    -0.158 N 
ATOM      8  H5  UNL     1      38.750   2.728   5.245  1.00  0.00     0.187 HD
HETATM    9  C13 UNL     1      39.606   4.472   4.382  1.00  0.00     0.266 C 
HETATM   10  O1  UNL     1      39.410   4.199   3.155  1.00  0.00    -0.270 OA
HETATM   11  C14 UNL     1      40.462   5.618   4.802  1.00  0.00     0.234 C 
ENDROOT
BRANCH   5  12
HETATM   12  C6  UNL     1      37.811   2.340   7.775  1.00  0.00     0.176 C 
BRANCH  12  13
HETATM   13  C7  UNL     1      37.178   2.136   9.120  1.00  0.00    -0.040 A 
HETATM   14  C8  UNL     1      35.997   1.468   9.287  1.00  0.00     0.011 A 
HETATM   15  C9  UNL     1      35.450   1.305  10.554  1.00  0.00     0.027 A 
HETATM   16  C10 UNL     1      36.099   1.818  11.652  1.00  0.00     0.046 A 
HETATM   17  N4  UNL     1      35.566   1.670  12.963  1.00  0.00    -0.102 NA
HETATM   18  C11 UNL     1      37.303   2.501  11.487  1.00  0.00     0.027 A 
HETATM   19  C12 UNL     1      37.815   2.644  10.222  1.00  0.00     0.011 A 
ENDBRANCH  12  13
ENDBRANCH   5  12
BRANCH   1  20
HETATM   20  C3  UNL     1      40.498   7.611   6.286  1.00  0.00     0.102 C 
BRANCH  20  21
HETATM   21  S1  UNL     1      39.631   8.472   7.627  1.00  0.00    -0.165 SA
BRANCH  21  22
HETATM   22  C2  UNL     1      40.820   9.289   8.737  1.00  0.00     0.101 C 
BRANCH  22  23
HETATM   23  C1  UNL     1      42.092   8.460   8.740  1.00  0.00     0.239 C 
BRANCH  23  24
HETATM   24  N1  UNL     1      41.974   7.359   9.689  1.00  0.00    -0.079 N 
ATOM     25  H13 UNL     1      41.265   7.542  10.398  1.00  0.00     0.274 HD
ATOM     26  H12 UNL     1      41.553   6.533   9.264  1.00  0.00     0.274 HD
ATOM     27  H11 UNL     1      42.883   7.152  10.104  1.00  0.00     0.274 HD
ENDBRANCH  23  24
ENDBRANCH  22  23
ENDBRANCH  21  22
ENDBRANCH  20  21
ENDBRANCH   1  20
BRANCH  11  28
HETATM   28  O2  UNL     1      41.584   5.059   5.438  1.00  0.00    -0.384 OA
ATOM     29  H2  UNL     1      42.331   5.643   5.380  1.00  0.00     0.210 HD
ENDBRANCH  11  28
TORSDOF 8
ENDMDL
MODEL 5
REMARK VINA RESULT: -6.881821663      1.056      1.170
REMARK  8 active torsions:
REMARK  status: ('A' for Active; 'I' for Inactive)
REMARK    1  A    between atoms: N1_1  and  C1_5 
REMARK    2  A    between atoms: C1_5  and  C2_6 
REMARK    3  A    between atoms: C2_6  and  S1_7 
REMARK    4  A    between atoms: S1_7  and  C3_8 
REMARK    5  A    between atoms: C3_8  and  C4_9 
REMARK    6  A    between atoms: N3_13  and  C6_15 
REMARK    7  A    between atoms: C6_15  and  C7_16 
REMARK    8  A    between atoms: C14_27  and  O2_28 
ROOT
HETATM    1  C4  UNL     1      39.780   3.268   5.400  1.00  0.00     0.146 C 
HETATM    2  N2  UNL     1      39.842   4.359   6.359  1.00  0.00    -0.218 N 
ATOM      3  H2  UNL     1      39.623   4.179   7.339  1.00  0.00     0.178 HD
HETATM    4  C5  UNL     1      40.207   5.685   5.951  1.00  0.00     0.677 C 
HETATM    5  N3  UNL     1      40.365   6.551   6.865  1.00  0.00    -0.222 N 
ATOM      6  H3  UNL     1      40.216   6.221   7.818  1.00  0.00     0.178 HD
HETATM    7  N5  UNL     1      40.361   5.924   4.558  1.00  0.00    -0.158 N 
ATOM      8  H5  UNL     1      40.620   6.852   4.224  1.00  0.00     0.187 HD
HETATM    9  C13 UNL     1      40.155   4.866   3.630  1.00  0.00     0.266 C 
HETATM   10  O1  UNL     1      40.702   4.872   2.481  1.00  0.00    -0.270 OA
HETATM   11  C14 UNL     1      39.268   3.750   4.068  1.00  0.00     0.234 C 
ENDROOT
BRANCH   5  12
HETATM   12  C6  UNL     1      40.722   7.923   6.731  1.00  0.00     0.176 C 
BRANCH  12  13
HETATM   13  C7  UNL     1      40.339   8.642   7.990  1.00  0.00    -0.040 A 
HETATM   14  C8  UNL     1      41.178   9.514   8.627  1.00  0.00     0.011 A 
HETATM   15  C9  UNL     1      40.777  10.156   9.792  1.00  0.00     0.027 A 
HETATM   16  C10 UNL     1      39.527   9.916  10.313  1.00  0.00     0.046 A 
HETATM   17  N4  UNL     1      39.085  10.556  11.504  1.00  0.00    -0.102 NA
HETATM   18  C11 UNL     1      38.668   9.027   9.666  1.00  0.00     0.027 A 
HETATM   19  C12 UNL     1      39.096   8.410   8.518  1.00  0.00     0.011 A 
ENDBRANCH  12  13
ENDBRANCH   5  12
BRANCH   1  20
HETATM   20  C3  UNL     1      38.879   2.161   5.939  1.00  0.00     0.102 C 
BRANCH  20  21
HETATM   21  S1  UNL     1      38.100   2.677   7.494  1.00  0.00    -0.165 SA
BRANCH  21  22
HETATM   22  C2  UNL     1      36.337   2.225   7.508  1.00  0.00     0.101 C 
BRANCH  22  23
HETATM   23  C1  UNL     1      35.612   3.170   6.564  1.00  0.00     0.239 C 
BRANCH  23  24
HETATM   24  N1  UNL     1      36.198   4.503   6.636  1.00  0.00    -0.079 N 
ATOM     25  H13 UNL     1      36.482   4.743   7.585  1.00  0.00     0.274 HD
ATOM     26  H12 UNL     1      37.115   4.540   6.190  1.00  0.00     0.274 HD
ATOM     27  H11 UNL     1      35.556   5.192   6.245  1.00  0.00     0.274 HD
ENDBRANCH  23  24
ENDBRANCH  22  23
ENDBRANCH  21  22
ENDBRANCH  20  21
ENDBRANCH   1  20
BRANCH  11  28
HETATM   28  O2  UNL     1      37.980   4.297   4.195  1.00  0.00    -0.384 OA
ATOM     29  H2  UNL     1      37.893   5.084   3.670  1.00  0.00     0.210 HD
ENDBRANCH  11  28
TORSDOF 8
ENDMDL
