MODEL 1
REMARK VINA RESULT: -7.000672481      0.000      0.000
REMARK  14 active torsions:
REMARK  status: ('A' for Active; 'I' for Inactive)
REMARK    1  A    between atoms: C3_5  and  C4_6 
REMARK    2  A    between atoms: C4_6  and  C5_7 
REMARK    3  A    between atoms: C5_7  and  C6_8 
REMARK    4  A    between atoms: C6_8  and  C7_9 
REMARK    5  A    between atoms: C7_9  and  C8_10 
REMARK    6  A    between atoms: C8_10  and  C9_11 
REMARK    7  A    between atoms: C9_11  and  C10_12 
REMARK    8  A    between atoms: C10_12  and  C11_13 
REMARK    9  A    between atoms: C11_13  and  C12_14 
REMARK   10  A    between atoms: C12_14  and  C13_15 
REMARK   11  A    between atoms: C13_15  and  C14_16 
REMARK   12  A    between atoms: C14_16  and  C15_17 
REMARK   13  A    between atoms: C15_17  and  C16_18 
REMARK   14  A    between atoms: C16_18  and  C17_19 
ROOT
HETATM    1  C9  UNL     1       8.198  32.292   5.643  1.00  0.00     0.000 C 
ENDROOT
BRANCH   1   2
HETATM    2  C8  UNL     1       7.973  33.808   5.528  1.00  0.00     0.000 C 
BRANCH   2   3
HETATM    3  C7  UNL     1       7.697  34.167   4.087  1.00  0.00     0.000 C 
BRANCH   3   4
HETATM    4  C6  UNL     1       8.966  34.545   3.405  1.00  0.00     0.000 C 
BRANCH   4   5
HETATM    5  C5  UNL     1       9.848  35.335   4.327  1.00  0.00     0.006 C 
BRANCH   5   6
HETATM    6  C4  UNL     1      11.288  34.942   4.004  1.00  0.00     0.057 C 
BRANCH   6   7
HETATM    7  C3  UNL     1      11.821  34.035   5.048  1.00  0.00     0.009 A 
HETATM    8  N1  UNL     1      12.215  34.398   6.279  1.00  0.00    -0.369 N 
HETATM    9  C2  UNL     1      12.631  33.280   6.913  1.00  0.00     0.088 A 
ATOM     10  H1  UNL     1      12.202  35.342   6.663  1.00  0.00     0.165 HD
HETATM   11  C1  UNL     1      12.503  32.198   6.080  1.00  0.00     0.019 A 
HETATM   12  C21 UNL     1      11.987  32.686   4.894  1.00  0.00     0.026 A 
ENDBRANCH   6   7
ENDBRANCH   5   6
ENDBRANCH   4   5
ENDBRANCH   3   4
ENDBRANCH   2   3
ENDBRANCH   1   2
BRANCH   1  13
HETATM   13  C10 UNL     1       7.325  31.778   6.744  1.00  0.00     0.000 C 
BRANCH  13  14
HETATM   14  C11 UNL     1       8.066  31.223   7.908  1.00  0.00     0.000 C 
BRANCH  14  15
HETATM   15  C12 UNL     1       9.544  31.213   7.645  1.00  0.00     0.000 C 
BRANCH  15  16
HETATM   16  C13 UNL     1      10.290  30.698   8.819  1.00  0.00     0.000 C 
BRANCH  16  17
HETATM   17  C14 UNL     1      10.165  29.195   8.986  1.00  0.00     0.000 C 
BRANCH  17  18
HETATM   18  C15 UNL     1      11.443  28.501   9.297  1.00  0.00     0.000 C 
BRANCH  18  19
HETATM   19  C16 UNL     1      12.226  29.272  10.301  1.00  0.00     0.004 C 
BRANCH  19  20
HETATM   20  C17 UNL     1      13.652  29.525   9.957  1.00  0.00    -0.014 C 
HETATM   21  C18 UNL     1      13.931  31.033   9.875  1.00  0.00     0.004 C 
HETATM   22  C19 UNL     1      14.854  30.697   8.703  1.00  0.00     0.001 C 
HETATM   23  C20 UNL     1      13.993  29.469   8.478  1.00  0.00     0.004 C 
ENDBRANCH  19  20
ENDBRANCH  18  19
ENDBRANCH  17  18
ENDBRANCH  16  17
ENDBRANCH  15  16
ENDBRANCH  14  15
ENDBRANCH  13  14
ENDBRANCH   1  13
TORSDOF 14
ENDMDL
MODEL 2
REMARK VINA RESULT: -6.904325552      1.404      6.250
REMARK  14 active torsions:
REMARK  status: ('A' for Active; 'I' for Inactive)
REMARK    1  A    between atoms: C3_5  and  C4_6 
REMARK    2  A    between atoms: C4_6  and  C5_7 
REMARK    3  A    between atoms: C5_7  and  C6_8 
REMARK    4  A    between atoms: C6_8  and  C7_9 
REMARK    5  A    between atoms: C7_9  and  C8_10 
REMARK    6  A    between atoms: C8_10  and  C9_11 
REMARK    7  A    between atoms: C9_11  and  C10_12 
REMARK    8  A    between atoms: C10_12  and  C11_13 
REMARK    9  A    between atoms: C11_13  and  C12_14 
REMARK   10  A    between atoms: C12_14  and  C13_15 
REMARK   11  A    between atoms: C13_15  and  C14_16 
REMARK   12  A    between atoms: C14_16  and  C15_17 
REMARK   13  A    between atoms: C15_17  and  C16_18 
REMARK   14  A    between atoms: C16_18  and  C17_19 
ROOT
HETATM    1  C9  UNL     1       8.481  31.286   8.126  1.00  0.00     0.000 C 
ENDROOT
BRANCH   1   2
HETATM    2  C8  UNL     1       8.870  30.049   8.953  1.00  0.00     0.000 C 
BRANCH   2   3
HETATM    3  C7  UNL     1      10.323  30.149   9.352  1.00  0.00     0.000 C 
BRANCH   3   4
HETATM    4  C6  UNL     1      10.966  28.808   9.270  1.00  0.00     0.000 C 
BRANCH   4   5
HETATM    5  C5  UNL     1      12.462  28.936   9.261  1.00  0.00     0.006 C 
BRANCH   5   6
HETATM    6  C4  UNL     1      12.784  30.289   8.631  1.00  0.00     0.057 C 
BRANCH   6   7
HETATM    7  C3  UNL     1      14.175  30.300   8.118  1.00  0.00     0.009 A 
HETATM    8  N1  UNL     1      14.540  30.471   6.838  1.00  0.00    -0.369 N 
HETATM    9  C2  UNL     1      15.889  30.414   6.794  1.00  0.00     0.088 A 
ATOM     10  H1  UNL     1      13.914  30.616   6.046  1.00  0.00     0.165 HD
HETATM   11  C1  UNL     1      16.387  30.204   8.053  1.00  0.00     0.019 A 
HETATM   12  C21 UNL     1      15.290  30.132   8.893  1.00  0.00     0.026 A 
ENDBRANCH   6   7
ENDBRANCH   5   6
ENDBRANCH   4   5
ENDBRANCH   3   4
ENDBRANCH   2   3
ENDBRANCH   1   2
BRANCH   1  13
HETATM   13  C10 UNL     1       9.574  31.544   7.139  1.00  0.00     0.000 C 
BRANCH  13  14
HETATM   14  C11 UNL     1       9.109  31.706   5.736  1.00  0.00     0.000 C 
BRANCH  14  15
HETATM   15  C12 UNL     1       7.757  32.357   5.692  1.00  0.00     0.000 C 
BRANCH  15  16
HETATM   16  C13 UNL     1       7.877  33.817   5.459  1.00  0.00     0.000 C 
BRANCH  16  17
HETATM   17  C14 UNL     1       7.592  34.212   4.022  1.00  0.00     0.000 C 
BRANCH  17  18
HETATM   18  C15 UNL     1       8.797  34.582   3.234  1.00  0.00     0.000 C 
BRANCH  18  19
HETATM   19  C16 UNL     1       9.739  35.384   4.062  1.00  0.00     0.004 C 
BRANCH  19  20
HETATM   20  C17 UNL     1      11.166  34.962   4.015  1.00  0.00    -0.014 C 
HETATM   21  C18 UNL     1      11.285  33.502   3.553  1.00  0.00     0.004 C 
HETATM   22  C19 UNL     1      12.429  33.382   4.561  1.00  0.00     0.001 C 
HETATM   23  C20 UNL     1      11.762  34.503   5.334  1.00  0.00     0.004 C 
ENDBRANCH  19  20
ENDBRANCH  18  19
ENDBRANCH  17  18
ENDBRANCH  16  17
ENDBRANCH  15  16
ENDBRANCH  14  15
ENDBRANCH  13  14
ENDBRANCH   1  13
TORSDOF 14
ENDMDL
MODEL 3
REMARK VINA RESULT: -6.904162792      0.992      1.873
REMARK  14 active torsions:
REMARK  status: ('A' for Active; 'I' for Inactive)
REMARK    1  A    between atoms: C3_5  and  C4_6 
REMARK    2  A    between atoms: C4_6  and  C5_7 
REMARK    3  A    between atoms: C5_7  and  C6_8 
REMARK    4  A    between atoms: C6_8  and  C7_9 
REMARK    5  A    between atoms: C7_9  and  C8_10 
REMARK    6  A    between atoms: C8_10  and  C9_11 
REMARK    7  A    between atoms: C9_11  and  C10_12 
REMARK    8  A    between atoms: C10_12  and  C11_13 
REMARK    9  A    between atoms: C11_13  and  C12_14 
REMARK   10  A    between atoms: C12_14  and  C13_15 
REMARK   11  A    between atoms: C13_15  and  C14_16 
REMARK   12  A    between atoms: C14_16  and  C15_17 
REMARK   13  A    between atoms: C15_17  and  C16_18 
REMARK   14  A    between atoms: C16_18  and  C17_19 
ROOT
HETATM    1  C9  UNL     1       9.556  31.627   6.964  1.00  0.00     0.000 C 
ENDROOT
BRANCH   1   2
HETATM    2  C8  UNL     1       8.984  31.772   5.545  1.00  0.00     0.000 C 
BRANCH   2   3
HETATM    3  C7  UNL     1       7.750  32.641   5.587  1.00  0.00     0.000 C 
BRANCH   3   4
HETATM    4  C6  UNL     1       8.104  34.044   5.232  1.00  0.00     0.000 C 
BRANCH   4   5
HETATM    5  C5  UNL     1       8.667  34.114   3.842  1.00  0.00     0.006 C 
BRANCH   5   6
HETATM    6  C4  UNL     1       9.738  35.202   3.854  1.00  0.00     0.057 C 
BRANCH   6   7
HETATM    7  C3  UNL     1      10.983  34.692   4.477  1.00  0.00     0.009 A 
HETATM    8  N1  UNL     1      11.588  35.204   5.559  1.00  0.00    -0.369 N 
HETATM    9  C2  UNL     1      12.686  34.454   5.798  1.00  0.00     0.088 A 
ATOM     10  H1  UNL     1      11.277  36.011   6.100  1.00  0.00     0.165 HD
HETATM   11  C1  UNL     1      12.781  33.458   4.861  1.00  0.00     0.019 A 
HETATM   12  C21 UNL     1      11.693  33.615   4.022  1.00  0.00     0.026 A 
ENDBRANCH   6   7
ENDBRANCH   5   6
ENDBRANCH   4   5
ENDBRANCH   3   4
ENDBRANCH   2   3
ENDBRANCH   1   2
BRANCH   1  13
HETATM   13  C10 UNL     1       8.442  31.206   7.870  1.00  0.00     0.000 C 
BRANCH  13  14
HETATM   14  C11 UNL     1       8.866  30.354   9.012  1.00  0.00     0.000 C 
BRANCH  14  15
HETATM   15  C12 UNL     1      10.337  30.061   8.942  1.00  0.00     0.000 C 
BRANCH  15  16
HETATM   16  C13 UNL     1      10.592  28.601   9.001  1.00  0.00     0.000 C 
BRANCH  16  17
HETATM   17  C14 UNL     1      11.949  28.260   9.589  1.00  0.00     0.000 C 
BRANCH  17  18
HETATM   18  C15 UNL     1      12.621  29.388  10.286  1.00  0.00     0.000 C 
BRANCH  18  19
HETATM   19  C16 UNL     1      13.976  29.623   9.716  1.00  0.00     0.004 C 
BRANCH  19  20
HETATM   20  C17 UNL     1      14.059  29.654   8.230  1.00  0.00    -0.014 C 
HETATM   21  C18 UNL     1      15.461  30.085   7.774  1.00  0.00     0.004 C 
HETATM   22  C19 UNL     1      14.754  30.842   6.650  1.00  0.00     0.001 C 
HETATM   23  C20 UNL     1      13.549  30.921   7.567  1.00  0.00     0.004 C 
ENDBRANCH  19  20
ENDBRANCH  18  19
ENDBRANCH  17  18
ENDBRANCH  16  17
ENDBRANCH  15  16
ENDBRANCH  14  15
ENDBRANCH  13  14
ENDBRANCH   1  13
TORSDOF 14
ENDMDL
MODEL 4
REMARK VINA RESULT: -6.841416147      0.764      1.291
REMARK  14 active torsions:
REMARK  status: ('A' for Active; 'I' for Inactive)
REMARK    1  A    between atoms: C3_5  and  C4_6 
REMARK    2  A    between atoms: C4_6  and  C5_7 
REMARK    3  A    between atoms: C5_7  and  C6_8 
REMARK    4  A    between atoms: C6_8  and  C7_9 
REMARK    5  A    between atoms: C7_9  and  C8_10 
REMARK    6  A    between atoms: C8_10  and  C9_11 
REMARK    7  A    between atoms: C9_11  and  C10_12 
REMARK    8  A    between atoms: C10_12  and  C11_13 
REMARK    9  A    between atoms: C11_13  and  C12_14 
REMARK   10  A    between atoms: C12_14  and  C13_15 
REMARK   11  A    between atoms: C13_15  and  C14_16 
REMARK   12  A    between atoms: C14_16  and  C15_17 
REMARK   13  A    between atoms: C15_17  and  C16_18 
REMARK   14  A    between atoms: C16_18  and  C17_19 
ROOT
HETATM    1  C9  UNL     1       7.840  33.291   5.572  1.00  0.00     0.000 C 
ENDROOT
BRANCH   1   2
HETATM    2  C8  UNL     1       7.852  34.121   4.278  1.00  0.00     0.000 C 
BRANCH   2   3
HETATM    3  C7  UNL     1       9.236  34.091   3.675  1.00  0.00     0.000 C 
BRANCH   3   4
HETATM    4  C6  UNL     1       9.776  35.476   3.574  1.00  0.00     0.000 C 
BRANCH   4   5
HETATM    5  C5  UNL     1      10.600  35.813   4.783  1.00  0.00     0.006 C 
BRANCH   5   6
HETATM    6  C4  UNL     1      12.012  35.300   4.511  1.00  0.00     0.057 C 
BRANCH   6   7
HETATM    7  C3  UNL     1      12.373  34.244   5.486  1.00  0.00     0.009 A 
HETATM    8  N1  UNL     1      12.467  34.399   6.816  1.00  0.00    -0.369 N 
HETATM    9  C2  UNL     1      12.818  33.203   7.336  1.00  0.00     0.088 A 
ATOM     10  H1  UNL     1      12.303  35.261   7.336  1.00  0.00     0.165 HD
HETATM   11  C1  UNL     1      12.951  32.280   6.332  1.00  0.00     0.019 A 
HETATM   12  C21 UNL     1      12.667  32.949   5.155  1.00  0.00     0.026 A 
ENDBRANCH   6   7
ENDBRANCH   5   6
ENDBRANCH   4   5
ENDBRANCH   3   4
ENDBRANCH   2   3
ENDBRANCH   1   2
BRANCH   1  13
HETATM   13  C10 UNL     1       8.860  32.206   5.434  1.00  0.00     0.000 C 
BRANCH  13  14
HETATM   14  C11 UNL     1       9.445  31.744   6.721  1.00  0.00     0.000 C 
BRANCH  14  15
HETATM   15  C12 UNL     1       8.373  31.541   7.753  1.00  0.00     0.000 C 
BRANCH  15  16
HETATM   16  C13 UNL     1       8.759  30.483   8.719  1.00  0.00     0.000 C 
BRANCH  16  17
HETATM   17  C14 UNL     1      10.220  30.087   8.610  1.00  0.00     0.000 C 
BRANCH  17  18
HETATM   18  C15 UNL     1      10.532  28.730   9.132  1.00  0.00     0.000 C 
BRANCH  18  19
HETATM   19  C16 UNL     1      12.002  28.554   9.289  1.00  0.00     0.004 C 
BRANCH  19  20
HETATM   20  C17 UNL     1      12.829  29.770   9.061  1.00  0.00    -0.014 C 
HETATM   21  C18 UNL     1      14.178  29.397   8.428  1.00  0.00     0.004 C 
HETATM   22  C19 UNL     1      14.780  30.497   9.304  1.00  0.00     0.001 C 
HETATM   23  C20 UNL     1      13.625  30.260  10.258  1.00  0.00     0.004 C 
ENDBRANCH  19  20
ENDBRANCH  18  19
ENDBRANCH  17  18
ENDBRANCH  16  17
ENDBRANCH  15  16
ENDBRANCH  14  15
ENDBRANCH  13  14
ENDBRANCH   1  13
TORSDOF 14
ENDMDL
MODEL 5
REMARK VINA RESULT: -6.808135845      1.318      2.335
REMARK  14 active torsions:
REMARK  status: ('A' for Active; 'I' for Inactive)
REMARK    1  A    between atoms: C3_5  and  C4_6 
REMARK    2  A    between atoms: C4_6  and  C5_7 
REMARK    3  A    between atoms: C5_7  and  C6_8 
REMARK    4  A    between atoms: C6_8  and  C7_9 
REMARK    5  A    between atoms: C7_9  and  C8_10 
REMARK    6  A    between atoms: C8_10  and  C9_11 
REMARK    7  A    between atoms: C9_11  and  C10_12 
REMARK    8  A    between atoms: C10_12  and  C11_13 
REMARK    9  A    between atoms: C11_13  and  C12_14 
REMARK   10  A    between atoms: C12_14  and  C13_15 
REMARK   11  A    between atoms: C13_15  and  C14_16 
REMARK   12  A    between atoms: C14_16  and  C15_17 
REMARK   13  A    between atoms: C15_17  and  C16_18 
REMARK   14  A    between atoms: C16_18  and  C17_19 
ROOT
HETATM    1  C9  UNL     1       9.643  31.595   7.076  1.00  0.00     0.000 C 
ENDROOT
BRANCH   1   2
HETATM    2  C8  UNL     1       9.061  31.950   5.698  1.00  0.00     0.000 C 
BRANCH   2   3
HETATM    3  C7  UNL     1       7.803  32.766   5.878  1.00  0.00     0.000 C 
BRANCH   3   4
HETATM    4  C6  UNL     1       7.740  33.836   4.845  1.00  0.00     0.000 C 
BRANCH   4   5
HETATM    5  C5  UNL     1       8.911  33.741   3.910  1.00  0.00     0.006 C 
BRANCH   5   6
HETATM    6  C4  UNL     1       9.276  35.170   3.514  1.00  0.00     0.057 C 
BRANCH   6   7
HETATM    7  C3  UNL     1      10.429  35.647   4.315  1.00  0.00     0.009 A 
HETATM    8  N1  UNL     1      10.695  36.925   4.626  1.00  0.00    -0.369 N 
HETATM    9  C2  UNL     1      11.827  36.932   5.363  1.00  0.00     0.088 A 
ATOM     10  H1  UNL     1      10.144  37.740   4.357  1.00  0.00     0.165 HD
HETATM   11  C1  UNL     1      12.287  35.650   5.519  1.00  0.00     0.019 A 
HETATM   12  C21 UNL     1      11.392  34.836   4.849  1.00  0.00     0.026 A 
ENDBRANCH   6   7
ENDBRANCH   5   6
ENDBRANCH   4   5
ENDBRANCH   3   4
ENDBRANCH   2   3
ENDBRANCH   1   2
BRANCH   1  13
HETATM   13  C10 UNL     1       8.503  31.269   7.988  1.00  0.00     0.000 C 
BRANCH  13  14
HETATM   14  C11 UNL     1       8.804  30.219   8.997  1.00  0.00     0.000 C 
BRANCH  14  15
HETATM   15  C12 UNL     1      10.286  30.072   9.190  1.00  0.00     0.000 C 
BRANCH  15  16
HETATM   16  C13 UNL     1      10.705  28.659   9.028  1.00  0.00     0.000 C 
BRANCH  16  17
HETATM   17  C14 UNL     1      12.011  28.344   9.735  1.00  0.00     0.000 C 
BRANCH  17  18
HETATM   18  C15 UNL     1      12.764  29.538  10.200  1.00  0.00     0.000 C 
BRANCH  18  19
HETATM   19  C16 UNL     1      14.058  29.657   9.473  1.00  0.00     0.004 C 
BRANCH  19  20
HETATM   20  C17 UNL     1      14.246  30.903   8.681  1.00  0.00    -0.014 C 
HETATM   21  C18 UNL     1      13.389  32.043   9.252  1.00  0.00     0.004 C 
HETATM   22  C19 UNL     1      13.164  32.466   7.800  1.00  0.00     0.001 C 
HETATM   23  C20 UNL     1      13.406  31.018   7.422  1.00  0.00     0.004 C 
ENDBRANCH  19  20
ENDBRANCH  18  19
ENDBRANCH  17  18
ENDBRANCH  16  17
ENDBRANCH  15  16
ENDBRANCH  14  15
ENDBRANCH  13  14
ENDBRANCH   1  13
TORSDOF 14
ENDMDL
