MODEL 1
REMARK VINA RESULT: -8.422629568      0.000      0.000
REMARK  6 active torsions:
REMARK  status: ('A' for Active; 'I' for Inactive)
REMARK       I    between atoms: N1_2  and  C2_4 
REMARK    1  A    between atoms: C2_4  and  C3_6 
REMARK    2  A    between atoms: C3_6  and  N2_7 
REMARK       I    between atoms: N3_13  and  C6_14 
REMARK    3  A    between atoms: C6_14  and  C7_16 
REMARK       I    between atoms: N4_20  and  C11_21 
REMARK    4  A    between atoms: C11_21  and  C12_23 
REMARK    5  A    between atoms: C12_23  and  C13_24 
REMARK    6  A    between atoms: C13_24  and  N5_25 
ROOT
HETATM    1  C7  UNL     1      18.105 -11.481  20.571  1.00  0.00     0.258 C 
HETATM    2  C8  UNL     1      19.474 -11.646  20.286  1.00  0.00    -0.149 C 
HETATM    3  C9  UNL     1      20.840 -11.926  20.093  1.00  0.00     0.104 C 
HETATM    4  C10 UNL     1      21.179 -13.108  21.079  1.00  0.00     0.164 C 
HETATM    5  N4  UNL     1      19.905 -13.592  21.684  1.00  0.00    -0.249 N 
HETATM    6  C11 UNL     1      19.871 -15.017  21.655  1.00  0.00     0.240 C 
HETATM    7  O3  UNL     1      20.825 -15.674  21.174  1.00  0.00    -0.272 OA
HETATM    8  N7  UNL     1      18.802 -13.050  22.240  1.00  0.00    -0.240 N 
ATOM      9  H7  UNL     1      18.766 -13.050  23.259  1.00  0.00     0.204 HD
HETATM   10  N8  UNL     1      17.739 -12.506  21.605  1.00  0.00    -0.099 NA
ENDROOT
BRANCH   1  11
HETATM   11  C6  UNL     1      17.154 -11.658  19.436  1.00  0.00     0.252 C 
HETATM   12  N3  UNL     1      15.771 -11.398  19.571  1.00  0.00    -0.347 N 
HETATM   13  C5  UNL     1      14.776 -11.538  18.534  1.00  0.00     0.129 C 
HETATM   14  C21 UNL     1      15.131 -10.944  20.786  1.00  0.00     0.174 C 
HETATM   15  C4  UNL     1      13.522 -10.871  19.090  1.00  0.00     0.070 C 
HETATM   16  C3  UNL     1      13.643 -11.146  20.562  1.00  0.00     0.220 C 
HETATM   17  O2  UNL     1      17.608 -12.050  18.334  1.00  0.00    -0.270 OA
BRANCH  16  18
HETATM   18  C2  UNL     1      12.822 -10.233  21.396  1.00  0.00     0.255 C 
HETATM   19  N1  UNL     1      12.935 -10.230  22.808  1.00  0.00    -0.363 N 
HETATM   20  C1  UNL     1      12.127  -9.338  23.585  1.00  0.00     0.149 C 
ATOM     21  H1  UNL     1      13.589 -10.861  23.270  1.00  0.00     0.161 HD
HETATM   22  O1  UNL     1      12.012  -9.452  20.840  1.00  0.00    -0.271 OA
ENDBRANCH  16  18
BRANCH  16  23
HETATM   23  N2  UNL     1      13.290 -12.516  20.822  1.00  0.00    -0.060 N 
ATOM     24  H23 UNL     1      13.216 -12.707  21.821  1.00  0.00     0.275 HD
ATOM     25  H22 UNL     1      12.325 -12.716  20.557  1.00  0.00     0.275 HD
ATOM     26  H21 UNL     1      13.948 -13.146  20.363  1.00  0.00     0.275 HD
ENDBRANCH  16  23
ENDBRANCH   1  11
BRANCH   6  27
HETATM   27  C12 UNL     1      18.687 -15.775  22.204  1.00  0.00     0.132 C 
BRANCH  27  28
HETATM   28  C13 UNL     1      17.998 -16.475  21.101  1.00  0.00     0.246 C 
BRANCH  28  29
HETATM   29  N5  UNL     1      16.590 -16.628  21.233  1.00  0.00    -0.067 N 
HETATM   30  C14 UNL     1      16.343 -17.061  22.621  1.00  0.00     0.272 C 
HETATM   31  C15 UNL     1      16.035 -17.676  20.401  1.00  0.00     0.265 C 
HETATM   32  C16 UNL     1      14.553 -17.771  20.701  1.00  0.00     0.264 C 
HETATM   33  N6  UNL     1      13.925 -16.644  20.018  1.00  0.00    -0.071 N 
HETATM   34  C17 UNL     1      13.505 -17.048  18.686  1.00  0.00     0.272 C 
HETATM   35  C18 UNL     1      12.727 -16.228  20.729  1.00  0.00     0.272 C 
HETATM   36  C19 UNL     1      14.859 -15.544  19.860  1.00  0.00     0.264 C 
HETATM   37  C20 UNL     1      15.812 -15.445  21.032  1.00  0.00     0.265 C 
ENDBRANCH  28  29
ENDBRANCH  27  28
ENDBRANCH   6  27
TORSDOF 6
ENDMDL
MODEL 2
REMARK VINA RESULT: -8.283668414      2.814      5.302
REMARK  6 active torsions:
REMARK  status: ('A' for Active; 'I' for Inactive)
REMARK       I    between atoms: N1_2  and  C2_4 
REMARK    1  A    between atoms: C2_4  and  C3_6 
REMARK    2  A    between atoms: C3_6  and  N2_7 
REMARK       I    between atoms: N3_13  and  C6_14 
REMARK    3  A    between atoms: C6_14  and  C7_16 
REMARK       I    between atoms: N4_20  and  C11_21 
REMARK    4  A    between atoms: C11_21  and  C12_23 
REMARK    5  A    between atoms: C12_23  and  C13_24 
REMARK    6  A    between atoms: C13_24  and  N5_25 
ROOT
HETATM    1  C7  UNL     1      17.369 -11.867  19.781  1.00  0.00     0.258 C 
HETATM    2  C8  UNL     1      18.614 -12.047  19.149  1.00  0.00    -0.149 C 
HETATM    3  C9  UNL     1      19.912 -12.267  18.649  1.00  0.00     0.104 C 
HETATM    4  C10 UNL     1      20.799 -12.625  19.901  1.00  0.00     0.164 C 
HETATM    5  N4  UNL     1      19.900 -12.779  21.082  1.00  0.00    -0.249 N 
HETATM    6  C11 UNL     1      20.257 -13.954  21.806  1.00  0.00     0.240 C 
HETATM    7  O3  UNL     1      21.205 -14.681  21.426  1.00  0.00    -0.272 OA
HETATM    8  N7  UNL     1      18.866 -12.113  21.634  1.00  0.00    -0.240 N 
ATOM      9  H7  UNL     1      19.085 -11.526  22.438  1.00  0.00     0.204 HD
HETATM   10  N8  UNL     1      17.569 -12.132  21.244  1.00  0.00    -0.099 NA
ENDROOT
BRANCH   1  11
HETATM   11  C6  UNL     1      16.253 -12.751  19.335  1.00  0.00     0.252 C 
HETATM   12  N3  UNL     1      14.953 -12.648  19.880  1.00  0.00    -0.347 N 
HETATM   13  C5  UNL     1      13.813 -13.455  19.513  1.00  0.00     0.129 C 
HETATM   14  C21 UNL     1      14.560 -11.705  20.904  1.00  0.00     0.174 C 
HETATM   15  C4  UNL     1      12.614 -12.769  20.161  1.00  0.00     0.070 C 
HETATM   16  C3  UNL     1      13.215 -12.193  21.412  1.00  0.00     0.220 C 
HETATM   17  O2  UNL     1      16.489 -13.607  18.448  1.00  0.00    -0.270 OA
BRANCH  16  18
HETATM   18  C2  UNL     1      12.405 -11.097  21.998  1.00  0.00     0.255 C 
HETATM   19  N1  UNL     1      12.194 -11.008  23.397  1.00  0.00    -0.363 N 
HETATM   20  C1  UNL     1      11.406  -9.938  23.932  1.00  0.00     0.149 C 
ATOM     21  H1  UNL     1      12.602 -11.705  24.020  1.00  0.00     0.161 HD
HETATM   22  O1  UNL     1      11.897 -10.234  21.242  1.00  0.00    -0.271 OA
ENDBRANCH  16  18
BRANCH  16  23
HETATM   23  N2  UNL     1      13.407 -13.245  22.376  1.00  0.00    -0.060 N 
ATOM     24  H23 UNL     1      14.396 -13.451  22.520  1.00  0.00     0.275 HD
ATOM     25  H22 UNL     1      13.175 -12.941  23.321  1.00  0.00     0.275 HD
ATOM     26  H21 UNL     1      12.882 -14.076  22.104  1.00  0.00     0.275 HD
ENDBRANCH  16  23
ENDBRANCH   1  11
BRANCH   6  27
HETATM   27  C12 UNL     1      19.504 -14.354  23.052  1.00  0.00     0.132 C 
BRANCH  27  28
HETATM   28  C13 UNL     1      19.957 -13.525  24.188  1.00  0.00     0.246 C 
BRANCH  28  29
HETATM   29  N5  UNL     1      21.002 -14.067  24.986  1.00  0.00    -0.067 N 
HETATM   30  C14 UNL     1      20.730 -13.648  26.373  1.00  0.00     0.272 C 
HETATM   31  C15 UNL     1      22.312 -13.533  24.675  1.00  0.00     0.265 C 
HETATM   32  C16 UNL     1      23.304 -14.140  25.647  1.00  0.00     0.264 C 
HETATM   33  N6  UNL     1      23.547 -15.502  25.182  1.00  0.00    -0.071 N 
HETATM   34  C17 UNL     1      24.686 -15.518  24.279  1.00  0.00     0.272 C 
HETATM   35  C18 UNL     1      23.888 -16.363  26.303  1.00  0.00     0.272 C 
HETATM   36  C19 UNL     1      22.406 -16.014  24.445  1.00  0.00     0.264 C 
HETATM   37  C20 UNL     1      21.099 -15.493  25.004  1.00  0.00     0.265 C 
ENDBRANCH  28  29
ENDBRANCH  27  28
ENDBRANCH   6  27
TORSDOF 6
ENDMDL
MODEL 3
REMARK VINA RESULT: -8.264280981      1.197      1.287
REMARK  6 active torsions:
REMARK  status: ('A' for Active; 'I' for Inactive)
REMARK       I    between atoms: N1_2  and  C2_4 
REMARK    1  A    between atoms: C2_4  and  C3_6 
REMARK    2  A    between atoms: C3_6  and  N2_7 
REMARK       I    between atoms: N3_13  and  C6_14 
REMARK    3  A    between atoms: C6_14  and  C7_16 
REMARK       I    between atoms: N4_20  and  C11_21 
REMARK    4  A    between atoms: C11_21  and  C12_23 
REMARK    5  A    between atoms: C12_23  and  C13_24 
REMARK    6  A    between atoms: C13_24  and  N5_25 
ROOT
HETATM    1  C7  UNL     1      17.519 -11.854  20.986  1.00  0.00     0.258 C 
HETATM    2  C8  UNL     1      18.806 -11.796  20.418  1.00  0.00    -0.149 C 
HETATM    3  C9  UNL     1      20.129 -11.850  19.940  1.00  0.00     0.104 C 
HETATM    4  C10 UNL     1      20.859 -12.934  20.820  1.00  0.00     0.164 C 
HETATM    5  N4  UNL     1      19.838 -13.609  21.673  1.00  0.00    -0.249 N 
HETATM    6  C11 UNL     1      20.040 -15.019  21.636  1.00  0.00     0.240 C 
HETATM    7  O3  UNL     1      20.969 -15.520  20.959  1.00  0.00    -0.272 OA
HETATM    8  N7  UNL     1      18.802 -13.244  22.454  1.00  0.00    -0.240 N 
ATOM      9  H7  UNL     1      18.979 -13.225  23.458  1.00  0.00     0.204 HD
HETATM   10  N8  UNL     1      17.553 -12.900  22.062  1.00  0.00    -0.099 NA
ENDROOT
BRANCH   1  11
HETATM   11  C6  UNL     1      16.395 -12.215  20.073  1.00  0.00     0.252 C 
HETATM   12  N3  UNL     1      15.043 -12.114  20.474  1.00  0.00    -0.347 N 
HETATM   13  C5  UNL     1      13.892 -12.438  19.665  1.00  0.00     0.129 C 
HETATM   14  C21 UNL     1      14.600 -11.665  21.775  1.00  0.00     0.174 C 
HETATM   15  C4  UNL     1      12.695 -11.892  20.437  1.00  0.00     0.070 C 
HETATM   16  C3  UNL     1      13.136 -12.057  21.864  1.00  0.00     0.220 C 
HETATM   17  O2  UNL     1      16.673 -12.618  18.918  1.00  0.00    -0.270 OA
BRANCH  16  18
HETATM   18  C2  UNL     1      12.382 -11.199  22.811  1.00  0.00     0.255 C 
HETATM   19  N1  UNL     1      12.742  -9.844  23.019  1.00  0.00    -0.363 N 
HETATM   20  C1  UNL     1      11.995  -9.042  23.941  1.00  0.00     0.149 C 
ATOM     21  H1  UNL     1      13.532  -9.442  22.513  1.00  0.00     0.161 HD
HETATM   22  O1  UNL     1      11.409 -11.681  23.440  1.00  0.00    -0.271 OA
ENDBRANCH  16  18
BRANCH  16  23
HETATM   23  N2  UNL     1      13.021 -13.441  22.241  1.00  0.00    -0.060 N 
ATOM     24  H23 UNL     1      12.761 -13.548  23.222  1.00  0.00     0.275 HD
ATOM     25  H22 UNL     1      12.205 -13.883  21.818  1.00  0.00     0.275 HD
ATOM     26  H21 UNL     1      13.882 -13.943  22.020  1.00  0.00     0.275 HD
ENDBRANCH  16  23
ENDBRANCH   1  11
BRANCH   6  27
HETATM   27  C12 UNL     1      19.140 -15.950  22.412  1.00  0.00     0.132 C 
BRANCH  27  28
HETATM   28  C13 UNL     1      18.762 -17.094  21.558  1.00  0.00     0.246 C 
BRANCH  28  29
HETATM   29  N5  UNL     1      17.371 -17.370  21.453  1.00  0.00    -0.067 N 
HETATM   30  C14 UNL     1      17.141 -18.643  22.161  1.00  0.00     0.272 C 
HETATM   31  C15 UNL     1      16.923 -17.603  20.095  1.00  0.00     0.265 C 
HETATM   32  C16 UNL     1      15.450 -17.956  20.146  1.00  0.00     0.264 C 
HETATM   33  N6  UNL     1      14.737 -16.699  20.361  1.00  0.00    -0.071 N 
HETATM   34  C17 UNL     1      14.375 -16.114  19.081  1.00  0.00     0.272 C 
HETATM   35  C18 UNL     1      13.496 -16.941  21.079  1.00  0.00     0.272 C 
HETATM   36  C19 UNL     1      15.574 -15.736  21.053  1.00  0.00     0.264 C 
HETATM   37  C20 UNL     1      16.496 -16.409  22.049  1.00  0.00     0.265 C 
ENDBRANCH  28  29
ENDBRANCH  27  28
ENDBRANCH   6  27
TORSDOF 6
ENDMDL
MODEL 4
REMARK VINA RESULT: -8.246473123      0.759      1.233
REMARK  6 active torsions:
REMARK  status: ('A' for Active; 'I' for Inactive)
REMARK       I    between atoms: N1_2  and  C2_4 
REMARK    1  A    between atoms: C2_4  and  C3_6 
REMARK    2  A    between atoms: C3_6  and  N2_7 
REMARK       I    between atoms: N3_13  and  C6_14 
REMARK    3  A    between atoms: C6_14  and  C7_16 
REMARK       I    between atoms: N4_20  and  C11_21 
REMARK    4  A    between atoms: C11_21  and  C12_23 
REMARK    5  A    between atoms: C12_23  and  C13_24 
REMARK    6  A    between atoms: C13_24  and  N5_25 
ROOT
HETATM    1  C7  UNL     1      18.146 -11.426  20.513  1.00  0.00     0.258 C 
HETATM    2  C8  UNL     1      19.518 -11.608  20.254  1.00  0.00    -0.149 C 
HETATM    3  C9  UNL     1      20.883 -11.907  20.084  1.00  0.00     0.104 C 
HETATM    4  C10 UNL     1      21.179 -13.118  21.048  1.00  0.00     0.164 C 
HETATM    5  N4  UNL     1      19.883 -13.595  21.612  1.00  0.00    -0.249 N 
HETATM    6  C11 UNL     1      19.826 -15.018  21.547  1.00  0.00     0.240 C 
HETATM    7  O3  UNL     1      20.780 -15.679  21.071  1.00  0.00    -0.272 OA
HETATM    8  N7  UNL     1      18.778 -13.048  22.157  1.00  0.00    -0.240 N 
ATOM      9  H7  UNL     1      18.719 -13.072  23.175  1.00  0.00     0.204 HD
HETATM   10  N8  UNL     1      17.739 -12.469  21.512  1.00  0.00    -0.099 NA
ENDROOT
BRANCH   1  11
HETATM   11  C6  UNL     1      17.217 -11.558  19.353  1.00  0.00     0.252 C 
HETATM   12  N3  UNL     1      15.830 -11.315  19.472  1.00  0.00    -0.347 N 
HETATM   13  C5  UNL     1      14.857 -11.415  18.411  1.00  0.00     0.129 C 
HETATM   14  C21 UNL     1      15.164 -10.921  20.694  1.00  0.00     0.174 C 
HETATM   15  C4  UNL     1      13.587 -10.783  18.972  1.00  0.00     0.070 C 
HETATM   16  C3  UNL     1      13.682 -11.123  20.433  1.00  0.00     0.220 C 
HETATM   17  O2  UNL     1      17.696 -11.897  18.243  1.00  0.00    -0.270 OA
BRANCH  16  18
HETATM   18  C2  UNL     1      12.838 -10.255  21.290  1.00  0.00     0.255 C 
HETATM   19  N1  UNL     1      12.922 -10.317  22.704  1.00  0.00    -0.363 N 
HETATM   20  C1  UNL     1      12.092  -9.467  23.504  1.00  0.00     0.149 C 
ATOM     21  H1  UNL     1      13.571 -10.966  23.149  1.00  0.00     0.161 HD
HETATM   22  O1  UNL     1      12.034  -9.454  20.755  1.00  0.00    -0.271 OA
ENDBRANCH  16  18
BRANCH  16  23
HETATM   23  N2  UNL     1      13.335 -12.507  20.623  1.00  0.00    -0.060 N 
ATOM     24  H23 UNL     1      13.931 -13.127  20.074  1.00  0.00     0.275 HD
ATOM     25  H22 UNL     1      13.589 -12.837  21.554  1.00  0.00     0.275 HD
ATOM     26  H21 UNL     1      12.346 -12.656  20.424  1.00  0.00     0.275 HD
ENDBRANCH  16  23
ENDBRANCH   1  11
BRANCH   6  27
HETATM   27  C12 UNL     1      18.617 -15.768  22.050  1.00  0.00     0.132 C 
BRANCH  27  28
HETATM   28  C13 UNL     1      18.546 -17.086  21.387  1.00  0.00     0.246 C 
BRANCH  28  29
HETATM   29  N5  UNL     1      17.245 -17.550  21.045  1.00  0.00    -0.067 N 
HETATM   30  C14 UNL     1      17.433 -18.650  20.080  1.00  0.00     0.272 C 
HETATM   31  C15 UNL     1      16.438 -16.568  20.352  1.00  0.00     0.265 C 
HETATM   32  C16 UNL     1      15.120 -17.222  19.989  1.00  0.00     0.264 C 
HETATM   33  N6  UNL     1      14.336 -17.270  21.219  1.00  0.00    -0.071 N 
HETATM   34  C17 UNL     1      13.514 -16.075  21.325  1.00  0.00     0.272 C 
HETATM   35  C18 UNL     1      13.426 -18.404  21.193  1.00  0.00     0.272 C 
HETATM   36  C19 UNL     1      15.197 -17.304  22.387  1.00  0.00     0.264 C 
HETATM   37  C20 UNL     1      16.469 -18.082  22.121  1.00  0.00     0.265 C 
ENDBRANCH  28  29
ENDBRANCH  27  28
ENDBRANCH   6  27
TORSDOF 6
ENDMDL
MODEL 5
REMARK VINA RESULT: -8.104434388      2.463      4.100
REMARK  6 active torsions:
REMARK  status: ('A' for Active; 'I' for Inactive)
REMARK       I    between atoms: N1_2  and  C2_4 
REMARK    1  A    between atoms: C2_4  and  C3_6 
REMARK    2  A    between atoms: C3_6  and  N2_7 
REMARK       I    between atoms: N3_13  and  C6_14 
REMARK    3  A    between atoms: C6_14  and  C7_16 
REMARK       I    between atoms: N4_20  and  C11_21 
REMARK    4  A    between atoms: C11_21  and  C12_23 
REMARK    5  A    between atoms: C12_23  and  C13_24 
REMARK    6  A    between atoms: C13_24  and  N5_25 
ROOT
HETATM    1  C7  UNL     1      17.369 -11.613  19.170  1.00  0.00     0.258 C 
HETATM    2  C8  UNL     1      18.635 -11.872  18.608  1.00  0.00    -0.149 C 
HETATM    3  C9  UNL     1      19.949 -12.146  18.186  1.00  0.00     0.104 C 
HETATM    4  C10 UNL     1      20.809 -12.253  19.501  1.00  0.00     0.164 C 
HETATM    5  N4  UNL     1      19.883 -12.217  20.670  1.00  0.00    -0.249 N 
HETATM    6  C11 UNL     1      20.244 -13.235  21.600  1.00  0.00     0.240 C 
HETATM    7  O3  UNL     1      21.216 -13.995  21.377  1.00  0.00    -0.272 OA
HETATM    8  N7  UNL     1      18.821 -11.489  21.070  1.00  0.00    -0.240 N 
ATOM      9  H7  UNL     1      19.007 -10.763  21.762  1.00  0.00     0.204 HD
HETATM   10  N8  UNL     1      17.536 -11.609  20.661  1.00  0.00    -0.099 NA
ENDROOT
BRANCH   1  11
HETATM   11  C6  UNL     1      16.283 -12.589  18.863  1.00  0.00     0.252 C 
HETATM   12  N3  UNL     1      15.036 -12.554  19.526  1.00  0.00    -0.347 N 
HETATM   13  C5  UNL     1      13.928 -13.451  19.298  1.00  0.00     0.129 C 
HETATM   14  C21 UNL     1      14.673 -11.599  20.550  1.00  0.00     0.174 C 
HETATM   15  C4  UNL     1      12.748 -12.824  20.034  1.00  0.00     0.070 C 
HETATM   16  C3  UNL     1      13.420 -12.157  21.201  1.00  0.00     0.220 C 
HETATM   17  O2  UNL     1      16.498 -13.463  17.987  1.00  0.00    -0.270 OA
BRANCH  16  18
HETATM   18  C2  UNL     1      12.591 -11.096  21.824  1.00  0.00     0.255 C 
HETATM   19  N1  UNL     1      12.248 -11.146  23.198  1.00  0.00    -0.363 N 
HETATM   20  C1  UNL     1      11.445 -10.106  23.770  1.00  0.00     0.149 C 
ATOM     21  H1  UNL     1      12.572 -11.920  23.778  1.00  0.00     0.161 HD
HETATM   22  O1  UNL     1      12.185 -10.139  21.121  1.00  0.00    -0.271 OA
ENDBRANCH  16  18
BRANCH  16  23
HETATM   23  N2  UNL     1      13.777 -13.153  22.177  1.00  0.00    -0.060 N 
ATOM     24  H23 UNL     1      14.757 -13.080  22.453  1.00  0.00     0.275 HD
ATOM     25  H22 UNL     1      13.349 -12.965  23.084  1.00  0.00     0.275 HD
ATOM     26  H21 UNL     1      13.547 -14.085  21.834  1.00  0.00     0.275 HD
ENDBRANCH  16  23
ENDBRANCH   1  11
BRANCH   6  27
HETATM   27  C12 UNL     1      19.466 -13.425  22.879  1.00  0.00     0.132 C 
BRANCH  27  28
HETATM   28  C13 UNL     1      20.403 -13.493  24.019  1.00  0.00     0.246 C 
BRANCH  28  29
HETATM   29  N5  UNL     1      20.431 -14.718  24.740  1.00  0.00    -0.067 N 
HETATM   30  C14 UNL     1      21.848 -14.996  25.040  1.00  0.00     0.272 C 
HETATM   31  C15 UNL     1      19.973 -15.858  23.973  1.00  0.00     0.265 C 
HETATM   32  C16 UNL     1      20.129 -17.093  24.838  1.00  0.00     0.264 C 
HETATM   33  N6  UNL     1      19.027 -17.062  25.796  1.00  0.00    -0.071 N 
HETATM   34  C17 UNL     1      17.890 -17.792  25.261  1.00  0.00     0.272 C 
HETATM   35  C18 UNL     1      19.413 -17.729  27.028  1.00  0.00     0.272 C 
HETATM   36  C19 UNL     1      18.587 -15.701  26.042  1.00  0.00     0.264 C 
HETATM   37  C20 UNL     1      19.742 -14.722  25.993  1.00  0.00     0.265 C 
ENDBRANCH  28  29
ENDBRANCH  27  28
ENDBRANCH   6  27
TORSDOF 6
ENDMDL
