MODEL 1
REMARK VINA RESULT: -9.136875771      0.000      0.000
REMARK  9 active torsions:
REMARK  status: ('A' for Active; 'I' for Inactive)
REMARK    1  A    between atoms: C2_2  and  N1_3 
REMARK    2  A    between atoms: C2_2  and  C10_18 
REMARK    3  A    between atoms: N1_3  and  C3_5 
REMARK    4  A    between atoms: C3_5  and  N2_7 
REMARK       I    between atoms: N3_10  and  C6_11 
REMARK    5  A    between atoms: C6_11  and  C7_13 
REMARK       I    between atoms: C10_18  and  N5_20 
REMARK    6  A    between atoms: C14_24  and  C15_25 
REMARK    7  A    between atoms: C15_25  and  N8_31 
REMARK    8  A    between atoms: N6_26  and  N7_28 
REMARK    9  A    between atoms: N8_31  and  C16_33 
ROOT
HETATM    1  C10 UNL     1      18.336 -12.747  19.379  1.00  0.00     0.242 C 
HETATM    2  O3  UNL     1      19.310 -11.994  19.146  1.00  0.00    -0.271 OA
HETATM    3  N5  UNL     1      18.501 -13.844  20.260  1.00  0.00    -0.350 N 
HETATM    4  C11 UNL     1      17.459 -14.766  20.629  1.00  0.00     0.126 C 
HETATM    5  C12 UNL     1      17.320 -14.750  22.153  1.00  0.00     0.021 C 
HETATM    6  C13 UNL     1      18.663 -15.341  22.637  1.00  0.00     0.015 C 
HETATM    7  C14 UNL     1      19.669 -14.235  22.341  1.00  0.00     0.072 C 
HETATM    8  C19 UNL     1      19.841 -14.098  20.832  1.00  0.00     0.138 C 
ENDROOT
BRANCH   1   9
HETATM    9  C2  UNL     1      17.062 -12.471  18.729  1.00  0.00     0.172 C 
HETATM   10  C1  UNL     1      17.257 -11.553  17.523  1.00  0.00     0.042 C 
BRANCH   9  11
HETATM   11  N1  UNL     1      16.165 -11.720  19.607  1.00  0.00    -0.354 N 
ATOM     12  H1  UNL     1      16.497 -10.890  20.097  1.00  0.00     0.162 HD
BRANCH  11  13
HETATM   13  C3  UNL     1      14.844 -12.156  19.765  1.00  0.00     0.170 C 
HETATM   14  S1  UNL     1      14.284 -13.363  18.818  1.00  0.00    -0.041 SA
BRANCH  13  15
HETATM   15  N2  UNL     1      13.914 -11.615  20.729  1.00  0.00    -0.355 N 
HETATM   16  C4  UNL     1      13.578 -12.387  21.911  1.00  0.00     0.145 C 
HETATM   17  C5  UNL     1      12.337 -11.870  22.610  1.00  0.00     0.146 C 
HETATM   18  N3  UNL     1      12.458 -10.427  22.795  1.00  0.00    -0.341 N 
HETATM   19  C6  UNL     1      11.992  -9.866  24.006  1.00  0.00     0.308 C 
HETATM   20  C8  UNL     1      13.042  -9.604  21.777  1.00  0.00     0.146 C 
HETATM   21  O1  UNL     1      11.462 -10.626  24.903  1.00  0.00    -0.263 OA
HETATM   22  C9  UNL     1      13.317 -10.346  20.509  1.00  0.00     0.145 C 
BRANCH  19  23
HETATM   23  C7  UNL     1      12.061  -8.451  24.346  1.00  0.00     0.322 C 
HETATM   24  N4  UNL     1      13.325  -7.791  24.183  1.00  0.00    -0.053 NA
HETATM   25  O2  UNL     1      11.066  -7.795  24.775  1.00  0.00    -0.266 OA
ENDBRANCH  19  23
ENDBRANCH  13  15
ENDBRANCH  11  13
ENDBRANCH   9  11
ENDBRANCH   1   9
BRANCH   7  26
HETATM   26  C15 UNL     1      20.923 -14.466  23.048  1.00  0.00     0.097 C 
HETATM   27  N6  UNL     1      21.667 -15.479  22.906  1.00  0.00    -0.295 N 
ATOM     28  H6  UNL     1      22.502 -15.461  23.493  1.00  0.00     0.187 HD
BRANCH  27  29
HETATM   29  N7  UNL     1      21.571 -16.585  22.123  1.00  0.00    -0.344 N 
ATOM     30  H72 UNL     1      20.960 -16.441  21.319  1.00  0.00     0.176 HD
ATOM     31  H71 UNL     1      21.988 -17.513  22.189  1.00  0.00     0.176 HD
ENDBRANCH  27  29
BRANCH  26  32
HETATM   32  N8  UNL     1      21.368 -13.469  23.952  1.00  0.00    -0.374 N 
ATOM     33  H8  UNL     1      22.278 -13.025  23.835  1.00  0.00     0.161 HD
BRANCH  32  34
HETATM   34  C16 UNL     1      20.502 -13.102  25.038  1.00  0.00     0.083 A 
HETATM   35  C17 UNL     1      21.153 -12.746  26.346  1.00  0.00     0.027 A 
HETATM   36  C18 UNL     1      20.443 -14.069  26.176  1.00  0.00     0.027 A 
ENDBRANCH  32  34
ENDBRANCH  26  32
ENDBRANCH   7  26
TORSDOF 9
ENDMDL
MODEL 2
REMARK VINA RESULT: -9.132400573      1.255      1.757
REMARK  9 active torsions:
REMARK  status: ('A' for Active; 'I' for Inactive)
REMARK    1  A    between atoms: C2_2  and  N1_3 
REMARK    2  A    between atoms: C2_2  and  C10_18 
REMARK    3  A    between atoms: N1_3  and  C3_5 
REMARK    4  A    between atoms: C3_5  and  N2_7 
REMARK       I    between atoms: N3_10  and  C6_11 
REMARK    5  A    between atoms: C6_11  and  C7_13 
REMARK       I    between atoms: C10_18  and  N5_20 
REMARK    6  A    between atoms: C14_24  and  C15_25 
REMARK    7  A    between atoms: C15_25  and  N8_31 
REMARK    8  A    between atoms: N6_26  and  N7_28 
REMARK    9  A    between atoms: N8_31  and  C16_33 
ROOT
HETATM    1  C10 UNL     1      17.271 -13.604  19.963  1.00  0.00     0.242 C 
HETATM    2  O3  UNL     1      16.772 -14.583  20.566  1.00  0.00    -0.271 OA
HETATM    3  N5  UNL     1      18.466 -13.021  20.453  1.00  0.00    -0.350 N 
HETATM    4  C11 UNL     1      19.152 -11.914  19.841  1.00  0.00     0.126 C 
HETATM    5  C12 UNL     1      20.584 -12.350  19.527  1.00  0.00     0.021 C 
HETATM    6  C13 UNL     1      21.202 -12.570  20.926  1.00  0.00     0.015 C 
HETATM    7  C14 UNL     1      20.524 -13.841  21.422  1.00  0.00     0.072 C 
HETATM    8  C19 UNL     1      19.052 -13.553  21.702  1.00  0.00     0.138 C 
ENDROOT
BRANCH   1   9
HETATM    9  C2  UNL     1      16.602 -13.095  18.774  1.00  0.00     0.172 C 
HETATM   10  C1  UNL     1      17.585 -12.343  17.878  1.00  0.00     0.042 C 
BRANCH   9  11
HETATM   11  N1  UNL     1      15.593 -12.092  19.115  1.00  0.00    -0.354 N 
ATOM     12  H1  UNL     1      15.810 -11.098  19.051  1.00  0.00     0.162 HD
BRANCH  11  13
HETATM   13  C3  UNL     1      14.325 -12.515  19.531  1.00  0.00     0.170 C 
HETATM   14  S1  UNL     1      13.668 -13.849  18.855  1.00  0.00    -0.041 SA
BRANCH  13  15
HETATM   15  N2  UNL     1      13.531 -11.853  20.540  1.00  0.00    -0.355 N 
HETATM   16  C4  UNL     1      13.168 -12.570  21.749  1.00  0.00     0.145 C 
HETATM   17  C5  UNL     1      12.049 -11.892  22.512  1.00  0.00     0.146 C 
HETATM   18  N3  UNL     1      12.368 -10.476  22.674  1.00  0.00    -0.341 N 
HETATM   19  C6  UNL     1      12.052  -9.855  23.903  1.00  0.00     0.308 C 
HETATM   20  C8  UNL     1      12.993  -9.741  21.615  1.00  0.00     0.146 C 
HETATM   21  O1  UNL     1      11.481 -10.535  24.838  1.00  0.00    -0.263 OA
HETATM   22  C9  UNL     1      13.093 -10.517  20.341  1.00  0.00     0.145 C 
BRANCH  19  23
HETATM   23  C7  UNL     1      12.325  -8.460  24.223  1.00  0.00     0.322 C 
HETATM   24  N4  UNL     1      11.236  -7.669  24.723  1.00  0.00    -0.053 NA
HETATM   25  O2  UNL     1      13.465  -7.929  24.077  1.00  0.00    -0.266 OA
ENDBRANCH  19  23
ENDBRANCH  13  15
ENDBRANCH  11  13
ENDBRANCH   9  11
ENDBRANCH   1   9
BRANCH   7  26
HETATM   26  C15 UNL     1      21.233 -14.398  22.567  1.00  0.00     0.097 C 
HETATM   27  N6  UNL     1      21.576 -15.609  22.698  1.00  0.00    -0.295 N 
ATOM     28  H6  UNL     1      22.060 -15.807  23.574  1.00  0.00     0.187 HD
BRANCH  27  29
HETATM   29  N7  UNL     1      21.424 -16.695  21.896  1.00  0.00    -0.344 N 
ATOM     30  H72 UNL     1      21.850 -16.566  20.978  1.00  0.00     0.176 HD
ATOM     31  H71 UNL     1      20.973 -17.599  22.041  1.00  0.00     0.176 HD
ENDBRANCH  27  29
BRANCH  26  32
HETATM   32  N8  UNL     1      21.596 -13.516  23.617  1.00  0.00    -0.374 N 
ATOM     33  H8  UNL     1      21.974 -12.591  23.415  1.00  0.00     0.161 HD
BRANCH  32  34
HETATM   34  C16 UNL     1      21.416 -13.961  24.971  1.00  0.00     0.083 A 
HETATM   35  C17 UNL     1      20.034 -13.856  25.551  1.00  0.00     0.027 A 
HETATM   36  C18 UNL     1      21.118 -12.891  25.971  1.00  0.00     0.027 A 
ENDBRANCH  32  34
ENDBRANCH  26  32
ENDBRANCH   7  26
TORSDOF 9
ENDMDL
MODEL 3
REMARK VINA RESULT: -9.119060141      3.340      5.312
REMARK  9 active torsions:
REMARK  status: ('A' for Active; 'I' for Inactive)
REMARK    1  A    between atoms: C2_2  and  N1_3 
REMARK    2  A    between atoms: C2_2  and  C10_18 
REMARK    3  A    between atoms: N1_3  and  C3_5 
REMARK    4  A    between atoms: C3_5  and  N2_7 
REMARK       I    between atoms: N3_10  and  C6_11 
REMARK    5  A    between atoms: C6_11  and  C7_13 
REMARK       I    between atoms: C10_18  and  N5_20 
REMARK    6  A    between atoms: C14_24  and  C15_25 
REMARK    7  A    between atoms: C15_25  and  N8_31 
REMARK    8  A    between atoms: N6_26  and  N7_28 
REMARK    9  A    between atoms: N8_31  and  C16_33 
ROOT
HETATM    1  C10 UNL     1      20.742 -15.053  22.477  1.00  0.00     0.242 C 
HETATM    2  O3  UNL     1      21.300 -15.832  21.669  1.00  0.00    -0.271 OA
HETATM    3  N5  UNL     1      21.255 -14.931  23.792  1.00  0.00    -0.350 N 
HETATM    4  C11 UNL     1      20.723 -14.056  24.804  1.00  0.00     0.126 C 
HETATM    5  C12 UNL     1      21.843 -13.125  25.272  1.00  0.00     0.021 C 
HETATM    6  C13 UNL     1      22.840 -14.087  25.958  1.00  0.00     0.015 C 
HETATM    7  C14 UNL     1      23.453 -14.857  24.796  1.00  0.00     0.072 C 
HETATM    8  C19 UNL     1      22.401 -15.778  24.186  1.00  0.00     0.138 C 
ENDROOT
BRANCH   1   9
HETATM    9  C2  UNL     1      19.578 -14.298  22.035  1.00  0.00     0.172 C 
HETATM   10  C1  UNL     1      18.288 -15.044  22.374  1.00  0.00     0.042 C 
BRANCH   9  11
HETATM   11  N1  UNL     1      19.543 -14.169  20.579  1.00  0.00    -0.354 N 
ATOM     12  H1  UNL     1      19.548 -14.999  19.987  1.00  0.00     0.162 HD
BRANCH  11  13
HETATM   13  C3  UNL     1      19.502 -12.892  20.008  1.00  0.00     0.170 C 
HETATM   14  S1  UNL     1      20.903 -12.126  19.665  1.00  0.00    -0.041 SA
BRANCH  13  15
HETATM   15  N2  UNL     1      18.288 -12.179  19.684  1.00  0.00    -0.355 N 
HETATM   16  C4  UNL     1      17.736 -12.277  18.345  1.00  0.00     0.145 C 
HETATM   17  C5  UNL     1      16.708 -11.202  18.060  1.00  0.00     0.146 C 
HETATM   18  N3  UNL     1      15.741 -11.163  19.154  1.00  0.00    -0.341 N 
HETATM   19  C6  UNL     1      14.379 -10.955  18.836  1.00  0.00     0.308 C 
HETATM   20  C8  UNL     1      16.164 -11.337  20.511  1.00  0.00     0.146 C 
HETATM   21  O1  UNL     1      14.025 -10.792  17.607  1.00  0.00    -0.263 OA
HETATM   22  C9  UNL     1      17.651 -11.372  20.663  1.00  0.00     0.145 C 
BRANCH  19  23
HETATM   23  C7  UNL     1      13.298 -10.910  19.810  1.00  0.00     0.322 C 
HETATM   24  N4  UNL     1      12.682 -12.155  20.176  1.00  0.00    -0.053 NA
HETATM   25  O2  UNL     1      12.887  -9.834  20.337  1.00  0.00    -0.266 OA
ENDBRANCH  19  23
ENDBRANCH  13  15
ENDBRANCH  11  13
ENDBRANCH   9  11
ENDBRANCH   1   9
BRANCH   7  26
HETATM   26  C15 UNL     1      24.663 -15.557  25.213  1.00  0.00     0.097 C 
HETATM   27  N6  UNL     1      25.679 -15.759  24.488  1.00  0.00    -0.295 N 
ATOM     28  H6  UNL     1      26.424 -16.272  24.958  1.00  0.00     0.187 HD
BRANCH  27  29
HETATM   29  N7  UNL     1      25.968 -15.424  23.203  1.00  0.00    -0.344 N 
ATOM     30  H72 UNL     1      25.260 -15.749  22.545  1.00  0.00     0.176 HD
ATOM     31  H71 UNL     1      26.748 -14.916  22.784  1.00  0.00     0.176 HD
ENDBRANCH  27  29
BRANCH  26  32
HETATM   32  N8  UNL     1      24.727 -16.032  26.547  1.00  0.00    -0.374 N 
ATOM     33  H8  UNL     1      24.695 -15.385  27.335  1.00  0.00     0.161 HD
BRANCH  32  34
HETATM   34  C16 UNL     1      24.840 -17.448  26.760  1.00  0.00     0.083 A 
HETATM   35  C17 UNL     1      23.566 -18.213  26.983  1.00  0.00     0.027 A 
HETATM   36  C18 UNL     1      24.502 -17.927  28.134  1.00  0.00     0.027 A 
ENDBRANCH  32  34
ENDBRANCH  26  32
ENDBRANCH   7  26
TORSDOF 9
ENDMDL
MODEL 4
REMARK VINA RESULT: -8.963399257      3.411      5.464
REMARK  9 active torsions:
REMARK  status: ('A' for Active; 'I' for Inactive)
REMARK    1  A    between atoms: C2_2  and  N1_3 
REMARK    2  A    between atoms: C2_2  and  C10_18 
REMARK    3  A    between atoms: N1_3  and  C3_5 
REMARK    4  A    between atoms: C3_5  and  N2_7 
REMARK       I    between atoms: N3_10  and  C6_11 
REMARK    5  A    between atoms: C6_11  and  C7_13 
REMARK       I    between atoms: C10_18  and  N5_20 
REMARK    6  A    between atoms: C14_24  and  C15_25 
REMARK    7  A    between atoms: C15_25  and  N8_31 
REMARK    8  A    between atoms: N6_26  and  N7_28 
REMARK    9  A    between atoms: N8_31  and  C16_33 
ROOT
HETATM    1  C10 UNL     1      15.394 -11.693  21.398  1.00  0.00     0.242 C 
HETATM    2  O3  UNL     1      14.791 -12.462  22.183  1.00  0.00    -0.271 OA
HETATM    3  N5  UNL     1      16.767 -11.912  21.128  1.00  0.00    -0.350 N 
HETATM    4  C11 UNL     1      17.565 -11.120  20.229  1.00  0.00     0.126 C 
HETATM    5  C12 UNL     1      18.156 -12.049  19.166  1.00  0.00     0.021 C 
HETATM    6  C13 UNL     1      19.115 -12.949  19.976  1.00  0.00     0.015 C 
HETATM    7  C14 UNL     1      18.177 -13.845  20.775  1.00  0.00     0.072 C 
HETATM    8  C19 UNL     1      17.460 -13.012  21.833  1.00  0.00     0.138 C 
ENDROOT
BRANCH   1   9
HETATM    9  C2  UNL     1      14.659 -10.593  20.789  1.00  0.00     0.172 C 
HETATM   10  C1  UNL     1      13.778  -9.892  21.821  1.00  0.00     0.042 C 
BRANCH   9  11
HETATM   11  N1  UNL     1      13.714 -11.072  19.781  1.00  0.00    -0.354 N 
ATOM     12  H1  UNL     1      12.746 -10.752  19.787  1.00  0.00     0.162 HD
BRANCH  11  13
HETATM   13  C3  UNL     1      14.155 -11.976  18.807  1.00  0.00     0.170 C 
HETATM   14  S1  UNL     1      14.841 -11.404  17.440  1.00  0.00    -0.041 SA
BRANCH  13  15
HETATM   15  N2  UNL     1      14.056 -13.413  18.920  1.00  0.00    -0.355 N 
HETATM   16  C4  UNL     1      15.185 -14.241  18.538  1.00  0.00     0.145 C 
HETATM   17  C5  UNL     1      14.804 -15.695  18.355  1.00  0.00     0.146 C 
HETATM   18  N3  UNL     1      14.042 -16.141  19.518  1.00  0.00    -0.341 N 
HETATM   19  C6  UNL     1      14.278 -17.444  20.014  1.00  0.00     0.308 C 
HETATM   20  C8  UNL     1      13.088 -15.275  20.144  1.00  0.00     0.146 C 
HETATM   21  O1  UNL     1      15.136 -18.207  19.428  1.00  0.00    -0.263 OA
HETATM   22  C9  UNL     1      12.853 -14.011  19.382  1.00  0.00     0.145 C 
BRANCH  19  23
HETATM   23  C7  UNL     1      13.615 -18.023  21.174  1.00  0.00     0.322 C 
HETATM   24  N4  UNL     1      14.262 -17.881  22.448  1.00  0.00    -0.053 NA
HETATM   25  O2  UNL     1      12.509 -18.638  21.102  1.00  0.00    -0.266 OA
ENDBRANCH  19  23
ENDBRANCH  13  15
ENDBRANCH  11  13
ENDBRANCH   9  11
ENDBRANCH   1   9
BRANCH   7  26
HETATM   26  C15 UNL     1      18.891 -14.990  21.327  1.00  0.00     0.097 C 
HETATM   27  N6  UNL     1      18.371 -16.103  21.624  1.00  0.00    -0.295 N 
ATOM     28  H6  UNL     1      19.034 -16.780  22.003  1.00  0.00     0.187 HD
BRANCH  27  29
HETATM   29  N7  UNL     1      17.099 -16.573  21.536  1.00  0.00    -0.344 N 
ATOM     30  H72 UNL     1      16.747 -16.916  22.429  1.00  0.00     0.176 HD
ATOM     31  H71 UNL     1      16.445 -16.643  20.757  1.00  0.00     0.176 HD
ENDBRANCH  27  29
BRANCH  26  32
HETATM   32  N8  UNL     1      20.290 -14.866  21.527  1.00  0.00    -0.374 N 
ATOM     33  H8  UNL     1      20.927 -14.792  20.735  1.00  0.00     0.161 HD
BRANCH  32  34
HETATM   34  C16 UNL     1      20.784 -14.848  22.876  1.00  0.00     0.083 A 
HETATM   35  C17 UNL     1      20.403 -13.672  23.731  1.00  0.00     0.027 A 
HETATM   36  C18 UNL     1      21.804 -13.798  23.179  1.00  0.00     0.027 A 
ENDBRANCH  32  34
ENDBRANCH  26  32
ENDBRANCH   7  26
TORSDOF 9
ENDMDL
MODEL 5
REMARK VINA RESULT: -8.940155655      1.401      1.664
REMARK  9 active torsions:
REMARK  status: ('A' for Active; 'I' for Inactive)
REMARK    1  A    between atoms: C2_2  and  N1_3 
REMARK    2  A    between atoms: C2_2  and  C10_18 
REMARK    3  A    between atoms: N1_3  and  C3_5 
REMARK    4  A    between atoms: C3_5  and  N2_7 
REMARK       I    between atoms: N3_10  and  C6_11 
REMARK    5  A    between atoms: C6_11  and  C7_13 
REMARK       I    between atoms: C10_18  and  N5_20 
REMARK    6  A    between atoms: C14_24  and  C15_25 
REMARK    7  A    between atoms: C15_25  and  N8_31 
REMARK    8  A    between atoms: N6_26  and  N7_28 
REMARK    9  A    between atoms: N8_31  and  C16_33 
ROOT
HETATM    1  C10 UNL     1      17.748 -12.303  19.673  1.00  0.00     0.242 C 
HETATM    2  O3  UNL     1      18.281 -11.212  19.983  1.00  0.00    -0.271 OA
HETATM    3  N5  UNL     1      18.066 -13.467  20.415  1.00  0.00    -0.350 N 
HETATM    4  C11 UNL     1      17.505 -14.772  20.177  1.00  0.00     0.126 C 
HETATM    5  C12 UNL     1      16.838 -15.250  21.469  1.00  0.00     0.021 C 
HETATM    6  C13 UNL     1      18.028 -15.420  22.440  1.00  0.00     0.015 C 
HETATM    7  C14 UNL     1      18.450 -13.988  22.744  1.00  0.00     0.072 C 
HETATM    8  C19 UNL     1      19.069 -13.366  21.497  1.00  0.00     0.138 C 
ENDROOT
BRANCH   1   9
HETATM    9  C2  UNL     1      16.817 -12.337  18.554  1.00  0.00     0.172 C 
HETATM   10  C1  UNL     1      17.425 -11.668  17.322  1.00  0.00     0.042 C 
BRANCH   9  11
HETATM   11  N1  UNL     1      15.617 -11.548  18.831  1.00  0.00    -0.354 N 
ATOM     12  H1  UNL     1      15.592 -10.552  18.615  1.00  0.00     0.162 HD
BRANCH  11  13
HETATM   13  C3  UNL     1      14.502 -12.179  19.395  1.00  0.00     0.170 C 
HETATM   14  S1  UNL     1      14.081 -13.669  18.876  1.00  0.00    -0.041 SA
BRANCH  13  15
HETATM   15  N2  UNL     1      13.675 -11.606  20.432  1.00  0.00    -0.355 N 
HETATM   16  C4  UNL     1      13.356 -12.392  21.610  1.00  0.00     0.145 C 
HETATM   17  C5  UNL     1      12.202 -11.811  22.401  1.00  0.00     0.146 C 
HETATM   18  N3  UNL     1      12.441 -10.388  22.621  1.00  0.00    -0.341 N 
HETATM   19  C6  UNL     1      12.093  -9.837  23.876  1.00  0.00     0.308 C 
HETATM   20  C8  UNL     1      13.021  -9.575  21.594  1.00  0.00     0.146 C 
HETATM   21  O1  UNL     1      11.564 -10.587  24.782  1.00  0.00    -0.263 OA
HETATM   22  C9  UNL     1      13.161 -10.290  20.289  1.00  0.00     0.145 C 
BRANCH  19  23
HETATM   23  C7  UNL     1      12.287  -8.444  24.253  1.00  0.00     0.322 C 
HETATM   24  N4  UNL     1      11.145  -7.724  24.743  1.00  0.00    -0.053 NA
HETATM   25  O2  UNL     1      13.405  -7.854  24.166  1.00  0.00    -0.266 OA
ENDBRANCH  19  23
ENDBRANCH  13  15
ENDBRANCH  11  13
ENDBRANCH   9  11
ENDBRANCH   1   9
BRANCH   7  26
HETATM   26  C15 UNL     1      19.324 -13.937  23.910  1.00  0.00     0.097 C 
HETATM   27  N6  UNL     1      19.015 -14.324  25.074  1.00  0.00    -0.295 N 
ATOM     28  H6  UNL     1      19.761 -14.202  25.760  1.00  0.00     0.187 HD
BRANCH  27  29
HETATM   29  N7  UNL     1      17.882 -14.869  25.588  1.00  0.00    -0.344 N 
ATOM     30  H72 UNL     1      17.958 -15.059  26.587  1.00  0.00     0.176 HD
ATOM     31  H71 UNL     1      16.987 -15.118  25.167  1.00  0.00     0.176 HD
ENDBRANCH  27  29
BRANCH  26  32
HETATM   32  N8  UNL     1      20.640 -13.440  23.732  1.00  0.00    -0.374 N 
ATOM     33  H8  UNL     1      20.811 -12.601  23.179  1.00  0.00     0.161 HD
BRANCH  32  34
HETATM   34  C16 UNL     1      21.724 -14.150  24.351  1.00  0.00     0.083 A 
HETATM   35  C17 UNL     1      22.587 -13.383  25.313  1.00  0.00     0.027 A 
HETATM   36  C18 UNL     1      23.096 -13.729  23.934  1.00  0.00     0.027 A 
ENDBRANCH  32  34
ENDBRANCH  26  32
ENDBRANCH   7  26
TORSDOF 9
ENDMDL
