MODEL 1
REMARK VINA RESULT: -7.715853993      0.000      0.000
REMARK  7 active torsions:
REMARK  status: ('A' for Active; 'I' for Inactive)
REMARK    1  A    between atoms: N1_1  and  C1_4 
REMARK    2  A    between atoms: C2_7  and  C3_8 
REMARK    3  A    between atoms: C3_8  and  C4_9 
REMARK    4  A    between atoms: C4_9  and  N3_10 
REMARK    5  A    between atoms: N3_10  and  C5_12 
REMARK    6  A    between atoms: N6_19  and  C7_20 
REMARK    7  A    between atoms: C7_20  and  C8_21 
ROOT
HETATM    1  C4  UNL     1     -26.625  23.145 152.987  1.00  0.00     0.085 C 
ENDROOT
BRANCH   1   2
HETATM    2  C3  UNL     1     -25.228  23.176 153.588  1.00  0.00     0.102 C 
BRANCH   2   3
HETATM    3  C2  UNL     1     -24.337  22.439 152.657  1.00  0.00     0.034 A 
HETATM    4  N2  UNL     1     -24.631  21.237 152.139  1.00  0.00    -0.195 N 
HETATM    5  C1  UNL     1     -23.800  20.591 151.294  1.00  0.00     0.677 A 
ATOM      6  H2  UNL     1     -25.514  20.794 152.394  1.00  0.00     0.184 HD
HETATM    7  N9  UNL     1     -22.630  21.153 150.946  1.00  0.00    -0.179 N 
HETATM    8  C10 UNL     1     -22.264  22.361 151.426  1.00  0.00     0.133 A 
ATOM      9  H9  UNL     1     -22.006  20.659 150.307  1.00  0.00     0.185 HD
HETATM   10  C9  UNL     1     -23.139  23.014 152.300  1.00  0.00     0.071 A 
HETATM   11  N8  UNL     1     -21.038  22.980 151.078  1.00  0.00    -0.082 NA
BRANCH   5  12
HETATM   12  N1  UNL     1     -24.091  19.429 150.797  1.00  0.00    -0.234 N 
ATOM     13  H12 UNL     1     -24.927  18.956 151.141  1.00  0.00     0.174 HD
ATOM     14  H11 UNL     1     -23.513  18.986 150.083  1.00  0.00     0.174 HD
ENDBRANCH   5  12
ENDBRANCH   2   3
ENDBRANCH   1   2
BRANCH   1  15
HETATM   15  N3  UNL     1     -27.644  22.878 153.880  1.00  0.00    -0.203 N 
ATOM     16  H3  UNL     1     -28.451  22.487 153.392  1.00  0.00     0.183 HD
BRANCH  15  17
HETATM   17  C5  UNL     1     -27.878  22.970 155.104  1.00  0.00     0.703 A 
HETATM   18  N4  UNL     1     -28.457  24.089 155.659  1.00  0.00    -0.128 N 
HETATM   19  N5  UNL     1     -28.591  23.935 156.953  1.00  0.00    -0.236 N 
ATOM     20  H4  UNL     1     -28.742  24.918 155.139  1.00  0.00     0.205 HD
HETATM   21  C6  UNL     1     -28.119  22.745 157.298  1.00  0.00     0.356 A 
ATOM     22  H5  UNL     1     -28.992  24.620 157.593  1.00  0.00     0.192 HD
HETATM   23  O1  UNL     1     -28.090  22.268 158.464  1.00  0.00    -0.244 OA
HETATM   24  N6  UNL     1     -27.678  22.148 156.144  1.00  0.00    -0.122 N 
BRANCH  24  25
HETATM   25  C7  UNL     1     -27.107  20.837 156.166  1.00  0.00     0.252 C 
BRANCH  25  26
HETATM   26  C8  UNL     1     -27.313  20.086 154.894  1.00  0.00     0.250 C 
HETATM   27  N7  UNL     1     -28.630  19.650 154.591  1.00  0.00    -0.061 NA
HETATM   28  O2  UNL     1     -26.406  19.820 154.086  1.00  0.00    -0.275 OA
ENDBRANCH  25  26
ENDBRANCH  24  25
ENDBRANCH  15  17
ENDBRANCH   1  15
TORSDOF 7
ENDMDL
MODEL 2
REMARK VINA RESULT: -7.609168603      3.792      6.437
REMARK  7 active torsions:
REMARK  status: ('A' for Active; 'I' for Inactive)
REMARK    1  A    between atoms: N1_1  and  C1_4 
REMARK    2  A    between atoms: C2_7  and  C3_8 
REMARK    3  A    between atoms: C3_8  and  C4_9 
REMARK    4  A    between atoms: C4_9  and  N3_10 
REMARK    5  A    between atoms: N3_10  and  C5_12 
REMARK    6  A    between atoms: N6_19  and  C7_20 
REMARK    7  A    between atoms: C7_20  and  C8_21 
ROOT
HETATM    1  C4  UNL     1     -25.510  23.964 157.284  1.00  0.00     0.085 C 
ENDROOT
BRANCH   1   2
HETATM    2  C3  UNL     1     -26.723  23.079 157.525  1.00  0.00     0.102 C 
BRANCH   2   3
HETATM    3  C2  UNL     1     -27.125  22.521 156.209  1.00  0.00     0.034 A 
HETATM    4  N2  UNL     1     -26.989  23.180 155.048  1.00  0.00    -0.195 N 
HETATM    5  C1  UNL     1     -27.364  22.647 153.866  1.00  0.00     0.677 A 
ATOM      6  H2  UNL     1     -26.589  24.119 155.059  1.00  0.00     0.184 HD
HETATM    7  N9  UNL     1     -27.895  21.413 153.827  1.00  0.00    -0.179 N 
HETATM    8  C10 UNL     1     -28.064  20.689 154.953  1.00  0.00     0.133 A 
ATOM      9  H9  UNL     1     -28.177  21.017 152.930  1.00  0.00     0.185 HD
HETATM   10  C9  UNL     1     -27.669  21.258 156.168  1.00  0.00     0.071 A 
HETATM   11  N8  UNL     1     -28.621  19.386 154.945  1.00  0.00    -0.082 NA
BRANCH   5  12
HETATM   12  N1  UNL     1     -27.229  23.290 152.748  1.00  0.00    -0.234 N 
ATOM     13  H12 UNL     1     -27.263  24.310 152.774  1.00  0.00     0.174 HD
ATOM     14  H11 UNL     1     -27.092  22.808 151.860  1.00  0.00     0.174 HD
ENDBRANCH   5  12
ENDBRANCH   2   3
ENDBRANCH   1   2
BRANCH   1  15
HETATM   15  N3  UNL     1     -24.308  23.296 157.165  1.00  0.00    -0.203 N 
ATOM     16  H3  UNL     1     -24.025  22.911 158.066  1.00  0.00     0.183 HD
BRANCH  15  17
HETATM   17  C5  UNL     1     -23.461  23.021 156.288  1.00  0.00     0.703 A 
HETATM   18  N4  UNL     1     -23.727  22.142 155.261  1.00  0.00    -0.128 N 
HETATM   19  N5  UNL     1     -22.679  22.025 154.483  1.00  0.00    -0.236 N 
ATOM     20  H4  UNL     1     -24.611  21.653 155.126  1.00  0.00     0.205 HD
HETATM   21  C6  UNL     1     -21.707  22.797 154.948  1.00  0.00     0.356 A 
ATOM     22  H5  UNL     1     -22.621  21.435 153.653  1.00  0.00     0.192 HD
HETATM   23  O1  UNL     1     -20.559  22.928 154.445  1.00  0.00    -0.244 OA
HETATM   24  N6  UNL     1     -22.198  23.415 156.070  1.00  0.00    -0.122 N 
BRANCH  24  25
HETATM   25  C7  UNL     1     -21.393  24.329 156.819  1.00  0.00     0.252 C 
BRANCH  25  26
HETATM   26  C8  UNL     1     -22.002  25.684 156.940  1.00  0.00     0.250 C 
HETATM   27  N7  UNL     1     -22.574  26.042 158.190  1.00  0.00    -0.061 NA
HETATM   28  O2  UNL     1     -22.038  26.517 156.018  1.00  0.00    -0.275 OA
ENDBRANCH  25  26
ENDBRANCH  24  25
ENDBRANCH  15  17
ENDBRANCH   1  15
TORSDOF 7
ENDMDL
MODEL 3
REMARK VINA RESULT: -7.397079029      2.595      6.604
REMARK  7 active torsions:
REMARK  status: ('A' for Active; 'I' for Inactive)
REMARK    1  A    between atoms: N1_1  and  C1_4 
REMARK    2  A    between atoms: C2_7  and  C3_8 
REMARK    3  A    between atoms: C3_8  and  C4_9 
REMARK    4  A    between atoms: C4_9  and  N3_10 
REMARK    5  A    between atoms: N3_10  and  C5_12 
REMARK    6  A    between atoms: N6_19  and  C7_20 
REMARK    7  A    between atoms: C7_20  and  C8_21 
ROOT
HETATM    1  C4  UNL     1     -26.002  23.363 152.817  1.00  0.00     0.085 C 
ENDROOT
BRANCH   1   2
HETATM    2  C3  UNL     1     -27.126  22.638 153.542  1.00  0.00     0.102 C 
BRANCH   2   3
HETATM    3  C2  UNL     1     -26.788  22.643 154.988  1.00  0.00     0.034 A 
HETATM    4  N2  UNL     1     -25.629  23.106 155.480  1.00  0.00    -0.195 N 
HETATM    5  C1  UNL     1     -25.350  23.098 156.801  1.00  0.00     0.677 A 
ATOM      6  H2  UNL     1     -24.934  23.478 154.833  1.00  0.00     0.184 HD
HETATM    7  N9  UNL     1     -26.251  22.612 157.672  1.00  0.00    -0.179 N 
HETATM    8  C10 UNL     1     -27.439  22.127 157.252  1.00  0.00     0.133 A 
ATOM      9  H9  UNL     1     -26.033  22.608 158.668  1.00  0.00     0.185 HD
HETATM   10  C9  UNL     1     -27.709  22.144 155.880  1.00  0.00     0.071 A 
HETATM   11  N8  UNL     1     -28.408  21.608 158.145  1.00  0.00    -0.082 NA
BRANCH   5  12
HETATM   12  N1  UNL     1     -24.228  23.548 157.269  1.00  0.00    -0.234 N 
ATOM     13  H12 UNL     1     -24.239  24.437 157.771  1.00  0.00     0.174 HD
ATOM     14  H11 UNL     1     -23.350  23.042 157.149  1.00  0.00     0.174 HD
ENDBRANCH   5  12
ENDBRANCH   2   3
ENDBRANCH   1   2
BRANCH   1  15
HETATM   15  N3  UNL     1     -25.307  22.603 151.898  1.00  0.00    -0.203 N 
ATOM     16  H3  UNL     1     -25.851  22.496 151.042  1.00  0.00     0.183 HD
BRANCH  15  17
HETATM   17  C5  UNL     1     -24.214  22.006 151.798  1.00  0.00     0.703 A 
HETATM   18  N4  UNL     1     -24.120  20.723 151.303  1.00  0.00    -0.128 N 
HETATM   19  N5  UNL     1     -22.871  20.328 151.305  1.00  0.00    -0.236 N 
ATOM     20  H4  UNL     1     -24.909  20.163 150.982  1.00  0.00     0.205 HD
HETATM   21  C6  UNL     1     -22.110  21.302 151.787  1.00  0.00     0.356 A 
ATOM     22  H5  UNL     1     -22.538  19.418 150.987  1.00  0.00     0.192 HD
HETATM   23  O1  UNL     1     -20.858  21.263 151.929  1.00  0.00    -0.244 OA
HETATM   24  N6  UNL     1     -22.950  22.343 152.091  1.00  0.00    -0.122 N 
BRANCH  24  25
HETATM   25  C7  UNL     1     -22.441  23.564 152.634  1.00  0.00     0.252 C 
BRANCH  25  26
HETATM   26  C8  UNL     1     -22.644  23.680 154.107  1.00  0.00     0.250 C 
HETATM   27  N7  UNL     1     -23.208  24.886 154.603  1.00  0.00    -0.061 NA
HETATM   28  O2  UNL     1     -22.353  22.789 154.924  1.00  0.00    -0.275 OA
ENDBRANCH  25  26
ENDBRANCH  24  25
ENDBRANCH  15  17
ENDBRANCH   1  15
TORSDOF 7
ENDMDL
MODEL 4
REMARK VINA RESULT: -7.360306399      4.001      6.276
REMARK  7 active torsions:
REMARK  status: ('A' for Active; 'I' for Inactive)
REMARK    1  A    between atoms: N1_1  and  C1_4 
REMARK    2  A    between atoms: C2_7  and  C3_8 
REMARK    3  A    between atoms: C3_8  and  C4_9 
REMARK    4  A    between atoms: C4_9  and  N3_10 
REMARK    5  A    between atoms: N3_10  and  C5_12 
REMARK    6  A    between atoms: N6_19  and  C7_20 
REMARK    7  A    between atoms: C7_20  and  C8_21 
ROOT
HETATM    1  C4  UNL     1     -26.067  23.998 157.507  1.00  0.00     0.085 C 
ENDROOT
BRANCH   1   2
HETATM    2  C3  UNL     1     -26.755  22.693 157.877  1.00  0.00     0.102 C 
BRANCH   2   3
HETATM    3  C2  UNL     1     -26.961  21.936 156.616  1.00  0.00     0.034 A 
HETATM    4  N2  UNL     1     -26.488  20.699 156.404  1.00  0.00    -0.195 N 
HETATM    5  C1  UNL     1     -26.692  20.035 155.246  1.00  0.00     0.677 A 
ATOM      6  H2  UNL     1     -25.955  20.242 157.144  1.00  0.00     0.184 HD
HETATM    7  N9  UNL     1     -27.390  20.616 154.256  1.00  0.00    -0.179 N 
HETATM    8  C10 UNL     1     -27.897  21.860 154.395  1.00  0.00     0.133 A 
ATOM      9  H9  UNL     1     -27.539  20.109 153.383  1.00  0.00     0.185 HD
HETATM   10  C9  UNL     1     -27.675  22.531 155.601  1.00  0.00     0.071 A 
HETATM   11  N8  UNL     1     -28.636  22.500 153.369  1.00  0.00    -0.082 NA
BRANCH   5  12
HETATM   12  N1  UNL     1     -26.232  18.839 155.049  1.00  0.00    -0.234 N 
ATOM     13  H12 UNL     1     -26.733  18.233 154.399  1.00  0.00     0.174 HD
ATOM     14  H11 UNL     1     -25.394  18.497 155.521  1.00  0.00     0.174 HD
ENDBRANCH   5  12
ENDBRANCH   2   3
ENDBRANCH   1   2
BRANCH   1  15
HETATM   15  N3  UNL     1     -24.730  23.887 157.183  1.00  0.00    -0.203 N 
ATOM     16  H3  UNL     1     -24.181  23.653 158.012  1.00  0.00     0.183 HD
BRANCH  15  17
HETATM   17  C5  UNL     1     -23.987  23.987 156.183  1.00  0.00     0.703 A 
HETATM   18  N4  UNL     1     -24.484  24.013 154.899  1.00  0.00    -0.128 N 
HETATM   19  N5  UNL     1     -23.505  24.119 154.036  1.00  0.00    -0.236 N 
ATOM     20  H4  UNL     1     -25.473  23.957 154.655  1.00  0.00     0.205 HD
HETATM   21  C6  UNL     1     -22.354  24.167 154.693  1.00  0.00     0.356 A 
ATOM     22  H5  UNL     1     -23.610  24.160 153.022  1.00  0.00     0.192 HD
HETATM   23  O1  UNL     1     -21.209  24.269 154.176  1.00  0.00    -0.244 OA
HETATM   24  N6  UNL     1     -22.659  24.085 156.028  1.00  0.00    -0.122 N 
BRANCH  24  25
HETATM   25  C7  UNL     1     -21.630  24.112 157.021  1.00  0.00     0.252 C 
BRANCH  25  26
HETATM   26  C8  UNL     1     -21.390  25.473 157.580  1.00  0.00     0.250 C 
HETATM   27  N7  UNL     1     -22.498  26.160 158.145  1.00  0.00    -0.061 NA
HETATM   28  O2  UNL     1     -20.284  26.041 157.582  1.00  0.00    -0.275 OA
ENDBRANCH  25  26
ENDBRANCH  24  25
ENDBRANCH  15  17
ENDBRANCH   1  15
TORSDOF 7
ENDMDL
MODEL 5
REMARK VINA RESULT: -7.336509534      2.478      6.173
REMARK  7 active torsions:
REMARK  status: ('A' for Active; 'I' for Inactive)
REMARK    1  A    between atoms: N1_1  and  C1_4 
REMARK    2  A    between atoms: C2_7  and  C3_8 
REMARK    3  A    between atoms: C3_8  and  C4_9 
REMARK    4  A    between atoms: C4_9  and  N3_10 
REMARK    5  A    between atoms: N3_10  and  C5_12 
REMARK    6  A    between atoms: N6_19  and  C7_20 
REMARK    7  A    between atoms: C7_20  and  C8_21 
ROOT
HETATM    1  C4  UNL     1     -26.650  23.442 152.680  1.00  0.00     0.085 C 
ENDROOT
BRANCH   1   2
HETATM    2  C3  UNL     1     -27.911  22.681 153.061  1.00  0.00     0.102 C 
BRANCH   2   3
HETATM    3  C2  UNL     1     -27.720  22.186 154.448  1.00  0.00     0.034 A 
HETATM    4  N2  UNL     1     -28.290  22.748 155.525  1.00  0.00    -0.195 N 
HETATM    5  C1  UNL     1     -28.097  22.275 156.774  1.00  0.00     0.677 A 
ATOM      6  H2  UNL     1     -28.891  23.562 155.394  1.00  0.00     0.184 HD
HETATM    7  N9  UNL     1     -27.308  21.205 156.971  1.00  0.00    -0.179 N 
HETATM    8  C10 UNL     1     -26.700  20.586 155.937  1.00  0.00     0.133 A 
ATOM      9  H9  UNL     1     -27.167  20.854 157.918  1.00  0.00     0.185 HD
HETATM   10  C9  UNL     1     -26.912  21.091 154.650  1.00  0.00     0.071 A 
HETATM   11  N8  UNL     1     -25.863  19.457 156.111  1.00  0.00    -0.082 NA
BRANCH   5  12
HETATM   12  N1  UNL     1     -28.652  22.823 157.810  1.00  0.00    -0.234 N 
ATOM     13  H12 UNL     1     -28.809  23.832 157.794  1.00  0.00     0.174 HD
ATOM     14  H11 UNL     1     -28.933  22.278 158.626  1.00  0.00     0.174 HD
ENDBRANCH   5  12
ENDBRANCH   2   3
ENDBRANCH   1   2
BRANCH   1  15
HETATM   15  N3  UNL     1     -25.630  22.669 152.162  1.00  0.00    -0.203 N 
ATOM     16  H3  UNL     1     -26.010  21.840 151.705  1.00  0.00     0.183 HD
BRANCH  15  17
HETATM   17  C5  UNL     1     -24.383  22.678 152.083  1.00  0.00     0.703 A 
HETATM   18  N4  UNL     1     -23.724  22.741 150.875  1.00  0.00    -0.128 N 
HETATM   19  N5  UNL     1     -22.428  22.733 151.066  1.00  0.00    -0.236 N 
ATOM     20  H4  UNL     1     -24.179  22.787 149.964  1.00  0.00     0.205 HD
HETATM   21  C6  UNL     1     -22.183  22.666 152.368  1.00  0.00     0.356 A 
ATOM     22  H5  UNL     1     -21.721  22.772 150.332  1.00  0.00     0.192 HD
HETATM   23  O1  UNL     1     -21.044  22.640 152.907  1.00  0.00    -0.244 OA
HETATM   24  N6  UNL     1     -23.402  22.633 152.996  1.00  0.00    -0.122 N 
BRANCH  24  25
HETATM   25  C7  UNL     1     -23.493  22.562 154.421  1.00  0.00     0.252 C 
BRANCH  25  26
HETATM   26  C8  UNL     1     -23.913  23.850 155.047  1.00  0.00     0.250 C 
HETATM   27  N7  UNL     1     -24.940  23.803 156.027  1.00  0.00    -0.061 NA
HETATM   28  O2  UNL     1     -23.421  24.955 154.764  1.00  0.00    -0.275 OA
ENDBRANCH  25  26
ENDBRANCH  24  25
ENDBRANCH  15  17
ENDBRANCH   1  15
TORSDOF 7
ENDMDL
