MODEL 1
REMARK VINA RESULT: -7.154108272      0.000      0.000
REMARK  12 active torsions:
REMARK  status: ('A' for Active; 'I' for Inactive)
REMARK    1  A    between atoms: S1_2  and  C3_4 
REMARK    2  A    between atoms: C3_4  and  C4_5 
REMARK    3  A    between atoms: C4_5  and  N1_6 
REMARK       I    between atoms: N1_6  and  C5_8 
REMARK    4  A    between atoms: C5_8  and  C6_10 
REMARK    5  A    between atoms: N4_21  and  C11_22 
REMARK    6  A    between atoms: C11_22  and  C12_23 
REMARK    7  A    between atoms: C12_23  and  C13_24 
REMARK    8  A    between atoms: C13_24  and  C14_25 
REMARK    9  A    between atoms: C14_25  and  N5_26 
REMARK   10  A    between atoms: N5_26  and  C15_29 
REMARK   11  A    between atoms: C15_29  and  C16_30 
REMARK   12  A    between atoms: C16_30  and  C17_31 
ROOT
HETATM    1  C4  UNL     1      30.369   9.347  29.536  1.00  0.00     0.123 C 
HETATM    2  C9  UNL     1      31.236   9.977  30.662  1.00  0.00     0.061 C 
HETATM    3  C10 UNL     1      30.290  10.813  31.487  1.00  0.00     0.129 C 
HETATM    4  N4  UNL     1      28.956  10.442  31.083  1.00  0.00    -0.350 N 
HETATM    5  C18 UNL     1      29.067   9.293  30.240  1.00  0.00     0.249 C 
HETATM    6  O3  UNL     1      28.176   8.423  30.160  1.00  0.00    -0.270 OA
ENDROOT
BRANCH   1   7
HETATM    7  C3  UNL     1      30.385  10.275  28.352  1.00  0.00     0.103 C 
BRANCH   7   8
HETATM    8  S1  UNL     1      31.968  10.859  27.990  1.00  0.00    -0.225 SA
HETATM    9  C1  UNL     1      32.376  12.487  28.388  1.00  0.00     0.078 C 
HETATM   10  C2  UNL     1      32.716  10.225  26.549  1.00  0.00     0.078 C 
ENDBRANCH   7   8
ENDBRANCH   1   7
BRANCH   1  11
HETATM   11  N1  UNL     1      30.891   8.042  29.267  1.00  0.00    -0.340 N 
HETATM   12  C5  UNL     1      30.709   7.291  28.081  1.00  0.00     0.259 C 
HETATM   13  O1  UNL     1      30.028   7.805  27.166  1.00  0.00    -0.271 OA
ATOM     14  H1  UNL     1      31.449   7.610  30.002  1.00  0.00     0.163 HD
BRANCH  12  15
HETATM   15  C6  UNL     1      31.270   5.948  27.866  1.00  0.00     0.369 C 
HETATM   16  N2  UNL     1      32.699   5.951  27.700  1.00  0.00    -0.038 N 
HETATM   17  C7  UNL     1      33.044   4.555  27.902  1.00  0.00     0.358 C 
ATOM     18  H22 UNL     1      33.027   6.351  26.821  1.00  0.00     0.280 HD
ATOM     19  H21 UNL     1      33.197   6.607  28.301  1.00  0.00     0.280 HD
HETATM   20  N3  UNL     1      32.208   4.203  29.055  1.00  0.00    -0.336 N 
HETATM   21  C8  UNL     1      31.078   5.051  29.023  1.00  0.00     0.259 C 
ATOM     22  H3  UNL     1      32.406   3.482  29.749  1.00  0.00     0.164 HD
HETATM   23  O2  UNL     1      30.105   5.064  29.796  1.00  0.00    -0.271 OA
ENDBRANCH  12  15
ENDBRANCH   1  11
BRANCH   4  24
HETATM   24  C11 UNL     1      27.757  11.160  31.493  1.00  0.00     0.126 C 
BRANCH  24  25
HETATM   25  C12 UNL     1      27.363  12.070  30.369  1.00  0.00     0.022 C 
BRANCH  25  26
HETATM   26  C13 UNL     1      26.054  11.777  29.743  1.00  0.00     0.029 C 
BRANCH  26  27
HETATM   27  C14 UNL     1      26.016  10.919  28.532  1.00  0.00     0.232 C 
BRANCH  27  28
HETATM   28  N5  UNL     1      25.546   9.598  28.786  1.00  0.00    -0.075 N 
ATOM     29  H52 UNL     1      26.290   8.920  28.629  1.00  0.00     0.277 HD
ATOM     30  H51 UNL     1      25.392   9.462  29.784  1.00  0.00     0.277 HD
BRANCH  28  31
HETATM   31  C15 UNL     1      24.376   9.234  28.047  1.00  0.00     0.239 C 
BRANCH  31  32
HETATM   32  C16 UNL     1      23.374  10.369  27.958  1.00  0.00     0.100 C 
BRANCH  32  33
HETATM   33  C17 UNL     1      22.809  10.415  26.600  1.00  0.00     0.088 C 
HETATM   34  N6  UNL     1      21.861   9.632  26.187  1.00  0.00    -0.391 N 
ATOM     35  H62 UNL     1      21.500   8.950  26.854  1.00  0.00     0.157 HD
ATOM     36  H61 UNL     1      21.470   9.665  25.246  1.00  0.00     0.157 HD
HETATM   37  N7  UNL     1      23.312  11.366  25.671  1.00  0.00    -0.088 NA
ENDBRANCH  32  33
ENDBRANCH  31  32
ENDBRANCH  28  31
ENDBRANCH  27  28
ENDBRANCH  26  27
ENDBRANCH  25  26
ENDBRANCH  24  25
ENDBRANCH   4  24
TORSDOF 12
ENDMDL
MODEL 2
REMARK VINA RESULT: -7.103619955      1.064      1.546
REMARK  12 active torsions:
REMARK  status: ('A' for Active; 'I' for Inactive)
REMARK    1  A    between atoms: S1_2  and  C3_4 
REMARK    2  A    between atoms: C3_4  and  C4_5 
REMARK    3  A    between atoms: C4_5  and  N1_6 
REMARK       I    between atoms: N1_6  and  C5_8 
REMARK    4  A    between atoms: C5_8  and  C6_10 
REMARK    5  A    between atoms: N4_21  and  C11_22 
REMARK    6  A    between atoms: C11_22  and  C12_23 
REMARK    7  A    between atoms: C12_23  and  C13_24 
REMARK    8  A    between atoms: C13_24  and  C14_25 
REMARK    9  A    between atoms: C14_25  and  N5_26 
REMARK   10  A    between atoms: N5_26  and  C15_29 
REMARK   11  A    between atoms: C15_29  and  C16_30 
REMARK   12  A    between atoms: C16_30  and  C17_31 
ROOT
HETATM    1  C4  UNL     1      30.326   9.367  29.517  1.00  0.00     0.123 C 
HETATM    2  C9  UNL     1      31.153   9.996  30.673  1.00  0.00     0.061 C 
HETATM    3  C10 UNL     1      30.175  10.821  31.473  1.00  0.00     0.129 C 
HETATM    4  N4  UNL     1      28.857  10.442  31.026  1.00  0.00    -0.350 N 
HETATM    5  C18 UNL     1      29.002   9.299  30.180  1.00  0.00     0.249 C 
HETATM    6  O3  UNL     1      28.121   8.424  30.067  1.00  0.00    -0.270 OA
ENDROOT
BRANCH   1   7
HETATM    7  C3  UNL     1      30.371  10.303  28.339  1.00  0.00     0.103 C 
BRANCH   7   8
HETATM    8  S1  UNL     1      31.957  10.913  28.040  1.00  0.00    -0.225 SA
HETATM    9  C1  UNL     1      32.310  12.558  28.418  1.00  0.00     0.078 C 
HETATM   10  C2  UNL     1      32.786  10.263  26.652  1.00  0.00     0.078 C 
ENDBRANCH   7   8
ENDBRANCH   1   7
BRANCH   1  11
HETATM   11  N1  UNL     1      30.865   8.068  29.255  1.00  0.00    -0.340 N 
HETATM   12  C5  UNL     1      30.712   7.316  28.066  1.00  0.00     0.259 C 
HETATM   13  O1  UNL     1      30.043   7.825  27.139  1.00  0.00    -0.271 OA
ATOM     14  H1  UNL     1      31.414   7.640  30.001  1.00  0.00     0.163 HD
BRANCH  12  15
HETATM   15  C6  UNL     1      31.290   5.979  27.860  1.00  0.00     0.369 C 
HETATM   16  N2  UNL     1      32.720   5.998  27.709  1.00  0.00    -0.038 N 
HETATM   17  C7  UNL     1      33.079   4.606  27.918  1.00  0.00     0.358 C 
ATOM     18  H22 UNL     1      33.053   6.399  26.832  1.00  0.00     0.280 HD
ATOM     19  H21 UNL     1      33.205   6.661  28.312  1.00  0.00     0.280 HD
HETATM   20  N3  UNL     1      32.235   4.248  29.063  1.00  0.00    -0.336 N 
HETATM   21  C8  UNL     1      31.096   5.083  29.018  1.00  0.00     0.259 C 
ATOM     22  H3  UNL     1      32.434   3.530  29.761  1.00  0.00     0.164 HD
HETATM   23  O2  UNL     1      30.115   5.087  29.781  1.00  0.00    -0.271 OA
ENDBRANCH  12  15
ENDBRANCH   1  11
BRANCH   4  24
HETATM   24  C11 UNL     1      27.641  11.149  31.404  1.00  0.00     0.126 C 
BRANCH  24  25
HETATM   25  C12 UNL     1      27.107  11.824  30.177  1.00  0.00     0.022 C 
BRANCH  25  26
HETATM   26  C13 UNL     1      25.752  12.406  30.311  1.00  0.00     0.029 C 
BRANCH  26  27
HETATM   27  C14 UNL     1      25.136  13.064  29.132  1.00  0.00     0.232 C 
BRANCH  27  28
HETATM   28  N5  UNL     1      24.080  12.309  28.547  1.00  0.00    -0.075 N 
ATOM     29  H52 UNL     1      23.807  11.543  29.162  1.00  0.00     0.277 HD
ATOM     30  H51 UNL     1      23.215  12.849  28.546  1.00  0.00     0.277 HD
BRANCH  28  31
HETATM   31  C15 UNL     1      24.361  11.817  27.233  1.00  0.00     0.239 C 
BRANCH  31  32
HETATM   32  C16 UNL     1      24.009  10.350  27.079  1.00  0.00     0.100 C 
BRANCH  32  33
HETATM   33  C17 UNL     1      24.640   9.581  28.164  1.00  0.00     0.088 C 
HETATM   34  N6  UNL     1      25.845   9.107  28.104  1.00  0.00    -0.391 N 
ATOM     35  H62 UNL     1      26.372   9.287  27.249  1.00  0.00     0.157 HD
ATOM     36  H61 UNL     1      26.282   8.574  28.856  1.00  0.00     0.157 HD
HETATM   37  N7  UNL     1      23.905   9.330  29.354  1.00  0.00    -0.088 NA
ENDBRANCH  32  33
ENDBRANCH  31  32
ENDBRANCH  28  31
ENDBRANCH  27  28
ENDBRANCH  26  27
ENDBRANCH  25  26
ENDBRANCH  24  25
ENDBRANCH   4  24
TORSDOF 12
ENDMDL
MODEL 3
REMARK VINA RESULT: -6.759244090      1.553      2.130
REMARK  12 active torsions:
REMARK  status: ('A' for Active; 'I' for Inactive)
REMARK    1  A    between atoms: S1_2  and  C3_4 
REMARK    2  A    between atoms: C3_4  and  C4_5 
REMARK    3  A    between atoms: C4_5  and  N1_6 
REMARK       I    between atoms: N1_6  and  C5_8 
REMARK    4  A    between atoms: C5_8  and  C6_10 
REMARK    5  A    between atoms: N4_21  and  C11_22 
REMARK    6  A    between atoms: C11_22  and  C12_23 
REMARK    7  A    between atoms: C12_23  and  C13_24 
REMARK    8  A    between atoms: C13_24  and  C14_25 
REMARK    9  A    between atoms: C14_25  and  N5_26 
REMARK   10  A    between atoms: N5_26  and  C15_29 
REMARK   11  A    between atoms: C15_29  and  C16_30 
REMARK   12  A    between atoms: C16_30  and  C17_31 
ROOT
HETATM    1  C4  UNL     1      29.242   9.194  29.171  1.00  0.00     0.123 C 
HETATM    2  C9  UNL     1      29.300   9.240  30.724  1.00  0.00     0.061 C 
HETATM    3  C10 UNL     1      28.184  10.161  31.148  1.00  0.00     0.129 C 
HETATM    4  N4  UNL     1      27.355  10.364  29.984  1.00  0.00    -0.350 N 
HETATM    5  C18 UNL     1      27.795   9.447  28.980  1.00  0.00     0.249 C 
HETATM    6  O3  UNL     1      27.031   8.974  28.114  1.00  0.00    -0.270 OA
ENDROOT
BRANCH   1   7
HETATM    7  C3  UNL     1      30.129  10.282  28.632  1.00  0.00     0.103 C 
BRANCH   7   8
HETATM    8  S1  UNL     1      29.898  10.548  26.942  1.00  0.00    -0.225 SA
HETATM    9  C1  UNL     1      30.887   9.697  25.814  1.00  0.00     0.078 C 
HETATM   10  C2  UNL     1      29.429  12.158  26.470  1.00  0.00     0.078 C 
ENDBRANCH   7   8
ENDBRANCH   1   7
BRANCH   1  11
HETATM   11  N1  UNL     1      29.617   7.874  28.763  1.00  0.00    -0.340 N 
HETATM   12  C5  UNL     1      30.934   7.362  28.676  1.00  0.00     0.259 C 
HETATM   13  O1  UNL     1      31.875   8.125  28.986  1.00  0.00    -0.271 OA
ATOM     14  H1  UNL     1      28.860   7.240  28.508  1.00  0.00     0.163 HD
BRANCH  12  15
HETATM   15  C6  UNL     1      31.255   5.993  28.244  1.00  0.00     0.369 C 
HETATM   16  N2  UNL     1      32.667   5.756  28.118  1.00  0.00    -0.038 N 
HETATM   17  C7  UNL     1      32.743   4.306  28.081  1.00  0.00     0.358 C 
ATOM     18  H22 UNL     1      33.113   6.228  27.331  1.00  0.00     0.280 HD
ATOM     19  H21 UNL     1      33.241   6.197  28.836  1.00  0.00     0.280 HD
HETATM   20  N3  UNL     1      31.792   3.929  29.133  1.00  0.00    -0.336 N 
HETATM   21  C8  UNL     1      30.837   4.967  29.221  1.00  0.00     0.259 C 
ATOM     22  H3  UNL     1      31.816   3.078  29.694  1.00  0.00     0.164 HD
HETATM   23  O2  UNL     1      29.840   5.033  29.959  1.00  0.00    -0.271 OA
ENDBRANCH  12  15
ENDBRANCH   1  11
BRANCH   4  24
HETATM   24  C11 UNL     1      26.286  11.349  29.916  1.00  0.00     0.126 C 
BRANCH  24  25
HETATM   25  C12 UNL     1      26.663  12.360  28.875  1.00  0.00     0.022 C 
BRANCH  25  26
HETATM   26  C13 UNL     1      25.821  12.364  27.658  1.00  0.00     0.029 C 
BRANCH  26  27
HETATM   27  C14 UNL     1      24.576  13.172  27.651  1.00  0.00     0.232 C 
BRANCH  27  28
HETATM   28  N5  UNL     1      23.401  12.405  27.408  1.00  0.00    -0.075 N 
ATOM     29  H52 UNL     1      22.716  12.958  26.893  1.00  0.00     0.277 HD
ATOM     30  H51 UNL     1      23.589  11.676  26.721  1.00  0.00     0.277 HD
BRANCH  28  31
HETATM   31  C15 UNL     1      22.806  11.844  28.582  1.00  0.00     0.239 C 
BRANCH  31  32
HETATM   32  C16 UNL     1      22.272  10.444  28.344  1.00  0.00     0.100 C 
BRANCH  32  33
HETATM   33  C17 UNL     1      23.302   9.636  27.673  1.00  0.00     0.088 C 
HETATM   34  N6  UNL     1      24.170   8.908  28.304  1.00  0.00    -0.391 N 
ATOM     35  H62 UNL     1      24.122   8.907  29.322  1.00  0.00     0.157 HD
ATOM     36  H61 UNL     1      24.884   8.348  27.839  1.00  0.00     0.157 HD
HETATM   37  N7  UNL     1      23.369   9.637  26.253  1.00  0.00    -0.088 NA
ENDBRANCH  32  33
ENDBRANCH  31  32
ENDBRANCH  28  31
ENDBRANCH  27  28
ENDBRANCH  26  27
ENDBRANCH  25  26
ENDBRANCH  24  25
ENDBRANCH   4  24
TORSDOF 12
ENDMDL
MODEL 4
REMARK VINA RESULT: -6.662790754      2.446      3.479
REMARK  12 active torsions:
REMARK  status: ('A' for Active; 'I' for Inactive)
REMARK    1  A    between atoms: S1_2  and  C3_4 
REMARK    2  A    between atoms: C3_4  and  C4_5 
REMARK    3  A    between atoms: C4_5  and  N1_6 
REMARK       I    between atoms: N1_6  and  C5_8 
REMARK    4  A    between atoms: C5_8  and  C6_10 
REMARK    5  A    between atoms: N4_21  and  C11_22 
REMARK    6  A    between atoms: C11_22  and  C12_23 
REMARK    7  A    between atoms: C12_23  and  C13_24 
REMARK    8  A    between atoms: C13_24  and  C14_25 
REMARK    9  A    between atoms: C14_25  and  N5_26 
REMARK   10  A    between atoms: N5_26  and  C15_29 
REMARK   11  A    between atoms: C15_29  and  C16_30 
REMARK   12  A    between atoms: C16_30  and  C17_31 
ROOT
HETATM    1  C4  UNL     1      30.404   9.364  29.508  1.00  0.00     0.123 C 
HETATM    2  C9  UNL     1      31.241   9.990  30.659  1.00  0.00     0.061 C 
HETATM    3  C10 UNL     1      30.265  10.793  31.483  1.00  0.00     0.129 C 
HETATM    4  N4  UNL     1      28.945  10.404  31.050  1.00  0.00    -0.350 N 
HETATM    5  C18 UNL     1      29.092   9.272  30.190  1.00  0.00     0.249 C 
HETATM    6  O3  UNL     1      28.220   8.387  30.080  1.00  0.00    -0.270 OA
ENDROOT
BRANCH   1   7
HETATM    7  C3  UNL     1      30.420  10.312  28.340  1.00  0.00     0.103 C 
BRANCH   7   8
HETATM    8  S1  UNL     1      32.006  10.890  27.980  1.00  0.00    -0.225 SA
HETATM    9  C1  UNL     1      32.421  12.515  28.380  1.00  0.00     0.078 C 
HETATM   10  C2  UNL     1      32.750  10.255  26.537  1.00  0.00     0.078 C 
ENDBRANCH   7   8
ENDBRANCH   1   7
BRANCH   1  11
HETATM   11  N1  UNL     1      30.955   8.074  29.224  1.00  0.00    -0.340 N 
HETATM   12  C5  UNL     1      30.778   7.325  28.036  1.00  0.00     0.259 C 
HETATM   13  O1  UNL     1      30.072   7.827  27.133  1.00  0.00    -0.271 OA
ATOM     14  H1  UNL     1      31.534   7.652  29.950  1.00  0.00     0.163 HD
BRANCH  12  15
HETATM   15  C6  UNL     1      31.370   5.998  27.806  1.00  0.00     0.369 C 
HETATM   16  N2  UNL     1      32.805   6.027  27.713  1.00  0.00    -0.038 N 
HETATM   17  C7  UNL     1      33.162   4.630  27.887  1.00  0.00     0.358 C 
ATOM     18  H22 UNL     1      33.170   6.460  26.864  1.00  0.00     0.280 HD
ATOM     19  H21 UNL     1      33.262   6.670  28.358  1.00  0.00     0.280 HD
HETATM   20  N3  UNL     1      32.275   4.228  28.984  1.00  0.00    -0.336 N 
HETATM   21  C8  UNL     1      31.135   5.061  28.923  1.00  0.00     0.259 C 
ATOM     22  H3  UNL     1      32.449   3.488  29.664  1.00  0.00     0.164 HD
HETATM   23  O2  UNL     1      30.125   5.034  29.646  1.00  0.00    -0.271 OA
ENDBRANCH  12  15
ENDBRANCH   1  11
BRANCH   4  24
HETATM   24  C11 UNL     1      27.726  11.091  31.454  1.00  0.00     0.126 C 
BRANCH  24  25
HETATM   25  C12 UNL     1      27.231  11.870  30.274  1.00  0.00     0.022 C 
BRANCH  25  26
HETATM   26  C13 UNL     1      26.021  11.327  29.616  1.00  0.00     0.029 C 
BRANCH  26  27
HETATM   27  C14 UNL     1      24.734  12.048  29.776  1.00  0.00     0.232 C 
BRANCH  27  28
HETATM   28  N5  UNL     1      24.854  13.273  30.494  1.00  0.00    -0.075 N 
ATOM     29  H52 UNL     1      25.836  13.512  30.626  1.00  0.00     0.277 HD
ATOM     30  H51 UNL     1      24.560  14.056  29.911  1.00  0.00     0.277 HD
BRANCH  28  31
HETATM   31  C15 UNL     1      24.162  13.296  31.746  1.00  0.00     0.239 C 
BRANCH  31  32
HETATM   32  C16 UNL     1      25.105  13.466  32.922  1.00  0.00     0.100 C 
BRANCH  32  33
HETATM   33  C17 UNL     1      24.372  14.052  34.055  1.00  0.00     0.088 C 
HETATM   34  N6  UNL     1      23.230  14.655  33.939  1.00  0.00    -0.391 N 
ATOM     35  H62 UNL     1      22.832  14.718  33.002  1.00  0.00     0.157 HD
ATOM     36  H61 UNL     1      22.722  15.062  34.724  1.00  0.00     0.157 HD
HETATM   37  N7  UNL     1      24.927  13.965  35.360  1.00  0.00    -0.088 NA
ENDBRANCH  32  33
ENDBRANCH  31  32
ENDBRANCH  28  31
ENDBRANCH  27  28
ENDBRANCH  26  27
ENDBRANCH  25  26
ENDBRANCH  24  25
ENDBRANCH   4  24
TORSDOF 12
ENDMDL
MODEL 5
REMARK VINA RESULT: -6.583004806      3.018      5.132
REMARK  12 active torsions:
REMARK  status: ('A' for Active; 'I' for Inactive)
REMARK    1  A    between atoms: S1_2  and  C3_4 
REMARK    2  A    between atoms: C3_4  and  C4_5 
REMARK    3  A    between atoms: C4_5  and  N1_6 
REMARK       I    between atoms: N1_6  and  C5_8 
REMARK    4  A    between atoms: C5_8  and  C6_10 
REMARK    5  A    between atoms: N4_21  and  C11_22 
REMARK    6  A    between atoms: C11_22  and  C12_23 
REMARK    7  A    between atoms: C12_23  and  C13_24 
REMARK    8  A    between atoms: C13_24  and  C14_25 
REMARK    9  A    between atoms: C14_25  and  N5_26 
REMARK   10  A    between atoms: N5_26  and  C15_29 
REMARK   11  A    between atoms: C15_29  and  C16_30 
REMARK   12  A    between atoms: C16_30  and  C17_31 
ROOT
HETATM    1  C4  UNL     1      30.431   9.342  29.551  1.00  0.00     0.123 C 
HETATM    2  C9  UNL     1      31.301   9.935  30.695  1.00  0.00     0.061 C 
HETATM    3  C10 UNL     1      30.364  10.777  31.526  1.00  0.00     0.129 C 
HETATM    4  N4  UNL     1      29.027  10.441  31.104  1.00  0.00    -0.350 N 
HETATM    5  C18 UNL     1      29.121   9.303  30.243  1.00  0.00     0.249 C 
HETATM    6  O3  UNL     1      28.214   8.454  30.141  1.00  0.00    -0.270 OA
ENDROOT
BRANCH   1   7
HETATM    7  C3  UNL     1      30.476  10.289  28.383  1.00  0.00     0.103 C 
BRANCH   7   8
HETATM    8  S1  UNL     1      32.072  10.861  28.057  1.00  0.00    -0.225 SA
HETATM    9  C1  UNL     1      32.512  12.453  28.551  1.00  0.00     0.078 C 
HETATM   10  C2  UNL     1      32.807  10.299  26.580  1.00  0.00     0.078 C 
ENDBRANCH   7   8
ENDBRANCH   1   7
BRANCH   1  11
HETATM   11  N1  UNL     1      30.928   8.031  29.265  1.00  0.00    -0.340 N 
HETATM   12  C5  UNL     1      30.733   7.300  28.068  1.00  0.00     0.259 C 
HETATM   13  O1  UNL     1      30.063   7.839  27.160  1.00  0.00    -0.271 OA
ATOM     14  H1  UNL     1      31.477   7.579  29.995  1.00  0.00     0.163 HD
BRANCH  12  15
HETATM   15  C6  UNL     1      31.269   5.950  27.836  1.00  0.00     0.369 C 
HETATM   16  N2  UNL     1      32.704   5.916  27.759  1.00  0.00    -0.038 N 
HETATM   17  C7  UNL     1      32.997   4.503  27.927  1.00  0.00     0.358 C 
ATOM     18  H22 UNL     1      33.098   6.338  26.918  1.00  0.00     0.280 HD
ATOM     19  H21 UNL     1      33.182   6.533  28.415  1.00  0.00     0.280 HD
HETATM   20  N3  UNL     1      32.080   4.133  29.011  1.00  0.00    -0.336 N 
HETATM   21  C8  UNL     1      30.978   5.016  28.943  1.00  0.00     0.259 C 
ATOM     22  H3  UNL     1      32.213   3.381  29.687  1.00  0.00     0.164 HD
HETATM   23  O2  UNL     1      29.960   5.030  29.654  1.00  0.00    -0.271 OA
ENDBRANCH  12  15
ENDBRANCH   1  11
BRANCH   4  24
HETATM   24  C11 UNL     1      27.840  11.176  31.517  1.00  0.00     0.126 C 
BRANCH  24  25
HETATM   25  C12 UNL     1      27.599  12.256  30.506  1.00  0.00     0.022 C 
BRANCH  25  26
HETATM   26  C13 UNL     1      28.195  13.573  30.828  1.00  0.00     0.029 C 
BRANCH  26  27
HETATM   27  C14 UNL     1      28.409  13.932  32.252  1.00  0.00     0.232 C 
BRANCH  27  28
HETATM   28  N5  UNL     1      29.707  14.454  32.517  1.00  0.00    -0.075 N 
ATOM     29  H52 UNL     1      29.657  15.456  32.702  1.00  0.00     0.277 HD
ATOM     30  H51 UNL     1      30.044  14.126  33.422  1.00  0.00     0.277 HD
BRANCH  28  31
HETATM   31  C15 UNL     1      30.674  14.184  31.498  1.00  0.00     0.239 C 
BRANCH  31  32
HETATM   32  C16 UNL     1      32.086  14.522  31.938  1.00  0.00     0.100 C 
BRANCH  32  33
HETATM   33  C17 UNL     1      32.480  13.629  33.039  1.00  0.00     0.088 C 
HETATM   34  N6  UNL     1      33.170  12.543  32.874  1.00  0.00    -0.391 N 
ATOM     35  H62 UNL     1      33.445  12.310  31.920  1.00  0.00     0.157 HD
ATOM     36  H61 UNL     1      33.443  11.925  33.637  1.00  0.00     0.157 HD
HETATM   37  N7  UNL     1      32.096  13.955  34.368  1.00  0.00    -0.088 NA
ENDBRANCH  32  33
ENDBRANCH  31  32
ENDBRANCH  28  31
ENDBRANCH  27  28
ENDBRANCH  26  27
ENDBRANCH  25  26
ENDBRANCH  24  25
ENDBRANCH   4  24
TORSDOF 12
ENDMDL
