MODEL 1
REMARK VINA RESULT: -6.948307549      0.000      0.000
REMARK  12 active torsions:
REMARK  status: ('A' for Active; 'I' for Inactive)
REMARK       I    between atoms: C2_5  and  N3_6 
REMARK       I    between atoms: C2_5  and  N12_33 
REMARK       I    between atoms: C3_8  and  N5_10 
REMARK    1  A    between atoms: N5_10  and  C4_12 
REMARK    2  A    between atoms: C4_12  and  C5_13 
REMARK    3  A    between atoms: C5_13  and  C6_14 
REMARK    4  A    between atoms: C6_14  and  C7_15 
REMARK    5  A    between atoms: C7_15  and  N6_16 
REMARK       I    between atoms: N6_16  and  C8_18 
REMARK       I    between atoms: C8_18  and  N9_23 
REMARK    6  A    between atoms: N9_23  and  N10_25 
REMARK    7  A    between atoms: N12_33  and  C16_35 
REMARK    8  A    between atoms: C16_35  and  C17_36 
REMARK    9  A    between atoms: C17_36  and  C18_37 
REMARK   10  A    between atoms: C18_37  and  C19_38 
REMARK   11  A    between atoms: C19_38  and  C20_39 
REMARK   12  A    between atoms: C20_39  and  N13_40 
ROOT
HETATM    1  N1  UNL     1      28.256  11.020  31.334  1.00  0.00    -0.171 NA
HETATM    2  C1  UNL     1      28.286   9.960  30.839  1.00  0.00     0.196 C 
HETATM    3  N2  UNL     1      28.322   8.709  30.226  1.00  0.00    -0.126 N 
ATOM      4  H2  UNL     1      28.483   7.876  30.791  1.00  0.00     0.197 HD
HETATM    5  C2  UNL     1      28.155   8.593  28.956  1.00  0.00     0.689 C 
HETATM    6  N3  UNL     1      27.934   9.810  28.219  1.00  0.00    -0.163 N 
ATOM      7  H3  UNL     1      28.704  10.311  27.776  1.00  0.00     0.187 HD
HETATM    8  C3  UNL     1      26.733  10.237  28.145  1.00  0.00     0.202 C 
HETATM    9  N4  UNL     1      25.686   9.524  28.764  1.00  0.00    -0.063 NA
HETATM   10  N5  UNL     1      26.452  11.439  27.448  1.00  0.00    -0.364 N 
ATOM     11  H5  UNL     1      26.151  11.396  26.474  1.00  0.00     0.162 HD
HETATM   12  N12 UNL     1      28.156   7.366  28.275  1.00  0.00    -0.225 N 
ATOM     13  H12 UNL     1      27.470   7.280  27.525  1.00  0.00     0.177 HD
ENDROOT
BRANCH  12  14
HETATM   14  C16 UNL     1      28.975   6.232  28.484  1.00  0.00     0.138 C 
BRANCH  14  15
HETATM   15  C17 UNL     1      30.455   6.382  28.381  1.00  0.00     0.020 C 
BRANCH  15  16
HETATM   16  C18 UNL     1      31.069   5.357  27.510  1.00  0.00     0.003 C 
BRANCH  16  17
HETATM   17  C19 UNL     1      31.949   4.384  28.275  1.00  0.00     0.027 C 
BRANCH  17  18
HETATM   18  C20 UNL     1      33.335   4.268  27.753  1.00  0.00     0.229 C 
BRANCH  18  19
HETATM   19  N13 UNL     1      33.521   4.723  26.413  1.00  0.00    -0.079 N 
ATOM     20 3H13 UNL     1      32.626   4.756  25.927  1.00  0.00     0.274 HD
ATOM     21 2H13 UNL     1      33.762   5.715  26.410  1.00  0.00     0.274 HD
ATOM     22 1H13 UNL     1      34.199   4.195  25.865  1.00  0.00     0.274 HD
ENDBRANCH  18  19
ENDBRANCH  17  18
ENDBRANCH  16  17
ENDBRANCH  15  16
ENDBRANCH  14  15
ENDBRANCH  12  14
BRANCH  10  23
HETATM   23  C4  UNL     1      26.585  12.736  28.100  1.00  0.00     0.122 C 
BRANCH  23  24
HETATM   24  C5  UNL     1      27.560  13.602  27.377  1.00  0.00     0.021 C 
BRANCH  24  25
HETATM   25  C6  UNL     1      28.073  14.695  28.241  1.00  0.00     0.022 C 
BRANCH  25  26
HETATM   26  C7  UNL     1      28.675  14.109  29.503  1.00  0.00     0.138 C 
BRANCH  26  27
HETATM   27  N6  UNL     1      30.131  14.034  29.368  1.00  0.00    -0.224 N 
HETATM   28  C8  UNL     1      30.680  12.712  29.519  1.00  0.00     0.707 C 
HETATM   29  N7  UNL     1      31.224  12.485  30.660  1.00  0.00    -0.125 N 
HETATM   30  N9  UNL     1      30.584  11.804  28.458  1.00  0.00    -0.047 N 
HETATM   31  C9  UNL     1      31.812  11.272  31.012  1.00  0.00     0.196 C 
ATOM     32  H7  UNL     1      31.226  13.237  31.350  1.00  0.00     0.197 HD
HETATM   33  N8  UNL     1      32.312  10.259  31.286  1.00  0.00    -0.171 NA
ATOM     34  H9  UNL     1      29.791  11.163  28.485  1.00  0.00     0.213 HD
ATOM     35  H6  UNL     1      30.710  14.853  29.181  1.00  0.00     0.177 HD
BRANCH  30  36
HETATM   36  N10 UNL     1      31.434  11.673  27.381  1.00  0.00     0.031 N 
HETATM   37  C10 UNL     1      31.718  10.295  27.107  1.00  0.00     0.295 C 
HETATM   38  C11 UNL     1      32.364  10.126  25.727  1.00  0.00     0.302 C 
HETATM   39  N11 UNL     1      32.920  11.412  25.337  1.00  0.00     0.093 N 
HETATM   40  C12 UNL     1      31.790  12.284  25.057  1.00  0.00     0.302 C 
HETATM   41  C14 UNL     1      33.654  11.917  26.501  1.00  0.00     0.302 C 
HETATM   42  C13 UNL     1      30.842  12.343  26.229  1.00  0.00     0.295 C 
HETATM   43  C15 UNL     1      32.712  12.333  27.605  1.00  0.00     0.295 C 
ENDBRANCH  30  36
ENDBRANCH  26  27
ENDBRANCH  25  26
ENDBRANCH  24  25
ENDBRANCH  23  24
ENDBRANCH  10  23
TORSDOF 12
ENDMDL
MODEL 2
REMARK VINA RESULT: -6.752425088      2.562      5.775
REMARK  12 active torsions:
REMARK  status: ('A' for Active; 'I' for Inactive)
REMARK       I    between atoms: C2_5  and  N3_6 
REMARK       I    between atoms: C2_5  and  N12_33 
REMARK       I    between atoms: C3_8  and  N5_10 
REMARK    1  A    between atoms: N5_10  and  C4_12 
REMARK    2  A    between atoms: C4_12  and  C5_13 
REMARK    3  A    between atoms: C5_13  and  C6_14 
REMARK    4  A    between atoms: C6_14  and  C7_15 
REMARK    5  A    between atoms: C7_15  and  N6_16 
REMARK       I    between atoms: N6_16  and  C8_18 
REMARK       I    between atoms: C8_18  and  N9_23 
REMARK    6  A    between atoms: N9_23  and  N10_25 
REMARK    7  A    between atoms: N12_33  and  C16_35 
REMARK    8  A    between atoms: C16_35  and  C17_36 
REMARK    9  A    between atoms: C17_36  and  C18_37 
REMARK   10  A    between atoms: C18_37  and  C19_38 
REMARK   11  A    between atoms: C19_38  and  C20_39 
REMARK   12  A    between atoms: C20_39  and  N13_40 
ROOT
HETATM    1  N1  UNL     1      27.694   9.228  29.833  1.00  0.00    -0.171 NA
HETATM    2  C1  UNL     1      28.435   8.658  29.129  1.00  0.00     0.196 C 
HETATM    3  N2  UNL     1      29.339   7.989  28.305  1.00  0.00    -0.126 N 
ATOM      4  H2  UNL     1      28.991   7.341  27.599  1.00  0.00     0.197 HD
HETATM    5  C2  UNL     1      30.605   8.177  28.426  1.00  0.00     0.689 C 
HETATM    6  N3  UNL     1      31.026   9.104  29.444  1.00  0.00    -0.163 N 
ATOM      7  H3  UNL     1      31.281   8.787  30.379  1.00  0.00     0.187 HD
HETATM    8  C3  UNL     1      31.066  10.341  29.127  1.00  0.00     0.202 C 
HETATM    9  N4  UNL     1      30.710  10.753  27.827  1.00  0.00    -0.063 NA
HETATM   10  N5  UNL     1      31.456  11.305  30.090  1.00  0.00    -0.364 N 
ATOM     11  H5  UNL     1      32.426  11.618  30.122  1.00  0.00     0.162 HD
HETATM   12  N12 UNL     1      31.569   7.557  27.618  1.00  0.00    -0.225 N 
ATOM     13  H12 UNL     1      32.358   8.144  27.346  1.00  0.00     0.177 HD
ENDROOT
BRANCH  12  14
HETATM   14  C16 UNL     1      31.601   6.230  27.128  1.00  0.00     0.138 C 
BRANCH  14  15
HETATM   15  C17 UNL     1      31.416   5.103  28.085  1.00  0.00     0.020 C 
BRANCH  15  16
HETATM   16  C18 UNL     1      32.599   4.219  28.155  1.00  0.00     0.003 C 
BRANCH  16  17
HETATM   17  C19 UNL     1      33.695   4.624  27.185  1.00  0.00     0.027 C 
BRANCH  17  18
HETATM   18  C20 UNL     1      35.062   4.621  27.766  1.00  0.00     0.229 C 
BRANCH  18  19
HETATM   19  N13 UNL     1      36.108   4.989  26.866  1.00  0.00    -0.079 N 
ATOM     20 3H13 UNL     1      36.684   4.177  26.648  1.00  0.00     0.274 HD
ATOM     21 2H13 UNL     1      35.722   5.188  25.943  1.00  0.00     0.274 HD
ATOM     22 1H13 UNL     1      36.695   5.763  27.176  1.00  0.00     0.274 HD
ENDBRANCH  18  19
ENDBRANCH  17  18
ENDBRANCH  16  17
ENDBRANCH  15  16
ENDBRANCH  14  15
ENDBRANCH  12  14
BRANCH  10  23
HETATM   23  C4  UNL     1      30.493  11.856  31.036  1.00  0.00     0.122 C 
BRANCH  23  24
HETATM   24  C5  UNL     1      30.185  13.280  30.719  1.00  0.00     0.021 C 
BRANCH  24  25
HETATM   25  C6  UNL     1      28.739  13.580  30.872  1.00  0.00     0.022 C 
BRANCH  25  26
HETATM   26  C7  UNL     1      27.993  13.143  29.626  1.00  0.00     0.138 C 
BRANCH  26  27
HETATM   27  N6  UNL     1      26.941  12.191  29.988  1.00  0.00    -0.224 N 
HETATM   28  C8  UNL     1      25.600  12.689  29.827  1.00  0.00     0.707 C 
HETATM   29  N7  UNL     1      25.028  13.049  30.920  1.00  0.00    -0.125 N 
HETATM   30  N9  UNL     1      25.039  12.747  28.546  1.00  0.00    -0.047 N 
HETATM   31  C9  UNL     1      23.734  13.559  30.986  1.00  0.00     0.196 C 
ATOM     32  H7  UNL     1      25.552  12.955  31.790  1.00  0.00     0.197 HD
HETATM   33  N8  UNL     1      22.646  13.969  31.028  1.00  0.00    -0.171 NA
ATOM     34  H9  UNL     1      25.119  13.640  28.061  1.00  0.00     0.213 HD
ATOM     35  H6  UNL     1      27.143  11.250  30.326  1.00  0.00     0.177 HD
BRANCH  30  36
HETATM   36  N10 UNL     1      24.391  11.740  27.864  1.00  0.00     0.031 N 
HETATM   37  C10 UNL     1      23.000  12.038  27.693  1.00  0.00     0.295 C 
HETATM   38  C11 UNL     1      22.358  11.114  26.653  1.00  0.00     0.302 C 
HETATM   39  N11 UNL     1      23.205   9.939  26.521  1.00  0.00     0.093 N 
HETATM   40  C12 UNL     1      24.420  10.378  25.853  1.00  0.00     0.302 C 
HETATM   41  C14 UNL     1      23.523   9.502  27.883  1.00  0.00     0.302 C 
HETATM   42  C13 UNL     1      25.061  11.530  26.585  1.00  0.00     0.295 C 
HETATM   43  C15 UNL     1      24.468  10.464  28.561  1.00  0.00     0.295 C 
ENDBRANCH  30  36
ENDBRANCH  26  27
ENDBRANCH  25  26
ENDBRANCH  24  25
ENDBRANCH  23  24
ENDBRANCH  10  23
TORSDOF 12
ENDMDL
MODEL 3
REMARK VINA RESULT: -6.721456269      1.339      3.114
REMARK  12 active torsions:
REMARK  status: ('A' for Active; 'I' for Inactive)
REMARK       I    between atoms: C2_5  and  N3_6 
REMARK       I    between atoms: C2_5  and  N12_33 
REMARK       I    between atoms: C3_8  and  N5_10 
REMARK    1  A    between atoms: N5_10  and  C4_12 
REMARK    2  A    between atoms: C4_12  and  C5_13 
REMARK    3  A    between atoms: C5_13  and  C6_14 
REMARK    4  A    between atoms: C6_14  and  C7_15 
REMARK    5  A    between atoms: C7_15  and  N6_16 
REMARK       I    between atoms: N6_16  and  C8_18 
REMARK       I    between atoms: C8_18  and  N9_23 
REMARK    6  A    between atoms: N9_23  and  N10_25 
REMARK    7  A    between atoms: N12_33  and  C16_35 
REMARK    8  A    between atoms: C16_35  and  C17_36 
REMARK    9  A    between atoms: C17_36  and  C18_37 
REMARK   10  A    between atoms: C18_37  and  C19_38 
REMARK   11  A    between atoms: C19_38  and  C20_39 
REMARK   12  A    between atoms: C20_39  and  N13_40 
ROOT
HETATM    1  N1  UNL     1      28.345  10.881  31.189  1.00  0.00    -0.171 NA
HETATM    2  C1  UNL     1      28.311   9.803  30.734  1.00  0.00     0.196 C 
HETATM    3  N2  UNL     1      28.272   8.530  30.168  1.00  0.00    -0.126 N 
ATOM      4  H2  UNL     1      28.333   7.710  30.770  1.00  0.00     0.197 HD
HETATM    5  C2  UNL     1      28.160   8.377  28.896  1.00  0.00     0.689 C 
HETATM    6  N3  UNL     1      28.080   9.579  28.106  1.00  0.00    -0.163 N 
ATOM      7  H3  UNL     1      28.911   9.996  27.687  1.00  0.00     0.187 HD
HETATM    8  C3  UNL     1      26.924  10.099  27.952  1.00  0.00     0.202 C 
HETATM    9  N4  UNL     1      25.791   9.501  28.539  1.00  0.00    -0.063 NA
HETATM   10  N5  UNL     1      26.781  11.292  27.199  1.00  0.00    -0.364 N 
ATOM     11  H5  UNL     1      26.527  11.235  26.212  1.00  0.00     0.162 HD
HETATM   12  N12 UNL     1      28.092   7.129  28.260  1.00  0.00    -0.225 N 
ATOM     13  H12 UNL     1      27.440   7.070  27.478  1.00  0.00     0.177 HD
ENDROOT
BRANCH  12  14
HETATM   14  C16 UNL     1      28.801   5.940  28.553  1.00  0.00     0.138 C 
BRANCH  14  15
HETATM   15  C17 UNL     1      30.286   5.996  28.668  1.00  0.00     0.020 C 
BRANCH  15  16
HETATM   16  C18 UNL     1      30.954   4.918  27.908  1.00  0.00     0.003 C 
BRANCH  16  17
HETATM   17  C19 UNL     1      32.321   5.325  27.384  1.00  0.00     0.027 C 
BRANCH  17  18
HETATM   18  C20 UNL     1      33.395   4.329  27.632  1.00  0.00     0.229 C 
BRANCH  18  19
HETATM   19  N13 UNL     1      34.713   4.758  27.293  1.00  0.00    -0.079 N 
ATOM     20 3H13 UNL     1      34.759   5.777  27.285  1.00  0.00     0.274 HD
ATOM     21 2H13 UNL     1      35.355   4.557  28.061  1.00  0.00     0.274 HD
ATOM     22 1H13 UNL     1      35.082   4.383  26.420  1.00  0.00     0.274 HD
ENDBRANCH  18  19
ENDBRANCH  17  18
ENDBRANCH  16  17
ENDBRANCH  15  16
ENDBRANCH  14  15
ENDBRANCH  12  14
BRANCH  10  23
HETATM   23  C4  UNL     1      26.990  12.598  27.811  1.00  0.00     0.122 C 
BRANCH  23  24
HETATM   24  C5  UNL     1      28.435  12.967  27.808  1.00  0.00     0.021 C 
BRANCH  24  25
HETATM   25  C6  UNL     1      28.699  14.155  26.959  1.00  0.00     0.022 C 
BRANCH  25  26
HETATM   26  C7  UNL     1      30.045  14.007  26.277  1.00  0.00     0.138 C 
BRANCH  26  27
HETATM   27  N6  UNL     1      30.655  12.732  26.658  1.00  0.00    -0.224 N 
HETATM   28  C8  UNL     1      32.043  12.817  27.028  1.00  0.00     0.707 C 
HETATM   29  N7  UNL     1      32.864  12.425  26.120  1.00  0.00    -0.125 N 
HETATM   30  N9  UNL     1      32.387  13.304  28.294  1.00  0.00    -0.047 N 
HETATM   31  C9  UNL     1      34.248  12.427  26.274  1.00  0.00     0.196 C 
ATOM     32  H7  UNL     1      32.480  12.093  25.236  1.00  0.00     0.197 HD
HETATM   33  N8  UNL     1      35.402  12.421  26.421  1.00  0.00    -0.171 NA
ATOM     34  H9  UNL     1      32.611  14.297  28.349  1.00  0.00     0.213 HD
ATOM     35  H6  UNL     1      30.137  11.853  26.662  1.00  0.00     0.177 HD
BRANCH  30  36
HETATM   36  N10 UNL     1      32.460  12.600  29.477  1.00  0.00     0.031 N 
HETATM   37  C10 UNL     1      31.986  13.383  30.579  1.00  0.00     0.295 C 
HETATM   38  C11 UNL     1      31.738  12.510  31.814  1.00  0.00     0.302 C 
HETATM   39  N11 UNL     1      32.496  11.280  31.647  1.00  0.00     0.093 N 
HETATM   40  C12 UNL     1      31.841  10.530  30.587  1.00  0.00     0.302 C 
HETATM   41  C14 UNL     1      33.838  11.677  31.212  1.00  0.00     0.302 C 
HETATM   42  C13 UNL     1      31.710  11.358  29.333  1.00  0.00     0.295 C 
HETATM   43  C15 UNL     1      33.823  12.200  29.796  1.00  0.00     0.295 C 
ENDBRANCH  30  36
ENDBRANCH  26  27
ENDBRANCH  25  26
ENDBRANCH  24  25
ENDBRANCH  23  24
ENDBRANCH  10  23
TORSDOF 12
ENDMDL
MODEL 4
REMARK VINA RESULT: -6.718736412      2.045      2.944
REMARK  12 active torsions:
REMARK  status: ('A' for Active; 'I' for Inactive)
REMARK       I    between atoms: C2_5  and  N3_6 
REMARK       I    between atoms: C2_5  and  N12_33 
REMARK       I    between atoms: C3_8  and  N5_10 
REMARK    1  A    between atoms: N5_10  and  C4_12 
REMARK    2  A    between atoms: C4_12  and  C5_13 
REMARK    3  A    between atoms: C5_13  and  C6_14 
REMARK    4  A    between atoms: C6_14  and  C7_15 
REMARK    5  A    between atoms: C7_15  and  N6_16 
REMARK       I    between atoms: N6_16  and  C8_18 
REMARK       I    between atoms: C8_18  and  N9_23 
REMARK    6  A    between atoms: N9_23  and  N10_25 
REMARK    7  A    between atoms: N12_33  and  C16_35 
REMARK    8  A    between atoms: C16_35  and  C17_36 
REMARK    9  A    between atoms: C17_36  and  C18_37 
REMARK   10  A    between atoms: C18_37  and  C19_38 
REMARK   11  A    between atoms: C19_38  and  C20_39 
REMARK   12  A    between atoms: C20_39  and  N13_40 
ROOT
HETATM    1  N1  UNL     1      29.925  11.864  27.711  1.00  0.00    -0.171 NA
HETATM    2  C1  UNL     1      29.855  10.725  27.969  1.00  0.00     0.196 C 
HETATM    3  N2  UNL     1      29.748   9.372  28.288  1.00  0.00    -0.126 N 
ATOM      4  H2  UNL     1      30.419   8.709  27.902  1.00  0.00     0.197 HD
HETATM    5  C2  UNL     1      28.812   8.950  29.063  1.00  0.00     0.689 C 
HETATM    6  N3  UNL     1      27.898   9.940  29.571  1.00  0.00    -0.163 N 
ATOM      7  H3  UNL     1      27.016  10.141  29.100  1.00  0.00     0.187 HD
HETATM    8  C3  UNL     1      28.239  10.557  30.636  1.00  0.00     0.202 C 
HETATM    9  N4  UNL     1      29.464  10.259  31.268  1.00  0.00    -0.063 NA
HETATM   10  N5  UNL     1      27.391  11.555  31.177  1.00  0.00    -0.364 N 
ATOM     11  H5  UNL     1      26.737  11.309  31.920  1.00  0.00     0.162 HD
HETATM   12  N12 UNL     1      28.658   7.609  29.445  1.00  0.00    -0.225 N 
ATOM     13  H12 UNL     1      28.377   7.458  30.414  1.00  0.00     0.177 HD
ENDROOT
BRANCH  12  14
HETATM   14  C16 UNL     1      28.836   6.437  28.674  1.00  0.00     0.138 C 
BRANCH  14  15
HETATM   15  C17 UNL     1      29.888   5.461  29.078  1.00  0.00     0.020 C 
BRANCH  15  16
HETATM   16  C18 UNL     1      30.596   4.879  27.918  1.00  0.00     0.003 C 
BRANCH  16  17
HETATM   17  C19 UNL     1      31.890   5.605  27.592  1.00  0.00     0.027 C 
BRANCH  17  18
HETATM   18  C20 UNL     1      33.089   4.730  27.540  1.00  0.00     0.229 C 
BRANCH  18  19
HETATM   19  N13 UNL     1      32.819   3.331  27.455  1.00  0.00    -0.079 N 
ATOM     20 3H13 UNL     1      33.281   2.839  28.220  1.00  0.00     0.274 HD
ATOM     21 2H13 UNL     1      31.843   3.148  27.688  1.00  0.00     0.274 HD
ATOM     22 1H13 UNL     1      33.056   2.896  26.564  1.00  0.00     0.274 HD
ENDBRANCH  18  19
ENDBRANCH  17  18
ENDBRANCH  16  17
ENDBRANCH  15  16
ENDBRANCH  14  15
ENDBRANCH  12  14
BRANCH  10  23
HETATM   23  C4  UNL     1      27.438  12.928  30.690  1.00  0.00     0.122 C 
BRANCH  23  24
HETATM   24  C5  UNL     1      27.482  13.898  31.821  1.00  0.00     0.021 C 
BRANCH  24  25
HETATM   25  C6  UNL     1      28.850  14.433  32.036  1.00  0.00     0.022 C 
BRANCH  25  26
HETATM   26  C7  UNL     1      29.676  14.245  30.778  1.00  0.00     0.138 C 
BRANCH  26  27
HETATM   27  N6  UNL     1      31.101  14.327  31.105  1.00  0.00    -0.224 N 
HETATM   28  C8  UNL     1      31.853  13.136  30.812  1.00  0.00     0.707 C 
HETATM   29  N7  UNL     1      32.120  12.406  31.836  1.00  0.00    -0.125 N 
HETATM   30  N9  UNL     1      32.222  12.865  29.489  1.00  0.00    -0.047 N 
HETATM   31  C9  UNL     1      32.835  11.212  31.772  1.00  0.00     0.196 C 
ATOM     32  H7  UNL     1      31.789  12.719  32.749  1.00  0.00     0.197 HD
HETATM   33  N8  UNL     1      33.446  10.225  31.705  1.00  0.00    -0.171 NA
ATOM     34  H9  UNL     1      31.599  12.252  28.965  1.00  0.00     0.213 HD
ATOM     35  H6  UNL     1      31.526  15.163  31.507  1.00  0.00     0.177 HD
BRANCH  30  36
HETATM   36  N10 UNL     1      33.328  13.329  28.811  1.00  0.00     0.031 N 
HETATM   37  C10 UNL     1      34.312  13.850  29.714  1.00  0.00     0.295 C 
HETATM   38  C11 UNL     1      35.662  14.041  29.013  1.00  0.00     0.302 C 
HETATM   39  N11 UNL     1      35.414  14.098  27.582  1.00  0.00     0.093 N 
HETATM   40  C12 UNL     1      35.029  12.756  27.174  1.00  0.00     0.302 C 
HETATM   41  C14 UNL     1      34.285  15.013  27.393  1.00  0.00     0.302 C 
HETATM   42  C13 UNL     1      33.865  12.251  27.989  1.00  0.00     0.295 C 
HETATM   43  C15 UNL     1      32.996  14.401  27.884  1.00  0.00     0.295 C 
ENDBRANCH  30  36
ENDBRANCH  26  27
ENDBRANCH  25  26
ENDBRANCH  24  25
ENDBRANCH  23  24
ENDBRANCH  10  23
TORSDOF 12
ENDMDL
MODEL 5
REMARK VINA RESULT: -6.647229505      1.997      2.961
REMARK  12 active torsions:
REMARK  status: ('A' for Active; 'I' for Inactive)
REMARK       I    between atoms: C2_5  and  N3_6 
REMARK       I    between atoms: C2_5  and  N12_33 
REMARK       I    between atoms: C3_8  and  N5_10 
REMARK    1  A    between atoms: N5_10  and  C4_12 
REMARK    2  A    between atoms: C4_12  and  C5_13 
REMARK    3  A    between atoms: C5_13  and  C6_14 
REMARK    4  A    between atoms: C6_14  and  C7_15 
REMARK    5  A    between atoms: C7_15  and  N6_16 
REMARK       I    between atoms: N6_16  and  C8_18 
REMARK       I    between atoms: C8_18  and  N9_23 
REMARK    6  A    between atoms: N9_23  and  N10_25 
REMARK    7  A    between atoms: N12_33  and  C16_35 
REMARK    8  A    between atoms: C16_35  and  C17_36 
REMARK    9  A    between atoms: C17_36  and  C18_37 
REMARK   10  A    between atoms: C18_37  and  C19_38 
REMARK   11  A    between atoms: C19_38  and  C20_39 
REMARK   12  A    between atoms: C20_39  and  N13_40 
ROOT
HETATM    1  N1  UNL     1      28.058  11.278  31.310  1.00  0.00    -0.171 NA
HETATM    2  C1  UNL     1      28.295  10.279  30.747  1.00  0.00     0.196 C 
HETATM    3  N2  UNL     1      28.573   9.102  30.054  1.00  0.00    -0.126 N 
ATOM      4  H2  UNL     1      28.947   8.298  30.557  1.00  0.00     0.197 HD
HETATM    5  C2  UNL     1      28.364   9.018  28.788  1.00  0.00     0.689 C 
HETATM    6  N3  UNL     1      27.836  10.191  28.141  1.00  0.00    -0.163 N 
ATOM      7  H3  UNL     1      28.449  10.875  27.698  1.00  0.00     0.187 HD
HETATM    8  C3  UNL     1      26.567  10.339  28.147  1.00  0.00     0.202 C 
HETATM    9  N4  UNL     1      25.742   9.377  28.765  1.00  0.00    -0.063 NA
HETATM   10  N5  UNL     1      25.986  11.481  27.542  1.00  0.00    -0.364 N 
ATOM     11  H5  UNL     1      25.647  11.423  26.581  1.00  0.00     0.162 HD
HETATM   12  N12 UNL     1      28.598   7.860  28.031  1.00  0.00    -0.225 N 
ATOM     13  H12 UNL     1      27.907   7.661  27.308  1.00  0.00     0.177 HD
ENDROOT
BRANCH  12  14
HETATM   14  C16 UNL     1      29.660   6.931  28.130  1.00  0.00     0.138 C 
BRANCH  14  15
HETATM   15  C17 UNL     1      29.459   5.690  28.932  1.00  0.00     0.020 C 
BRANCH  15  16
HETATM   16  C18 UNL     1      30.518   4.685  28.694  1.00  0.00     0.003 C 
BRANCH  16  17
HETATM   17  C19 UNL     1      31.564   5.155  27.698  1.00  0.00     0.027 C 
BRANCH  17  18
HETATM   18  C20 UNL     1      32.861   4.436  27.784  1.00  0.00     0.229 C 
BRANCH  18  19
HETATM   19  N13 UNL     1      33.711   4.575  26.645  1.00  0.00    -0.079 N 
ATOM     20 3H13 UNL     1      34.677   4.707  26.944  1.00  0.00     0.274 HD
ATOM     21 2H13 UNL     1      33.794   3.682  26.159  1.00  0.00     0.274 HD
ATOM     22 1H13 UNL     1      33.443   5.309  25.990  1.00  0.00     0.274 HD
ENDBRANCH  18  19
ENDBRANCH  17  18
ENDBRANCH  16  17
ENDBRANCH  15  16
ENDBRANCH  14  15
ENDBRANCH  12  14
BRANCH  10  23
HETATM   23  C4  UNL     1      25.866  12.739  28.269  1.00  0.00     0.122 C 
BRANCH  23  24
HETATM   24  C5  UNL     1      26.793  13.768  27.719  1.00  0.00     0.021 C 
BRANCH  24  25
HETATM   25  C6  UNL     1      28.096  13.773  28.430  1.00  0.00     0.022 C 
BRANCH  25  26
HETATM   26  C7  UNL     1      28.008  14.666  29.652  1.00  0.00     0.138 C 
BRANCH  26  27
HETATM   27  N6  UNL     1      29.345  15.141  30.014  1.00  0.00    -0.224 N 
HETATM   28  C8  UNL     1      29.885  14.554  31.213  1.00  0.00     0.707 C 
HETATM   29  N7  UNL     1      29.825  15.308  32.252  1.00  0.00    -0.125 N 
HETATM   30  N9  UNL     1      30.412  13.259  31.164  1.00  0.00    -0.047 N 
HETATM   31  C9  UNL     1      30.290  14.932  33.510  1.00  0.00     0.196 C 
ATOM     32  H7  UNL     1      29.413  16.235  32.150  1.00  0.00     0.197 HD
HETATM   33  N8  UNL     1      30.697  14.610  34.551  1.00  0.00    -0.171 NA
ATOM     34  H9  UNL     1      29.778  12.505  31.428  1.00  0.00     0.213 HD
ATOM     35  H6  UNL     1      29.853  15.832  29.462  1.00  0.00     0.177 HD
BRANCH  30  36
HETATM   36  N10 UNL     1      31.687  12.880  30.803  1.00  0.00     0.031 N 
HETATM   37  C10 UNL     1      32.559  14.013  30.704  1.00  0.00     0.295 C 
HETATM   38  C11 UNL     1      34.028  13.580  30.649  1.00  0.00     0.302 C 
HETATM   39  N11 UNL     1      34.064  12.187  30.233  1.00  0.00     0.093 N 
HETATM   40  C12 UNL     1      33.542  11.409  31.346  1.00  0.00     0.302 C 
HETATM   41  C14 UNL     1      33.158  12.073  29.086  1.00  0.00     0.302 C 
HETATM   42  C13 UNL     1      32.179  11.900  31.765  1.00  0.00     0.295 C 
HETATM   43  C15 UNL     1      31.716  12.209  29.511  1.00  0.00     0.295 C 
ENDBRANCH  30  36
ENDBRANCH  26  27
ENDBRANCH  25  26
ENDBRANCH  24  25
ENDBRANCH  23  24
ENDBRANCH  10  23
TORSDOF 12
ENDMDL
