MODEL 1
REMARK VINA RESULT: -6.260274920      0.000      0.000
REMARK  12 active torsions:
REMARK  status: ('A' for Active; 'I' for Inactive)
REMARK    1  A    between atoms: C1_4  and  C2_5 
REMARK    2  A    between atoms: C1_4  and  N7_37 
REMARK    3  A    between atoms: C2_5  and  C3_6 
REMARK    4  A    between atoms: C3_6  and  S1_7 
REMARK    5  A    between atoms: S1_7  and  C4_8 
REMARK    6  A    between atoms: C4_8  and  C5_9 
REMARK    7  A    between atoms: C10_15  and  N3_16 
REMARK       I    between atoms: N3_16  and  C11_18 
REMARK    8  A    between atoms: C11_18  and  C12_20 
REMARK    9  A    between atoms: C12_20  and  C13_21 
REMARK   10  A    between atoms: C13_21  and  N4_22 
REMARK   11  A    between atoms: C19_31  and  C20_32 
REMARK   12  A    between atoms: C20_32  and  N6_33 
ROOT
HETATM    1  C5  UNL     1      33.946  13.549  29.002  1.00  0.00     0.022 C 
HETATM    2  C6  UNL     1      34.643  12.432  28.270  1.00  0.00     0.035 C 
HETATM    3  C7  UNL     1      33.811  12.334  27.008  1.00  0.00     0.238 C 
HETATM    4  N2  UNL     1      32.468  12.483  27.522  1.00  0.00    -0.059 N 
HETATM    5  C8  UNL     1      32.520  13.514  28.506  1.00  0.00     0.243 C 
HETATM    6  C9  UNL     1      32.000  11.240  28.087  1.00  0.00     0.263 C 
HETATM    7  C10 UNL     1      30.509  11.476  28.200  1.00  0.00     0.112 C 
HETATM    8  C18 UNL     1      30.189  12.529  27.177  1.00  0.00     0.062 C 
HETATM    9  C19 UNL     1      31.511  12.807  26.505  1.00  0.00     0.218 C 
ENDROOT
BRANCH   9  10
HETATM   10  C20 UNL     1      31.654  11.929  25.300  1.00  0.00     0.263 C 
BRANCH  10  11
HETATM   11  N6  UNL     1      31.651  12.682  24.062  1.00  0.00    -0.077 N 
ATOM     12  H63 UNL     1      32.216  13.526  24.146  1.00  0.00     0.274 HD
ATOM     13  H62 UNL     1      32.182  12.199  23.338  1.00  0.00     0.274 HD
ATOM     14  H61 UNL     1      30.708  12.901  23.741  1.00  0.00     0.274 HD
ENDBRANCH  10  11
ENDBRANCH   9  10
BRANCH   1  15
HETATM   15  C4  UNL     1      34.581  14.893  28.740  1.00  0.00     0.080 C 
BRANCH  15  16
HETATM   16  S1  UNL     1      33.774  16.261  29.551  1.00  0.00    -0.168 SA
BRANCH  16  17
HETATM   17  C3  UNL     1      33.646  16.003  31.330  1.00  0.00     0.081 C 
BRANCH  17  18
HETATM   18  C2  UNL     1      32.334  15.349  31.709  1.00  0.00     0.086 C 
BRANCH  18  19
HETATM   19  C1  UNL     1      32.449  14.281  32.693  1.00  0.00     0.077 C 
HETATM   20  N1  UNL     1      31.954  14.375  33.874  1.00  0.00    -0.389 N 
ATOM     21  H12 UNL     1      31.477  15.245  34.110  1.00  0.00     0.157 HD
ATOM     22  H11 UNL     1      32.035  13.628  34.564  1.00  0.00     0.157 HD
BRANCH  19  23
HETATM   23  N7  UNL     1      33.110  13.076  32.366  1.00  0.00    -0.323 N 
HETATM   24  C21 UNL     1      32.587  12.003  31.938  1.00  0.00     0.202 C 
HETATM   25  N8  UNL     1      31.196  11.817  31.704  1.00  0.00    -0.066 NA
HETATM   26  N9  UNL     1      33.434  10.868  31.658  1.00  0.00    -0.066 NA
ATOM     27  H7  UNL     1      34.122  13.068  32.489  1.00  0.00     0.169 HD
ENDBRANCH  19  23
ENDBRANCH  18  19
ENDBRANCH  17  18
ENDBRANCH  16  17
ENDBRANCH  15  16
ENDBRANCH   1  15
BRANCH   7  28
HETATM   28  N3  UNL     1      29.831  10.233  27.957  1.00  0.00    -0.355 N 
HETATM   29  C11 UNL     1      28.975   9.594  28.884  1.00  0.00     0.219 C 
HETATM   30  O1  UNL     1      28.764  10.107  30.007  1.00  0.00    -0.274 OA
ATOM     31  H3  UNL     1      29.976   9.781  27.055  1.00  0.00     0.162 HD
BRANCH  29  32
HETATM   32  C12 UNL     1      28.332   8.320  28.524  1.00  0.00     0.133 C 
BRANCH  32  33
HETATM   33  C13 UNL     1      29.247   7.550  27.597  1.00  0.00     0.281 C 
BRANCH  33  34
HETATM   34  N4  UNL     1      30.128   6.753  28.414  1.00  0.00     0.092 N 
HETATM   35  C14 UNL     1      31.495   6.735  27.975  1.00  0.00     0.300 C 
HETATM   36  C15 UNL     1      31.879   5.526  27.185  1.00  0.00     0.262 C 
HETATM   37  N5  UNL     1      31.498   4.269  27.746  1.00  0.00    -0.072 N 
HETATM   38  C16 UNL     1      30.707   4.432  28.933  1.00  0.00     0.262 C 
ATOM     39  H52 UNL     1      31.020   3.687  27.059  1.00  0.00     0.277 HD
ATOM     40  H51 UNL     1      32.311   3.679  27.920  1.00  0.00     0.277 HD
HETATM   41  C17 UNL     1      29.604   5.443  28.702  1.00  0.00     0.300 C 
ENDBRANCH  33  34
ENDBRANCH  32  33
ENDBRANCH  29  32
ENDBRANCH   7  28
TORSDOF 12
ENDMDL
MODEL 2
REMARK VINA RESULT: -6.254593800      3.879      8.164
REMARK  12 active torsions:
REMARK  status: ('A' for Active; 'I' for Inactive)
REMARK    1  A    between atoms: C1_4  and  C2_5 
REMARK    2  A    between atoms: C1_4  and  N7_37 
REMARK    3  A    between atoms: C2_5  and  C3_6 
REMARK    4  A    between atoms: C3_6  and  S1_7 
REMARK    5  A    between atoms: S1_7  and  C4_8 
REMARK    6  A    between atoms: C4_8  and  C5_9 
REMARK    7  A    between atoms: C10_15  and  N3_16 
REMARK       I    between atoms: N3_16  and  C11_18 
REMARK    8  A    between atoms: C11_18  and  C12_20 
REMARK    9  A    between atoms: C12_20  and  C13_21 
REMARK   10  A    between atoms: C13_21  and  N4_22 
REMARK   11  A    between atoms: C19_31  and  C20_32 
REMARK   12  A    between atoms: C20_32  and  N6_33 
ROOT
HETATM    1  C5  UNL     1      31.546  11.037  27.002  1.00  0.00     0.022 C 
HETATM    2  C6  UNL     1      32.651  12.055  27.110  1.00  0.00     0.035 C 
HETATM    3  C7  UNL     1      33.134  11.828  28.527  1.00  0.00     0.238 C 
HETATM    4  N2  UNL     1      31.890  11.650  29.242  1.00  0.00    -0.059 N 
HETATM    5  C8  UNL     1      31.058  10.838  28.418  1.00  0.00     0.243 C 
HETATM    6  C9  UNL     1      31.275  12.927  29.515  1.00  0.00     0.263 C 
HETATM    7  C10 UNL     1      30.246  12.573  30.567  1.00  0.00     0.112 C 
HETATM    8  C18 UNL     1      30.752  11.317  31.219  1.00  0.00     0.062 C 
HETATM    9  C19 UNL     1      32.066  11.046  30.531  1.00  0.00     0.218 C 
ENDROOT
BRANCH   9  10
HETATM   10  C20 UNL     1      33.177  11.686  31.304  1.00  0.00     0.263 C 
BRANCH  10  11
HETATM   11  N6  UNL     1      34.107  10.715  31.845  1.00  0.00    -0.077 N 
ATOM     12  H63 UNL     1      35.039  10.841  31.451  1.00  0.00     0.274 HD
ATOM     13  H62 UNL     1      34.314  10.912  32.824  1.00  0.00     0.274 HD
ATOM     14  H61 UNL     1      33.783   9.756  31.725  1.00  0.00     0.274 HD
ENDBRANCH  10  11
ENDBRANCH   9  10
BRANCH   1  15
HETATM   15  C4  UNL     1      32.018   9.736  26.400  1.00  0.00     0.080 C 
BRANCH  15  16
HETATM   16  S1  UNL     1      30.879   8.378  26.593  1.00  0.00    -0.168 SA
BRANCH  16  17
HETATM   17  C3  UNL     1      31.228   7.417  28.077  1.00  0.00     0.081 C 
BRANCH  17  18
HETATM   18  C2  UNL     1      30.322   6.209  28.189  1.00  0.00     0.086 C 
BRANCH  18  19
HETATM   19  C1  UNL     1      28.967   6.505  28.633  1.00  0.00     0.077 C 
HETATM   20  N1  UNL     1      27.953   5.808  28.265  1.00  0.00    -0.389 N 
ATOM     21  H12 UNL     1      28.129   5.031  27.628  1.00  0.00     0.157 HD
ATOM     22  H11 UNL     1      27.004   6.015  28.575  1.00  0.00     0.157 HD
BRANCH  19  23
HETATM   23  N7  UNL     1      28.722   7.581  29.515  1.00  0.00    -0.323 N 
HETATM   24  C21 UNL     1      28.024   8.615  29.293  1.00  0.00     0.202 C 
HETATM   25  N8  UNL     1      27.341   8.885  28.074  1.00  0.00    -0.066 NA
HETATM   26  N9  UNL     1      27.891   9.614  30.327  1.00  0.00    -0.066 NA
ATOM     27  H7  UNL     1      29.157   7.518  30.435  1.00  0.00     0.169 HD
ENDBRANCH  19  23
ENDBRANCH  18  19
ENDBRANCH  17  18
ENDBRANCH  16  17
ENDBRANCH  15  16
ENDBRANCH   1  15
BRANCH   7  28
HETATM   28  N3  UNL     1      30.132  13.674  31.483  1.00  0.00    -0.355 N 
HETATM   29  C11 UNL     1      29.022  14.547  31.551  1.00  0.00     0.219 C 
HETATM   30  O1  UNL     1      28.046  14.390  30.781  1.00  0.00    -0.274 OA
ATOM     31  H3  UNL     1      30.905  13.838  32.127  1.00  0.00     0.162 HD
BRANCH  29  32
HETATM   32  C12 UNL     1      29.016  15.643  32.533  1.00  0.00     0.133 C 
BRANCH  32  33
HETATM   33  C13 UNL     1      28.486  15.122  33.851  1.00  0.00     0.281 C 
BRANCH  33  34
HETATM   34  N4  UNL     1      27.103  15.515  33.954  1.00  0.00     0.092 N 
HETATM   35  C14 UNL     1      26.811  16.387  35.058  1.00  0.00     0.300 C 
HETATM   36  C15 UNL     1      26.232  15.703  36.254  1.00  0.00     0.262 C 
HETATM   37  N5  UNL     1      25.147  14.811  35.996  1.00  0.00    -0.072 N 
HETATM   38  C16 UNL     1      24.897  14.666  34.589  1.00  0.00     0.262 C 
ATOM     39  H52 UNL     1      25.297  13.906  36.441  1.00  0.00     0.277 HD
ATOM     40  H51 UNL     1      24.304  15.098  36.494  1.00  0.00     0.277 HD
HETATM   41  C17 UNL     1      26.189  14.408  33.845  1.00  0.00     0.300 C 
ENDBRANCH  33  34
ENDBRANCH  32  33
ENDBRANCH  29  32
ENDBRANCH   7  28
TORSDOF 12
ENDMDL
MODEL 3
REMARK VINA RESULT: -6.237233395      1.684      4.125
REMARK  12 active torsions:
REMARK  status: ('A' for Active; 'I' for Inactive)
REMARK    1  A    between atoms: C1_4  and  C2_5 
REMARK    2  A    between atoms: C1_4  and  N7_37 
REMARK    3  A    between atoms: C2_5  and  C3_6 
REMARK    4  A    between atoms: C3_6  and  S1_7 
REMARK    5  A    between atoms: S1_7  and  C4_8 
REMARK    6  A    between atoms: C4_8  and  C5_9 
REMARK    7  A    between atoms: C10_15  and  N3_16 
REMARK       I    between atoms: N3_16  and  C11_18 
REMARK    8  A    between atoms: C11_18  and  C12_20 
REMARK    9  A    between atoms: C12_20  and  C13_21 
REMARK   10  A    between atoms: C13_21  and  N4_22 
REMARK   11  A    between atoms: C19_31  and  C20_32 
REMARK   12  A    between atoms: C20_32  and  N6_33 
ROOT
HETATM    1  C5  UNL     1      31.719  15.380  31.321  1.00  0.00     0.022 C 
HETATM    2  C6  UNL     1      31.430  14.722  32.645  1.00  0.00     0.035 C 
HETATM    3  C7  UNL     1      32.188  13.419  32.505  1.00  0.00     0.238 C 
HETATM    4  N2  UNL     1      31.896  13.046  31.140  1.00  0.00    -0.059 N 
HETATM    5  C8  UNL     1      31.978  14.239  30.364  1.00  0.00     0.243 C 
HETATM    6  C9  UNL     1      30.587  12.447  31.046  1.00  0.00     0.263 C 
HETATM    7  C10 UNL     1      30.626  11.791  29.683  1.00  0.00     0.112 C 
HETATM    8  C18 UNL     1      32.081  11.554  29.392  1.00  0.00     0.062 C 
HETATM    9  C19 UNL     1      32.792  12.050  30.627  1.00  0.00     0.218 C 
ENDROOT
BRANCH   9  10
HETATM   10  C20 UNL     1      32.979  10.916  31.586  1.00  0.00     0.263 C 
BRANCH  10  11
HETATM   11  N6  UNL     1      34.371  10.547  31.742  1.00  0.00    -0.077 N 
ATOM     12  H63 UNL     1      34.668   9.912  31.001  1.00  0.00     0.274 HD
ATOM     13  H62 UNL     1      34.985  11.335  31.539  1.00  0.00     0.274 HD
ATOM     14  H61 UNL     1      34.570  10.155  32.662  1.00  0.00     0.274 HD
ENDBRANCH  10  11
ENDBRANCH   9  10
BRANCH   1  15
HETATM   15  C4  UNL     1      32.902  16.315  31.388  1.00  0.00     0.080 C 
BRANCH  15  16
HETATM   16  S1  UNL     1      33.898  16.352  29.910  1.00  0.00    -0.168 SA
BRANCH  16  17
HETATM   17  C3  UNL     1      35.529  15.638  30.184  1.00  0.00     0.081 C 
BRANCH  17  18
HETATM   18  C2  UNL     1      35.651  14.262  29.564  1.00  0.00     0.086 C 
BRANCH  18  19
HETATM   19  C1  UNL     1      35.484  14.230  28.117  1.00  0.00     0.077 C 
HETATM   20  N1  UNL     1      36.146  14.998  27.330  1.00  0.00    -0.389 N 
ATOM     21  H12 UNL     1      36.799  15.654  27.759  1.00  0.00     0.157 HD
ATOM     22  H11 UNL     1      36.029  14.977  26.317  1.00  0.00     0.157 HD
BRANCH  19  23
HETATM   23  N7  UNL     1      34.580  13.323  27.522  1.00  0.00    -0.323 N 
HETATM   24  C21 UNL     1      34.777  12.600  26.499  1.00  0.00     0.202 C 
HETATM   25  N8  UNL     1      35.983  12.575  25.744  1.00  0.00    -0.066 NA
HETATM   26  N9  UNL     1      33.722  11.728  26.037  1.00  0.00    -0.066 NA
ATOM     27  H7  UNL     1      33.665  13.240  27.964  1.00  0.00     0.169 HD
ENDBRANCH  19  23
ENDBRANCH  18  19
ENDBRANCH  17  18
ENDBRANCH  16  17
ENDBRANCH  15  16
ENDBRANCH   1  15
BRANCH   7  28
HETATM   28  N3  UNL     1      29.860  10.577  29.739  1.00  0.00    -0.355 N 
HETATM   29  C11 UNL     1      29.218   9.984  28.627  1.00  0.00     0.219 C 
HETATM   30  O1  UNL     1      29.293  10.517  27.496  1.00  0.00    -0.274 OA
ATOM     31  H3  UNL     1      29.773  10.111  30.642  1.00  0.00     0.162 HD
BRANCH  29  32
HETATM   32  C12 UNL     1      28.460   8.736  28.804  1.00  0.00     0.133 C 
BRANCH  32  33
HETATM   33  C13 UNL     1      28.987   7.697  27.839  1.00  0.00     0.281 C 
BRANCH  33  34
HETATM   34  N4  UNL     1      29.946   6.887  28.549  1.00  0.00     0.092 N 
HETATM   35  C14 UNL     1      31.276   6.923  28.006  1.00  0.00     0.300 C 
HETATM   36  C15 UNL     1      31.623   5.761  27.134  1.00  0.00     0.262 C 
HETATM   37  N5  UNL     1      31.314   4.471  27.664  1.00  0.00    -0.072 N 
HETATM   38  C16 UNL     1      30.614   4.560  28.914  1.00  0.00     0.262 C 
ATOM     39  H52 UNL     1      30.797   3.907  26.989  1.00  0.00     0.277 HD
ATOM     40  H51 UNL     1      32.151   3.894  27.747  1.00  0.00     0.277 HD
HETATM   41  C17 UNL     1      29.475   5.553  28.815  1.00  0.00     0.300 C 
ENDBRANCH  33  34
ENDBRANCH  32  33
ENDBRANCH  29  32
ENDBRANCH   7  28
TORSDOF 12
ENDMDL
MODEL 4
REMARK VINA RESULT: -6.092663520      3.878      4.894
REMARK  12 active torsions:
REMARK  status: ('A' for Active; 'I' for Inactive)
REMARK    1  A    between atoms: C1_4  and  C2_5 
REMARK    2  A    between atoms: C1_4  and  N7_37 
REMARK    3  A    between atoms: C2_5  and  C3_6 
REMARK    4  A    between atoms: C3_6  and  S1_7 
REMARK    5  A    between atoms: S1_7  and  C4_8 
REMARK    6  A    between atoms: C4_8  and  C5_9 
REMARK    7  A    between atoms: C10_15  and  N3_16 
REMARK       I    between atoms: N3_16  and  C11_18 
REMARK    8  A    between atoms: C11_18  and  C12_20 
REMARK    9  A    between atoms: C12_20  and  C13_21 
REMARK   10  A    between atoms: C13_21  and  N4_22 
REMARK   11  A    between atoms: C19_31  and  C20_32 
REMARK   12  A    between atoms: C20_32  and  N6_33 
ROOT
HETATM    1  C5  UNL     1      30.650  14.078  32.381  1.00  0.00     0.022 C 
HETATM    2  C6  UNL     1      32.029  13.694  31.912  1.00  0.00     0.035 C 
HETATM    3  C7  UNL     1      31.823  13.599  30.414  1.00  0.00     0.238 C 
HETATM    4  N2  UNL     1      30.539  12.941  30.329  1.00  0.00    -0.059 N 
HETATM    5  C8  UNL     1      29.712  13.529  31.331  1.00  0.00     0.243 C 
HETATM    6  C9  UNL     1      30.682  11.520  30.533  1.00  0.00     0.263 C 
HETATM    7  C10 UNL     1      29.359  10.985  30.032  1.00  0.00     0.112 C 
HETATM    8  C18 UNL     1      28.847  12.016  29.066  1.00  0.00     0.062 C 
HETATM    9  C19 UNL     1      29.929  13.067  29.037  1.00  0.00     0.218 C 
ENDROOT
BRANCH   9  10
HETATM   10  C20 UNL     1      30.891  12.763  27.931  1.00  0.00     0.263 C 
BRANCH  10  11
HETATM   11  N6  UNL     1      30.239  12.191  26.771  1.00  0.00    -0.077 N 
ATOM     12  H63 UNL     1      29.453  11.602  27.045  1.00  0.00     0.274 HD
ATOM     13  H62 UNL     1      29.735  12.904  26.244  1.00  0.00     0.274 HD
ATOM     14  H61 UNL     1      30.888  11.682  26.170  1.00  0.00     0.274 HD
ENDBRANCH  10  11
ENDBRANCH   9  10
BRANCH   1  15
HETATM   15  C4  UNL     1      30.488  15.571  32.529  1.00  0.00     0.080 C 
BRANCH  15  16
HETATM   16  S1  UNL     1      28.817  16.156  32.318  1.00  0.00    -0.168 SA
BRANCH  16  17
HETATM   17  C3  UNL     1      27.756  15.657  33.686  1.00  0.00     0.081 C 
BRANCH  17  18
HETATM   18  C2  UNL     1      26.639  14.744  33.226  1.00  0.00     0.086 C 
BRANCH  18  19
HETATM   19  C1  UNL     1      25.693  14.367  34.269  1.00  0.00     0.077 C 
HETATM   20  N1  UNL     1      24.609  13.727  34.017  1.00  0.00    -0.389 N 
ATOM     21  H12 UNL     1      24.421  13.495  33.042  1.00  0.00     0.157 HD
ATOM     22  H11 UNL     1      23.947  13.463  34.747  1.00  0.00     0.157 HD
BRANCH  19  23
HETATM   23  N7  UNL     1      25.954  14.688  35.619  1.00  0.00    -0.323 N 
HETATM   24  C21 UNL     1      25.376  15.567  36.328  1.00  0.00     0.202 C 
HETATM   25  N8  UNL     1      24.329  16.415  35.871  1.00  0.00    -0.066 NA
HETATM   26  N9  UNL     1      25.786  15.749  37.700  1.00  0.00    -0.066 NA
ATOM     27  H7  UNL     1      26.691  14.152  36.077  1.00  0.00     0.169 HD
ENDBRANCH  19  23
ENDBRANCH  18  19
ENDBRANCH  17  18
ENDBRANCH  16  17
ENDBRANCH  15  16
ENDBRANCH   1  15
BRANCH   7  28
HETATM   28  N3  UNL     1      29.587   9.706  29.417  1.00  0.00    -0.355 N 
HETATM   29  C11 UNL     1      28.617   8.683  29.316  1.00  0.00     0.219 C 
HETATM   30  O1  UNL     1      27.466   8.855  29.778  1.00  0.00    -0.274 OA
ATOM     31  H3  UNL     1      30.512   9.524  29.028  1.00  0.00     0.162 HD
BRANCH  29  32
HETATM   32  C12 UNL     1      28.964   7.411  28.663  1.00  0.00     0.133 C 
BRANCH  32  33
HETATM   33  C13 UNL     1      30.406   7.467  28.208  1.00  0.00     0.281 C 
BRANCH  33  34
HETATM   34  N4  UNL     1      30.732   6.189  27.626  1.00  0.00     0.092 N 
HETATM   35  C14 UNL     1      29.925   5.097  28.092  1.00  0.00     0.300 C 
HETATM   36  C15 UNL     1      30.562   4.262  29.155  1.00  0.00     0.262 C 
HETATM   37  N5  UNL     1      31.902   3.842  28.897  1.00  0.00    -0.072 N 
HETATM   38  C16 UNL     1      32.417   4.414  27.685  1.00  0.00     0.262 C 
ATOM     39  H52 UNL     1      32.512   4.042  29.689  1.00  0.00     0.277 HD
ATOM     40  H51 UNL     1      31.978   2.825  28.889  1.00  0.00     0.277 HD
HETATM   41  C17 UNL     1      32.143   5.902  27.642  1.00  0.00     0.300 C 
ENDBRANCH  33  34
ENDBRANCH  32  33
ENDBRANCH  29  32
ENDBRANCH   7  28
TORSDOF 12
ENDMDL
MODEL 5
REMARK VINA RESULT: -6.054992998      4.488      8.328
REMARK  12 active torsions:
REMARK  status: ('A' for Active; 'I' for Inactive)
REMARK    1  A    between atoms: C1_4  and  C2_5 
REMARK    2  A    between atoms: C1_4  and  N7_37 
REMARK    3  A    between atoms: C2_5  and  C3_6 
REMARK    4  A    between atoms: C3_6  and  S1_7 
REMARK    5  A    between atoms: S1_7  and  C4_8 
REMARK    6  A    between atoms: C4_8  and  C5_9 
REMARK    7  A    between atoms: C10_15  and  N3_16 
REMARK       I    between atoms: N3_16  and  C11_18 
REMARK    8  A    between atoms: C11_18  and  C12_20 
REMARK    9  A    between atoms: C12_20  and  C13_21 
REMARK   10  A    between atoms: C13_21  and  N4_22 
REMARK   11  A    between atoms: C19_31  and  C20_32 
REMARK   12  A    between atoms: C20_32  and  N6_33 
ROOT
HETATM    1  C5  UNL     1      31.738  12.317  29.037  1.00  0.00     0.022 C 
HETATM    2  C6  UNL     1      31.951  11.687  30.389  1.00  0.00     0.035 C 
HETATM    3  C7  UNL     1      30.857  10.641  30.410  1.00  0.00     0.238 C 
HETATM    4  N2  UNL     1      29.746  11.357  29.825  1.00  0.00    -0.059 N 
HETATM    5  C8  UNL     1      30.273  12.107  28.733  1.00  0.00     0.243 C 
HETATM    6  C9  UNL     1      29.126  12.217  30.803  1.00  0.00     0.263 C 
HETATM    7  C10 UNL     1      27.806  12.558  30.146  1.00  0.00     0.112 C 
HETATM    8  C18 UNL     1      27.533  11.435  29.186  1.00  0.00     0.062 C 
HETATM    9  C19 UNL     1      28.694  10.491  29.379  1.00  0.00     0.218 C 
ENDROOT
BRANCH   9  10
HETATM   10  C20 UNL     1      28.337   9.464  30.408  1.00  0.00     0.263 C 
BRANCH  10  11
HETATM   11  N6  UNL     1      27.957   8.197  29.817  1.00  0.00    -0.077 N 
ATOM     12  H63 UNL     1      28.460   8.033  28.945  1.00  0.00     0.274 HD
ATOM     13  H62 UNL     1      28.317   7.414  30.364  1.00  0.00     0.274 HD
ATOM     14  H61 UNL     1      26.950   8.116  29.681  1.00  0.00     0.274 HD
ENDBRANCH  10  11
ENDBRANCH   9  10
BRANCH   1  15
HETATM   15  C4  UNL     1      32.610  11.699  27.970  1.00  0.00     0.080 C 
BRANCH  15  16
HETATM   16  S1  UNL     1      31.732  11.191  26.503  1.00  0.00    -0.168 SA
BRANCH  16  17
HETATM   17  C3  UNL     1      31.914   9.426  26.193  1.00  0.00     0.081 C 
BRANCH  17  18
HETATM   18  C2  UNL     1      30.816   8.622  26.858  1.00  0.00     0.086 C 
BRANCH  18  19
HETATM   19  C1  UNL     1      31.272   7.419  27.542  1.00  0.00     0.077 C 
HETATM   20  N1  UNL     1      32.412   6.880  27.302  1.00  0.00    -0.389 N 
ATOM     21  H12 UNL     1      32.997   7.324  26.593  1.00  0.00     0.157 HD
ATOM     22  H11 UNL     1      32.732   6.038  27.780  1.00  0.00     0.157 HD
BRANCH  19  23
HETATM   23  N7  UNL     1      30.463   6.805  28.523  1.00  0.00    -0.323 N 
HETATM   24  C21 UNL     1      30.128   5.584  28.591  1.00  0.00     0.202 C 
HETATM   25  N8  UNL     1      30.520   4.583  27.658  1.00  0.00    -0.066 NA
HETATM   26  N9  UNL     1      29.287   5.142  29.678  1.00  0.00    -0.066 NA
ATOM     27  H7  UNL     1      30.107   7.413  29.261  1.00  0.00     0.169 HD
ENDBRANCH  19  23
ENDBRANCH  18  19
ENDBRANCH  17  18
ENDBRANCH  16  17
ENDBRANCH  15  16
ENDBRANCH   1  15
BRANCH   7  28
HETATM   28  N3  UNL     1      26.804  12.677  31.169  1.00  0.00    -0.355 N 
HETATM   29  C11 UNL     1      25.699  13.557  31.108  1.00  0.00     0.219 C 
HETATM   30  O1  UNL     1      25.540  14.304  30.115  1.00  0.00    -0.274 OA
ATOM     31  H3  UNL     1      26.896  12.087  31.995  1.00  0.00     0.162 HD
BRANCH  29  32
HETATM   32  C12 UNL     1      24.733  13.593  32.217  1.00  0.00     0.133 C 
BRANCH  32  33
HETATM   33  C13 UNL     1      25.487  13.593  33.529  1.00  0.00     0.281 C 
BRANCH  33  34
HETATM   34  N4  UNL     1      25.700  14.967  33.912  1.00  0.00     0.092 N 
HETATM   35  C14 UNL     1      26.364  15.139  35.174  1.00  0.00     0.300 C 
HETATM   36  C15 UNL     1      25.453  15.437  36.321  1.00  0.00     0.262 C 
HETATM   37  N5  UNL     1      24.488  16.466  36.098  1.00  0.00    -0.072 N 
HETATM   38  C16 UNL     1      24.519  16.944  34.744  1.00  0.00     0.262 C 
ATOM     39  H52 UNL     1      23.552  16.160  36.362  1.00  0.00     0.277 HD
ATOM     40  H51 UNL     1      24.601  17.230  36.763  1.00  0.00     0.277 HD
HETATM   41  C17 UNL     1      24.522  15.783  33.772  1.00  0.00     0.300 C 
ENDBRANCH  33  34
ENDBRANCH  32  33
ENDBRANCH  29  32
ENDBRANCH   7  28
TORSDOF 12
ENDMDL
