MODEL 1
REMARK VINA RESULT: -6.097987134      0.000      0.000
REMARK  3 active torsions:
REMARK  status: ('A' for Active; 'I' for Inactive)
REMARK    1  A    between atoms: C2_2  and  N1_3 
REMARK       I    between atoms: N1_3  and  C3_5 
REMARK    2  A    between atoms: C3_5  and  C4_7 
REMARK    3  A    between atoms: C4_7  and  N2_8 
ROOT
HETATM    1  C4  UNL     1      30.365  24.688  87.831  1.00  0.00     0.275 C 
HETATM    2  C5  UNL     1      30.181  23.210  87.586  1.00  0.00     0.179 C 
HETATM    3  N3  UNL     1      29.029  22.724  88.253  1.00  0.00    -0.361 N 
ATOM      4  H3  UNL     1      28.589  21.906  87.833  1.00  0.00     0.162 HD
HETATM    5  C6  UNL     1      28.466  23.174  89.314  1.00  0.00     0.192 C 
HETATM    6  N4  UNL     1      27.309  22.626  89.922  1.00  0.00    -0.063 NA
HETATM    7  N5  UNL     1      29.089  24.339  89.900  1.00  0.00    -0.309 N 
HETATM    8  C7  UNL     1      28.483  24.879  91.102  1.00  0.00     0.135 C 
HETATM    9  C8  UNL     1      29.373  25.894  91.772  1.00  0.00     0.040 C 
HETATM   10  C9  UNL     1      30.838  25.680  91.460  1.00  0.00     0.122 C 
HETATM   11  N6  UNL     1      31.074  25.540  90.033  1.00  0.00    -0.377 N 
ATOM     12  H6  UNL     1      31.910  25.952  89.616  1.00  0.00     0.160 HD
HETATM   13  C10 UNL     1      30.247  24.905  89.293  1.00  0.00     0.130 C 
ENDROOT
BRANCH   1  14
HETATM   14  C3  UNL     1      31.679  25.168  87.313  1.00  0.00     0.263 C 
HETATM   15  N1  UNL     1      32.791  24.305  87.162  1.00  0.00    -0.359 N 
ATOM     16  H1  UNL     1      32.694  23.322  87.415  1.00  0.00     0.162 HD
HETATM   17  O1  UNL     1      31.800  26.364  87.004  1.00  0.00    -0.270 OA
BRANCH  15  18
HETATM   18  C2  UNL     1      34.060  24.776  86.659  1.00  0.00     0.118 C 
HETATM   19  C1  UNL     1      34.617  23.926  85.569  1.00  0.00     0.026 C 
ENDBRANCH  15  18
ENDBRANCH   1  14
BRANCH   1  20
HETATM   20  N2  UNL     1      29.338  25.396  87.100  1.00  0.00    -0.053 N 
ATOM     21  H23 UNL     1      29.104  24.956  86.210  1.00  0.00     0.276 HD
ATOM     22  H22 UNL     1      28.416  25.320  87.530  1.00  0.00     0.276 HD
ATOM     23  H21 UNL     1      29.655  26.360  86.999  1.00  0.00     0.276 HD
ENDBRANCH   1  20
TORSDOF 3
ENDMDL
MODEL 2
REMARK VINA RESULT: -6.022015641      1.838      2.940
REMARK  3 active torsions:
REMARK  status: ('A' for Active; 'I' for Inactive)
REMARK    1  A    between atoms: C2_2  and  N1_3 
REMARK       I    between atoms: N1_3  and  C3_5 
REMARK    2  A    between atoms: C3_5  and  C4_7 
REMARK    3  A    between atoms: C4_7  and  N2_8 
ROOT
HETATM    1  C4  UNL     1      31.497  24.819  87.627  1.00  0.00     0.275 C 
HETATM    2  C5  UNL     1      30.906  25.713  86.564  1.00  0.00     0.179 C 
HETATM    3  N3  UNL     1      30.094  26.720  87.141  1.00  0.00    -0.361 N 
ATOM      4  H3  UNL     1      30.010  27.581  86.601  1.00  0.00     0.162 HD
HETATM    5  C6  UNL     1      29.450  26.695  88.250  1.00  0.00     0.192 C 
HETATM    6  N4  UNL     1      28.653  27.751  88.758  1.00  0.00    -0.063 NA
HETATM    7  N5  UNL     1      29.581  25.476  89.015  1.00  0.00    -0.309 N 
HETATM    8  C7  UNL     1      28.867  25.406  90.276  1.00  0.00     0.135 C 
HETATM    9  C8  UNL     1      28.843  24.005  90.831  1.00  0.00     0.040 C 
HETATM   10  C9  UNL     1      28.976  22.950  89.755  1.00  0.00     0.122 C 
HETATM   11  N6  UNL     1      30.098  23.214  88.870  1.00  0.00    -0.377 N 
ATOM     12  H6  UNL     1      30.664  22.438  88.525  1.00  0.00     0.160 HD
HETATM   13  C10 UNL     1      30.386  24.409  88.519  1.00  0.00     0.130 C 
ENDROOT
BRANCH   1  14
HETATM   14  C3  UNL     1      32.180  23.636  87.028  1.00  0.00     0.263 C 
HETATM   15  N1  UNL     1      32.204  23.405  85.631  1.00  0.00    -0.359 N 
ATOM     16  H1  UNL     1      31.740  24.069  85.012  1.00  0.00     0.162 HD
HETATM   17  O1  UNL     1      32.745  22.826  87.781  1.00  0.00    -0.270 OA
BRANCH  15  18
HETATM   18  C2  UNL     1      32.867  22.258  85.058  1.00  0.00     0.118 C 
HETATM   19  C1  UNL     1      34.286  22.519  84.687  1.00  0.00     0.026 C 
ENDBRANCH  15  18
ENDBRANCH   1  14
BRANCH   1  20
HETATM   20  N2  UNL     1      32.505  25.573  88.339  1.00  0.00    -0.053 N 
ATOM     21  H23 UNL     1      32.714  25.192  89.262  1.00  0.00     0.276 HD
ATOM     22  H22 UNL     1      33.439  25.470  87.940  1.00  0.00     0.276 HD
ATOM     23  H21 UNL     1      32.187  26.542  88.368  1.00  0.00     0.276 HD
ENDBRANCH   1  20
TORSDOF 3
ENDMDL
MODEL 3
REMARK VINA RESULT: -6.000828356      2.459      5.646
REMARK  3 active torsions:
REMARK  status: ('A' for Active; 'I' for Inactive)
REMARK    1  A    between atoms: C2_2  and  N1_3 
REMARK       I    between atoms: N1_3  and  C3_5 
REMARK    2  A    between atoms: C3_5  and  C4_7 
REMARK    3  A    between atoms: C4_7  and  N2_8 
ROOT
HETATM    1  C4  UNL     1      32.139  24.067  86.884  1.00  0.00     0.275 C 
HETATM    2  C5  UNL     1      31.172  23.819  85.751  1.00  0.00     0.179 C 
HETATM    3  N3  UNL     1      31.664  22.822  84.873  1.00  0.00    -0.361 N 
ATOM      4  H3  UNL     1      30.956  22.295  84.364  1.00  0.00     0.162 HD
HETATM    5  C6  UNL     1      32.880  22.492  84.633  1.00  0.00     0.192 C 
HETATM    6  N4  UNL     1      33.291  21.477  83.733  1.00  0.00    -0.063 NA
HETATM    7  N5  UNL     1      33.880  23.236  85.365  1.00  0.00    -0.309 N 
HETATM    8  C7  UNL     1      35.269  22.894  85.121  1.00  0.00     0.135 C 
HETATM    9  C8  UNL     1      36.209  23.914  85.709  1.00  0.00     0.040 C 
HETATM   10  C9  UNL     1      35.576  25.282  85.842  1.00  0.00     0.122 C 
HETATM   11  N6  UNL     1      34.284  25.221  86.504  1.00  0.00    -0.377 N 
ATOM     12  H6  UNL     1      34.015  25.958  87.156  1.00  0.00     0.160 HD
HETATM   13  C10 UNL     1      33.480  24.253  86.279  1.00  0.00     0.130 C 
ENDROOT
BRANCH   1  14
HETATM   14  C3  UNL     1      31.738  25.253  87.694  1.00  0.00     0.263 C 
HETATM   15  N1  UNL     1      31.452  25.161  89.078  1.00  0.00    -0.359 N 
ATOM     16  H1  UNL     1      31.524  24.254  89.539  1.00  0.00     0.162 HD
HETATM   17  O1  UNL     1      31.650  26.359  87.135  1.00  0.00    -0.270 OA
BRANCH  15  18
HETATM   18  C2  UNL     1      31.064  26.313  89.857  1.00  0.00     0.118 C 
HETATM   19  C1  UNL     1      32.200  26.943  90.587  1.00  0.00     0.026 C 
ENDBRANCH  15  18
ENDBRANCH   1  14
BRANCH   1  20
HETATM   20  N2  UNL     1      32.102  22.921  87.765  1.00  0.00    -0.053 N 
ATOM     21  H23 UNL     1      32.369  22.052  87.303  1.00  0.00     0.276 HD
ATOM     22  H22 UNL     1      32.845  22.930  88.465  1.00  0.00     0.276 HD
ATOM     23  H21 UNL     1      31.168  22.888  88.172  1.00  0.00     0.276 HD
ENDBRANCH   1  20
TORSDOF 3
ENDMDL
MODEL 4
REMARK VINA RESULT: -5.827373782      1.760      2.279
REMARK  3 active torsions:
REMARK  status: ('A' for Active; 'I' for Inactive)
REMARK    1  A    between atoms: C2_2  and  N1_3 
REMARK       I    between atoms: N1_3  and  C3_5 
REMARK    2  A    between atoms: C3_5  and  C4_7 
REMARK    3  A    between atoms: C4_7  and  N2_8 
ROOT
HETATM    1  C4  UNL     1      29.843  25.426  88.676  1.00  0.00     0.275 C 
HETATM    2  C5  UNL     1      29.533  24.091  89.311  1.00  0.00     0.179 C 
HETATM    3  N3  UNL     1      28.837  24.260  90.533  1.00  0.00    -0.361 N 
ATOM      4  H3  UNL     1      28.232  23.486  90.806  1.00  0.00     0.162 HD
HETATM    5  C6  UNL     1      28.865  25.254  91.343  1.00  0.00     0.192 C 
HETATM    6  N4  UNL     1      28.135  25.344  92.554  1.00  0.00    -0.063 NA
HETATM    7  N5  UNL     1      29.717  26.352  90.947  1.00  0.00    -0.309 N 
HETATM    8  C7  UNL     1      29.778  27.497  91.836  1.00  0.00     0.135 C 
HETATM    9  C8  UNL     1      30.902  28.432  91.471  1.00  0.00     0.040 C 
HETATM   10  C9  UNL     1      32.029  27.733  90.744  1.00  0.00     0.122 C 
HETATM   11  N6  UNL     1      31.544  26.931  89.632  1.00  0.00    -0.377 N 
ATOM     12  H6  UNL     1      32.083  26.890  88.767  1.00  0.00     0.160 HD
HETATM   13  C10 UNL     1      30.450  26.277  89.727  1.00  0.00     0.130 C 
ENDROOT
BRANCH   1  14
HETATM   14  C3  UNL     1      30.752  25.275  87.504  1.00  0.00     0.263 C 
HETATM   15  N1  UNL     1      31.507  24.097  87.281  1.00  0.00    -0.359 N 
ATOM     16  H1  UNL     1      31.428  23.325  87.942  1.00  0.00     0.162 HD
HETATM   17  O1  UNL     1      30.850  26.214  86.697  1.00  0.00    -0.270 OA
BRANCH  15  18
HETATM   18  C2  UNL     1      32.386  23.958  86.144  1.00  0.00     0.118 C 
HETATM   19  C1  UNL     1      32.053  22.791  85.279  1.00  0.00     0.026 C 
ENDBRANCH  15  18
ENDBRANCH   1  14
BRANCH   1  20
HETATM   20  N2  UNL     1      28.605  25.986  88.181  1.00  0.00    -0.053 N 
ATOM     21  H23 UNL     1      27.846  25.306  88.141  1.00  0.00     0.276 HD
ATOM     22  H22 UNL     1      28.167  26.632  88.838  1.00  0.00     0.276 HD
ATOM     23  H21 UNL     1      28.810  26.412  87.277  1.00  0.00     0.276 HD
ENDBRANCH   1  20
TORSDOF 3
ENDMDL
MODEL 5
REMARK VINA RESULT: -5.720430824      2.284      3.026
REMARK  3 active torsions:
REMARK  status: ('A' for Active; 'I' for Inactive)
REMARK    1  A    between atoms: C2_2  and  N1_3 
REMARK       I    between atoms: N1_3  and  C3_5 
REMARK    2  A    between atoms: C3_5  and  C4_7 
REMARK    3  A    between atoms: C4_7  and  N2_8 
ROOT
HETATM    1  C4  UNL     1      30.174  25.666  88.722  1.00  0.00     0.275 C 
HETATM    2  C5  UNL     1      28.797  25.215  89.146  1.00  0.00     0.179 C 
HETATM    3  N3  UNL     1      28.081  26.276  89.755  1.00  0.00    -0.361 N 
ATOM      4  H3  UNL     1      27.065  26.219  89.682  1.00  0.00     0.162 HD
HETATM    5  C6  UNL     1      28.536  27.296  90.384  1.00  0.00     0.192 C 
HETATM    6  N4  UNL     1      27.747  28.318  90.967  1.00  0.00    -0.063 NA
HETATM    7  N5  UNL     1      29.977  27.376  90.474  1.00  0.00    -0.309 N 
HETATM    8  C7  UNL     1      30.533  28.515  91.178  1.00  0.00     0.135 C 
HETATM    9  C8  UNL     1      32.004  28.340  91.456  1.00  0.00     0.040 C 
HETATM   10  C9  UNL     1      32.414  26.885  91.529  1.00  0.00     0.122 C 
HETATM   11  N6  UNL     1      31.935  26.128  90.384  1.00  0.00    -0.377 N 
ATOM     12  H6  UNL     1      32.527  25.404  89.974  1.00  0.00     0.160 HD
HETATM   13  C10 UNL     1      30.782  26.360  89.883  1.00  0.00     0.130 C 
ENDROOT
BRANCH   1  14
HETATM   14  C3  UNL     1      31.011  24.516  88.274  1.00  0.00     0.263 C 
HETATM   15  N1  UNL     1      31.788  24.563  87.091  1.00  0.00    -0.359 N 
ATOM     16  H1  UNL     1      31.776  25.410  86.524  1.00  0.00     0.162 HD
HETATM   17  O1  UNL     1      31.026  23.483  88.963  1.00  0.00    -0.270 OA
BRANCH  15  18
HETATM   18  C2  UNL     1      32.595  23.445  86.663  1.00  0.00     0.118 C 
HETATM   19  C1  UNL     1      32.091  22.791  85.423  1.00  0.00     0.026 C 
ENDBRANCH  15  18
ENDBRANCH   1  14
BRANCH   1  20
HETATM   20  N2  UNL     1      30.028  26.550  87.587  1.00  0.00    -0.053 N 
ATOM     21  H23 UNL     1      29.076  26.898  87.471  1.00  0.00     0.276 HD
ATOM     22  H22 UNL     1      30.482  27.454  87.722  1.00  0.00     0.276 HD
ATOM     23  H21 UNL     1      30.372  26.045  86.770  1.00  0.00     0.276 HD
ENDBRANCH   1  20
TORSDOF 3
ENDMDL
