MODEL 1
REMARK VINA RESULT: -6.225580661      0.000      0.000
REMARK  2 active torsions:
REMARK  status: ('A' for Active; 'I' for Inactive)
REMARK       I    between atoms: C1_2  and  N2_4 
REMARK    1  A    between atoms: N2_4  and  C2_6 
REMARK    2  A    between atoms: N5_13  and  N6_14 
ROOT
HETATM    1  C2  UNL     1      -1.015   9.838  10.146  1.00  0.00     0.726 A 
HETATM    2  N3  UNL     1      -1.476   8.999   9.207  1.00  0.00    -0.126 N 
ATOM      3  H3  UNL     1      -1.949   8.112   9.382  1.00  0.00     0.206 HD
HETATM    4  N4  UNL     1      -1.216   9.513   8.020  1.00  0.00    -0.235 N 
ATOM      5  H4  UNL     1      -1.454   9.093   7.121  1.00  0.00     0.192 HD
HETATM    6  C3  UNL     1      -0.586  10.684   8.197  1.00  0.00     0.375 A 
HETATM    7  O2  UNL     1      -0.167  11.488   7.298  1.00  0.00    -0.243 OA
HETATM    8  N5  UNL     1      -0.465  10.881   9.512  1.00  0.00    -0.035 N 
ENDROOT
BRANCH   1   9
HETATM    9  N2  UNL     1      -1.101   9.646  11.579  1.00  0.00    -0.140 N 
HETATM   10  C1  UNL     1      -0.633   8.451  12.140  1.00  0.00     0.347 C 
HETATM   11  N1  UNL     1      -0.077   7.415  11.349  1.00  0.00    -0.039 NA
HETATM   12  O1  UNL     1      -0.717   8.301  13.396  1.00  0.00    -0.250 OA
ATOM     13  H2  UNL     1      -1.497  10.373  12.174  1.00  0.00     0.189 HD
ENDBRANCH   1   9
BRANCH   8  14
HETATM   14  N6  UNL     1       0.140  11.993  10.163  1.00  0.00    -0.320 N 
ATOM     15  H62 UNL     1      -0.329  12.822  10.528  1.00  0.00     0.178 HD
ATOM     16  H61 UNL     1       1.140  12.085  10.340  1.00  0.00     0.178 HD
ENDBRANCH   8  14
TORSDOF 2
ENDMDL
MODEL 2
REMARK VINA RESULT: -6.180284854      1.370      4.633
REMARK  2 active torsions:
REMARK  status: ('A' for Active; 'I' for Inactive)
REMARK       I    between atoms: C1_2  and  N2_4 
REMARK    1  A    between atoms: N2_4  and  C2_6 
REMARK    2  A    between atoms: N5_13  and  N6_14 
ROOT
HETATM    1  C2  UNL     1      -0.703   9.143  10.054  1.00  0.00     0.726 A 
HETATM    2  N3  UNL     1      -0.887   9.914  11.136  1.00  0.00    -0.126 N 
ATOM      3  H3  UNL     1      -0.773  10.927  11.172  1.00  0.00     0.206 HD
HETATM    4  N4  UNL     1      -1.238   9.141  12.147  1.00  0.00    -0.235 N 
ATOM      5  H4  UNL     1      -1.443   9.455  13.096  1.00  0.00     0.192 HD
HETATM    6  C3  UNL     1      -1.279   7.872  11.713  1.00  0.00     0.375 A 
HETATM    7  O2  UNL     1      -1.576   6.829  12.384  1.00  0.00    -0.243 OA
HETATM    8  N5  UNL     1      -0.949   7.879  10.419  1.00  0.00    -0.035 N 
ENDROOT
BRANCH   1   9
HETATM    9  N2  UNL     1      -0.312   9.602   8.736  1.00  0.00    -0.140 N 
HETATM   10  C1  UNL     1      -1.125  10.521   8.062  1.00  0.00     0.347 C 
HETATM   11  N1  UNL     1      -2.325  11.021   8.625  1.00  0.00    -0.039 NA
HETATM   12  O1  UNL     1      -0.766  10.910   6.909  1.00  0.00    -0.250 OA
ATOM     13  H2  UNL     1       0.546   9.259   8.305  1.00  0.00     0.189 HD
ENDBRANCH   1   9
BRANCH   8  14
HETATM   14  N6  UNL     1      -0.862   6.757   9.549  1.00  0.00    -0.320 N 
ATOM     15  H62 UNL     1      -1.406   6.590   8.702  1.00  0.00     0.178 HD
ATOM     16  H61 UNL     1      -0.226   5.970   9.682  1.00  0.00     0.178 HD
ENDBRANCH   8  14
TORSDOF 2
ENDMDL
MODEL 3
REMARK VINA RESULT: -6.116766095      1.699      4.162
REMARK  2 active torsions:
REMARK  status: ('A' for Active; 'I' for Inactive)
REMARK       I    between atoms: C1_2  and  N2_4 
REMARK    1  A    between atoms: N2_4  and  C2_6 
REMARK    2  A    between atoms: N5_13  and  N6_14 
ROOT
HETATM    1  C2  UNL     1      -0.018   9.366   9.675  1.00  0.00     0.726 A 
HETATM    2  N3  UNL     1       0.258   8.482   8.704  1.00  0.00    -0.126 N 
ATOM      3  H3  UNL     1       0.651   8.705   7.790  1.00  0.00     0.206 HD
HETATM    4  N4  UNL     1      -0.065   7.275   9.130  1.00  0.00    -0.235 N 
ATOM      5  H4  UNL     1       0.036   6.408   8.603  1.00  0.00     0.192 HD
HETATM    6  C3  UNL     1      -0.550   7.385  10.377  1.00  0.00     0.375 A 
HETATM    7  O2  UNL     1      -0.970   6.448  11.134  1.00  0.00    -0.243 OA
HETATM    8  N5  UNL     1      -0.517   8.678  10.709  1.00  0.00    -0.035 N 
ENDROOT
BRANCH   1   9
HETATM    9  N2  UNL     1       0.191  10.798   9.609  1.00  0.00    -0.140 N 
HETATM   10  C1  UNL     1      -0.163  11.489   8.445  1.00  0.00     0.347 C 
HETATM   11  N1  UNL     1      -0.720  10.833   7.319  1.00  0.00    -0.039 NA
HETATM   12  O1  UNL     1       0.028  12.743   8.406  1.00  0.00    -0.250 OA
ATOM     13  H2  UNL     1       0.591  11.297  10.403  1.00  0.00     0.189 HD
ENDBRANCH   1   9
BRANCH   8  14
HETATM   14  N6  UNL     1      -0.934   9.260  11.939  1.00  0.00    -0.320 N 
ATOM     15  H62 UNL     1      -1.888   9.333  12.293  1.00  0.00     0.178 HD
ATOM     16  H61 UNL     1      -0.304   9.683  12.620  1.00  0.00     0.178 HD
ENDBRANCH   8  14
TORSDOF 2
ENDMDL
MODEL 4
REMARK VINA RESULT: -6.107345859      1.842      2.500
REMARK  2 active torsions:
REMARK  status: ('A' for Active; 'I' for Inactive)
REMARK       I    between atoms: C1_2  and  N2_4 
REMARK    1  A    between atoms: N2_4  and  C2_6 
REMARK    2  A    between atoms: N5_13  and  N6_14 
ROOT
HETATM    1  C2  UNL     1      -0.865   9.702   9.483  1.00  0.00     0.726 A 
HETATM    2  N3  UNL     1      -0.446  10.304  10.605  1.00  0.00    -0.126 N 
ATOM      3  H3  UNL     1      -0.403   9.876  11.530  1.00  0.00     0.206 HD
HETATM    4  N4  UNL     1      -0.097  11.543  10.312  1.00  0.00    -0.235 N 
ATOM      5  H4  UNL     1       0.261  12.235  10.971  1.00  0.00     0.192 HD
HETATM    6  C3  UNL     1      -0.294  11.737   8.999  1.00  0.00     0.375 A 
HETATM    7  O2  UNL     1      -0.077  12.799   8.327  1.00  0.00    -0.243 OA
HETATM    8  N5  UNL     1      -0.767  10.596   8.491  1.00  0.00    -0.035 N 
ENDROOT
BRANCH   1   9
HETATM    9  N2  UNL     1      -1.334   8.336   9.371  1.00  0.00    -0.140 N 
HETATM   10  C1  UNL     1      -0.514   7.291   9.814  1.00  0.00     0.347 C 
HETATM   11  N1  UNL     1       0.768   7.524  10.371  1.00  0.00    -0.039 NA
HETATM   12  O1  UNL     1      -0.942   6.102   9.708  1.00  0.00    -0.250 OA
ATOM     13  H2  UNL     1      -2.252   8.137   8.974  1.00  0.00     0.189 HD
ENDBRANCH   1   9
BRANCH   8  14
HETATM   14  N6  UNL     1      -1.119  10.339   7.136  1.00  0.00    -0.320 N 
ATOM     15  H62 UNL     1      -0.957  10.946   6.332  1.00  0.00     0.178 HD
ATOM     16  H61 UNL     1      -1.587   9.494   6.811  1.00  0.00     0.178 HD
ENDBRANCH   8  14
TORSDOF 2
ENDMDL
MODEL 5
REMARK VINA RESULT: -6.034792335      0.826      1.834
REMARK  2 active torsions:
REMARK  status: ('A' for Active; 'I' for Inactive)
REMARK       I    between atoms: C1_2  and  N2_4 
REMARK    1  A    between atoms: N2_4  and  C2_6 
REMARK    2  A    between atoms: N5_13  and  N6_14 
ROOT
HETATM    1  C2  UNL     1      -1.022  10.415  10.187  1.00  0.00     0.726 A 
HETATM    2  N3  UNL     1      -0.051  11.339  10.140  1.00  0.00    -0.126 N 
ATOM      3  H3  UNL     1       0.438  11.730  10.945  1.00  0.00     0.206 HD
HETATM    4  N4  UNL     1       0.165  11.658   8.878  1.00  0.00    -0.235 N 
ATOM      5  H4  UNL     1       0.850  12.336   8.541  1.00  0.00     0.192 HD
HETATM    6  C3  UNL     1      -0.670  10.939   8.113  1.00  0.00     0.375 A 
HETATM    7  O2  UNL     1      -0.772  10.957   6.841  1.00  0.00    -0.243 OA
HETATM    8  N5  UNL     1      -1.400  10.172   8.926  1.00  0.00    -0.035 N 
ENDROOT
BRANCH   1   9
HETATM    9  N2  UNL     1      -1.557   9.799  11.384  1.00  0.00    -0.140 N 
HETATM   10  C1  UNL     1      -0.940   8.653  11.899  1.00  0.00     0.347 C 
HETATM   11  N1  UNL     1       0.196   8.069  11.285  1.00  0.00    -0.039 NA
HETATM   12  O1  UNL     1      -1.423   8.127  12.947  1.00  0.00    -0.250 OA
ATOM     13  H2  UNL     1      -2.375  10.196  11.847  1.00  0.00     0.189 HD
ENDBRANCH   1   9
BRANCH   8  14
HETATM   14  N6  UNL     1      -2.415   9.246   8.553  1.00  0.00    -0.320 N 
ATOM     15  H62 UNL     1      -2.768   8.464   9.105  1.00  0.00     0.178 HD
ATOM     16  H61 UNL     1      -2.914   9.263   7.663  1.00  0.00     0.178 HD
ENDBRANCH   8  14
TORSDOF 2
ENDMDL
