MODEL 1
REMARK VINA RESULT: -7.811254428      0.000      0.000
REMARK  7 active torsions:
REMARK  status: ('A' for Active; 'I' for Inactive)
REMARK    1  A    between atoms: C3_3  and  N1_4 
REMARK    2  A    between atoms: C8_16  and  C10_19 
REMARK    3  A    between atoms: C10_19  and  N5_20 
REMARK    4  A    between atoms: C10_19  and  N8_25 
REMARK    5  A    between atoms: N8_25  and  C12_28 
REMARK    6  A    between atoms: C12_28  and  N9_29 
REMARK    7  A    between atoms: C12_28  and  O3_33 
ROOT
HETATM    1  C1  UNL     1      61.940  41.990  42.934  1.00  0.00     0.018 C 
HETATM    2  C2  UNL     1      61.480  41.212  42.168  1.00  0.00    -0.071 C 
HETATM    3  C3  UNL     1      60.922  40.246  41.252  1.00  0.00     0.179 C 
ENDROOT
BRANCH   3   4
HETATM    4  N1  UNL     1      61.869  39.715  40.363  1.00  0.00    -0.145 N 
HETATM    5  C4  UNL     1      62.704  38.610  40.799  1.00  0.00     0.686 A 
HETATM    6  N2  UNL     1      62.486  38.181  41.976  1.00  0.00    -0.234 N 
HETATM    7  N3  UNL     1      63.706  38.004  40.025  1.00  0.00    -0.152 N 
ATOM      8  H22 UNL     1      61.758  38.621  42.539  1.00  0.00     0.174 HD
ATOM      9  H21 UNL     1      63.073  37.405  42.282  1.00  0.00     0.174 HD
HETATM   10  C5  UNL     1      63.951  38.470  38.737  1.00  0.00     0.312 A 
ATOM     11  H3  UNL     1      64.251  37.229  40.404  1.00  0.00     0.187 HD
HETATM   12  O1  UNL     1      64.852  37.923  38.056  1.00  0.00    -0.263 OA
HETATM   13  C6  UNL     1      63.144  39.591  38.217  1.00  0.00     0.268 A 
HETATM   14  O2  UNL     1      63.465  39.914  37.062  1.00  0.00    -0.280 OA
HETATM   15  C7  UNL     1      62.080  40.220  39.051  1.00  0.00     0.133 A 
HETATM   16  C8  UNL     1      61.385  41.140  38.444  1.00  0.00     0.104 C 
HETATM   17  C9  UNL     1      60.225  41.847  39.011  1.00  0.00     0.101 C 
HETATM   18  N4  UNL     1      59.281  42.433  39.409  1.00  0.00    -0.191 NA
BRANCH  16  19
HETATM   19  C10 UNL     1      61.626  41.685  37.056  1.00  0.00     0.338 C 
BRANCH  19  20
HETATM   20  N5  UNL     1      62.545  42.734  37.030  1.00  0.00    -0.335 N 
HETATM   21  C11 UNL     1      62.599  43.943  37.228  1.00  0.00     0.198 C 
HETATM   22  N6  UNL     1      61.521  44.765  37.616  1.00  0.00    -0.067 NA
HETATM   23  N7  UNL     1      63.872  44.595  37.052  1.00  0.00    -0.067 NA
ATOM     24  H5  UNL     1      63.464  42.385  36.760  1.00  0.00     0.164 HD
ENDBRANCH  19  20
BRANCH  19  25
HETATM   25  N8  UNL     1      60.334  42.152  36.480  1.00  0.00     0.003 N 
ATOM     26  H82 UNL     1      59.582  41.486  36.657  1.00  0.00     0.285 HD
ATOM     27  H81 UNL     1      59.959  42.949  36.994  1.00  0.00     0.285 HD
BRANCH  25  28
HETATM   28  C12 UNL     1      60.466  42.442  35.071  1.00  0.00     0.522 C 
BRANCH  28  29
HETATM   29  N9  UNL     1      59.931  43.778  34.830  1.00  0.00    -0.027 N 
ATOM     30  H93 UNL     1      60.280  44.191  33.965  1.00  0.00     0.279 HD
ATOM     31  H92 UNL     1      58.941  43.767  34.587  1.00  0.00     0.279 HD
ATOM     32  H91 UNL     1      60.130  44.352  35.649  1.00  0.00     0.279 HD
ENDBRANCH  28  29
BRANCH  28  33
HETATM   33  O3  UNL     1      59.937  41.535  34.204  1.00  0.00    -0.349 OA
ATOM     34  H3  UNL     1      60.033  40.617  34.431  1.00  0.00     0.213 HD
ENDBRANCH  28  33
ENDBRANCH  25  28
ENDBRANCH  19  25
ENDBRANCH  16  19
ENDBRANCH   3   4
TORSDOF 7
ENDMDL
MODEL 2
REMARK VINA RESULT: -7.708062727      1.373      1.678
REMARK  7 active torsions:
REMARK  status: ('A' for Active; 'I' for Inactive)
REMARK    1  A    between atoms: C3_3  and  N1_4 
REMARK    2  A    between atoms: C8_16  and  C10_19 
REMARK    3  A    between atoms: C10_19  and  N5_20 
REMARK    4  A    between atoms: C10_19  and  N8_25 
REMARK    5  A    between atoms: N8_25  and  C12_28 
REMARK    6  A    between atoms: C12_28  and  N9_29 
REMARK    7  A    between atoms: C12_28  and  O3_33 
ROOT
HETATM    1  C1  UNL     1      61.584  42.365  42.885  1.00  0.00     0.018 C 
HETATM    2  C2  UNL     1      61.066  41.731  42.030  1.00  0.00    -0.071 C 
HETATM    3  C3  UNL     1      60.436  40.938  41.000  1.00  0.00     0.179 C 
ENDROOT
BRANCH   3   4
HETATM    4  N1  UNL     1      61.322  40.545  39.985  1.00  0.00    -0.145 N 
HETATM    5  C4  UNL     1      62.122  39.348  40.170  1.00  0.00     0.686 A 
HETATM    6  N2  UNL     1      61.932  38.716  41.257  1.00  0.00    -0.234 N 
HETATM    7  N3  UNL     1      63.064  38.860  39.251  1.00  0.00    -0.152 N 
ATOM      8  H22 UNL     1      61.247  39.072  41.925  1.00  0.00     0.174 HD
ATOM      9  H21 UNL     1      62.493  37.875  41.387  1.00  0.00     0.174 HD
HETATM   10  C5  UNL     1      63.279  39.548  38.060  1.00  0.00     0.312 A 
ATOM     11  H3  UNL     1      63.587  38.007  39.454  1.00  0.00     0.187 HD
HETATM   12  O1  UNL     1      64.126  39.103  37.248  1.00  0.00    -0.263 OA
HETATM   13  C6  UNL     1      62.504  40.775  37.794  1.00  0.00     0.268 A 
HETATM   14  O2  UNL     1      62.794  41.295  36.704  1.00  0.00    -0.280 OA
HETATM   15  C7  UNL     1      61.504  41.278  38.779  1.00  0.00     0.133 A 
HETATM   16  C8  UNL     1      60.828  42.320  38.386  1.00  0.00     0.104 C 
HETATM   17  C9  UNL     1      59.726  42.953  39.128  1.00  0.00     0.101 C 
HETATM   18  N4  UNL     1      58.826  43.489  39.672  1.00  0.00    -0.191 NA
BRANCH  16  19
HETATM   19  C10 UNL     1      61.038  43.105  37.112  1.00  0.00     0.338 C 
BRANCH  19  20
HETATM   20  N5  UNL     1      60.822  44.474  37.268  1.00  0.00    -0.335 N 
HETATM   21  C11 UNL     1      61.405  45.542  37.116  1.00  0.00     0.198 C 
HETATM   22  N6  UNL     1      62.724  45.702  36.644  1.00  0.00    -0.067 NA
HETATM   23  N7  UNL     1      60.691  46.749  37.446  1.00  0.00    -0.067 NA
ATOM     24  H5  UNL     1      59.880  44.639  37.621  1.00  0.00     0.164 HD
ENDBRANCH  19  20
BRANCH  19  25
HETATM   25  N8  UNL     1      60.126  42.582  36.057  1.00  0.00     0.003 N 
ATOM     26  H82 UNL     1      59.871  41.609  36.229  1.00  0.00     0.285 HD
ATOM     27  H81 UNL     1      59.197  42.999  36.123  1.00  0.00     0.285 HD
BRANCH  25  28
HETATM   28  C12 UNL     1      60.697  42.757  34.742  1.00  0.00     0.522 C 
BRANCH  28  29
HETATM   29  N9  UNL     1      60.819  41.441  34.121  1.00  0.00    -0.027 N 
ATOM     30  H93 UNL     1      60.843  40.684  34.803  1.00  0.00     0.279 HD
ATOM     31  H92 UNL     1      59.971  41.158  33.630  1.00  0.00     0.279 HD
ATOM     32  H91 UNL     1      61.639  41.451  33.515  1.00  0.00     0.279 HD
ENDBRANCH  28  29
BRANCH  28  33
HETATM   33  O3  UNL     1      61.868  43.447  34.666  1.00  0.00    -0.349 OA
ATOM     34  H3  UNL     1      62.669  42.942  34.733  1.00  0.00     0.213 HD
ENDBRANCH  28  33
ENDBRANCH  25  28
ENDBRANCH  19  25
ENDBRANCH  16  19
ENDBRANCH   3   4
TORSDOF 7
ENDMDL
MODEL 3
REMARK VINA RESULT: -7.614473613      1.346      1.589
REMARK  7 active torsions:
REMARK  status: ('A' for Active; 'I' for Inactive)
REMARK    1  A    between atoms: C3_3  and  N1_4 
REMARK    2  A    between atoms: C8_16  and  C10_19 
REMARK    3  A    between atoms: C10_19  and  N5_20 
REMARK    4  A    between atoms: C10_19  and  N8_25 
REMARK    5  A    between atoms: N8_25  and  C12_28 
REMARK    6  A    between atoms: C12_28  and  N9_29 
REMARK    7  A    between atoms: C12_28  and  O3_33 
ROOT
HETATM    1  C1  UNL     1      57.751  40.868  41.218  1.00  0.00     0.018 C 
HETATM    2  C2  UNL     1      58.877  41.234  41.217  1.00  0.00    -0.071 C 
HETATM    3  C3  UNL     1      60.245  41.695  41.197  1.00  0.00     0.179 C 
ENDROOT
BRANCH   3   4
HETATM    4  N1  UNL     1      61.106  40.843  40.489  1.00  0.00    -0.145 N 
HETATM    5  C4  UNL     1      61.600  39.640  41.137  1.00  0.00     0.686 A 
HETATM    6  N2  UNL     1      61.179  39.436  42.319  1.00  0.00    -0.234 N 
HETATM    7  N3  UNL     1      62.485  38.719  40.556  1.00  0.00    -0.152 N 
ATOM      8  H22 UNL     1      60.536  40.106  42.741  1.00  0.00     0.174 HD
ATOM      9  H21 UNL     1      61.526  38.591  42.774  1.00  0.00     0.174 HD
HETATM   10  C5  UNL     1      62.950  38.939  39.262  1.00  0.00     0.312 A 
ATOM     11  H3  UNL     1      62.785  37.895  41.077  1.00  0.00     0.187 HD
HETATM   12  O1  UNL     1      63.744  38.110  38.756  1.00  0.00    -0.263 OA
HETATM   13  C6  UNL     1      62.495  40.138  38.534  1.00  0.00     0.268 A 
HETATM   14  O2  UNL     1      62.987  40.220  37.396  1.00  0.00    -0.280 OA
HETATM   15  C7  UNL     1      61.551  41.105  39.164  1.00  0.00     0.133 A 
HETATM   16  C8  UNL     1      61.162  42.074  38.384  1.00  0.00     0.104 C 
HETATM   17  C9  UNL     1      60.168  43.102  38.730  1.00  0.00     0.101 C 
HETATM   18  N4  UNL     1      59.366  43.941  38.949  1.00  0.00    -0.191 NA
BRANCH  16  19
HETATM   19  C10 UNL     1      61.652  42.357  36.983  1.00  0.00     0.338 C 
BRANCH  19  20
HETATM   20  N5  UNL     1      62.630  43.351  36.934  1.00  0.00    -0.335 N 
HETATM   21  C11 UNL     1      62.758  44.531  36.628  1.00  0.00     0.198 C 
HETATM   22  N6  UNL     1      61.736  45.374  36.145  1.00  0.00    -0.067 NA
HETATM   23  N7  UNL     1      64.064  45.123  36.772  1.00  0.00    -0.067 NA
ATOM     24  H5  UNL     1      63.522  42.976  37.254  1.00  0.00     0.164 HD
ENDBRANCH  19  20
BRANCH  19  25
HETATM   25  N8  UNL     1      60.498  42.763  36.132  1.00  0.00     0.003 N 
ATOM     26  H82 UNL     1      59.607  42.549  36.580  1.00  0.00     0.285 HD
ATOM     27  H81 UNL     1      60.407  43.778  36.081  1.00  0.00     0.285 HD
BRANCH  25  28
HETATM   28  C12 UNL     1      60.588  42.171  34.818  1.00  0.00     0.522 C 
BRANCH  28  29
HETATM   29  N9  UNL     1      61.080  43.187  33.893  1.00  0.00    -0.027 N 
ATOM     30  H93 UNL     1      61.586  42.789  33.103  1.00  0.00     0.279 HD
ATOM     31  H92 UNL     1      60.331  43.634  33.365  1.00  0.00     0.279 HD
ATOM     32  H91 UNL     1      61.640  43.855  34.424  1.00  0.00     0.279 HD
ENDBRANCH  28  29
BRANCH  28  33
HETATM   33  O3  UNL     1      59.466  41.569  34.336  1.00  0.00    -0.349 OA
ATOM     34  H3  UNL     1      59.109  41.911  33.524  1.00  0.00     0.213 HD
ENDBRANCH  28  33
ENDBRANCH  25  28
ENDBRANCH  19  25
ENDBRANCH  16  19
ENDBRANCH   3   4
TORSDOF 7
ENDMDL
MODEL 4
REMARK VINA RESULT: -7.587908154      1.742      2.282
REMARK  7 active torsions:
REMARK  status: ('A' for Active; 'I' for Inactive)
REMARK    1  A    between atoms: C3_3  and  N1_4 
REMARK    2  A    between atoms: C8_16  and  C10_19 
REMARK    3  A    between atoms: C10_19  and  N5_20 
REMARK    4  A    between atoms: C10_19  and  N8_25 
REMARK    5  A    between atoms: N8_25  and  C12_28 
REMARK    6  A    between atoms: C12_28  and  N9_29 
REMARK    7  A    between atoms: C12_28  and  O3_33 
ROOT
HETATM    1  C1  UNL     1      57.510  41.242  40.839  1.00  0.00     0.018 C 
HETATM    2  C2  UNL     1      58.633  41.615  40.863  1.00  0.00    -0.071 C 
HETATM    3  C3  UNL     1      59.998  42.087  40.876  1.00  0.00     0.179 C 
ENDROOT
BRANCH   3   4
HETATM    4  N1  UNL     1      60.841  41.366  40.017  1.00  0.00    -0.145 N 
HETATM    5  C4  UNL     1      61.379  40.092  40.461  1.00  0.00     0.686 A 
HETATM    6  N2  UNL     1      61.010  39.707  41.616  1.00  0.00    -0.234 N 
HETATM    7  N3  UNL     1      62.253  39.284  39.718  1.00  0.00    -0.152 N 
ATOM      8  H22 UNL     1      60.375  40.295  42.157  1.00  0.00     0.174 HD
ATOM      9  H21 UNL     1      61.388  38.812  41.928  1.00  0.00     0.174 HD
HETATM   10  C5  UNL     1      62.661  39.701  38.454  1.00  0.00     0.312 A 
ATOM     11  H3  UNL     1      62.586  38.399  40.099  1.00  0.00     0.187 HD
HETATM   12  O1  UNL     1      63.446  38.971  37.800  1.00  0.00    -0.263 OA
HETATM   13  C6  UNL     1      62.159  40.984  37.928  1.00  0.00     0.268 A 
HETATM   14  O2  UNL     1      62.602  41.242  36.797  1.00  0.00    -0.280 OA
HETATM   15  C7  UNL     1      61.227  41.829  38.729  1.00  0.00     0.133 A 
HETATM   16  C8  UNL     1      60.792  42.893  38.116  1.00  0.00     0.104 C 
HETATM   17  C9  UNL     1      59.798  43.839  38.649  1.00  0.00     0.101 C 
HETATM   18  N4  UNL     1      58.994  44.619  39.019  1.00  0.00    -0.191 NA
BRANCH  16  19
HETATM   19  C10 UNL     1      61.219  43.389  36.754  1.00  0.00     0.338 C 
BRANCH  19  20
HETATM   20  N5  UNL     1      61.550  44.744  36.743  1.00  0.00    -0.335 N 
HETATM   21  C11 UNL     1      62.537  45.472  36.721  1.00  0.00     0.198 C 
HETATM   22  N6  UNL     1      63.880  45.041  36.695  1.00  0.00    -0.067 NA
HETATM   23  N7  UNL     1      62.321  46.896  36.721  1.00  0.00    -0.067 NA
ATOM     24  H5  UNL     1      60.702  45.309  36.758  1.00  0.00     0.164 HD
ENDBRANCH  19  20
BRANCH  19  25
HETATM   25  N8  UNL     1      60.123  43.144  35.776  1.00  0.00     0.003 N 
ATOM     26  H82 UNL     1      59.504  42.395  36.086  1.00  0.00     0.285 HD
ATOM     27  H81 UNL     1      59.450  43.910  35.767  1.00  0.00     0.285 HD
BRANCH  25  28
HETATM   28  C12 UNL     1      60.652  42.884  34.457  1.00  0.00     0.522 C 
BRANCH  28  29
HETATM   29  N9  UNL     1      60.848  41.444  34.322  1.00  0.00    -0.027 N 
ATOM     30  H93 UNL     1      60.904  40.967  35.221  1.00  0.00     0.279 HD
ATOM     31  H92 UNL     1      60.021  40.966  33.965  1.00  0.00     0.279 HD
ATOM     32  H91 UNL     1      61.673  41.289  33.742  1.00  0.00     0.279 HD
ENDBRANCH  28  29
BRANCH  28  33
HETATM   33  O3  UNL     1      61.772  43.569  34.097  1.00  0.00    -0.349 OA
ATOM     34  H3  UNL     1      62.513  43.054  33.800  1.00  0.00     0.213 HD
ENDBRANCH  28  33
ENDBRANCH  25  28
ENDBRANCH  19  25
ENDBRANCH  16  19
ENDBRANCH   3   4
TORSDOF 7
ENDMDL
MODEL 5
REMARK VINA RESULT: -7.474700809      3.388      6.513
REMARK  7 active torsions:
REMARK  status: ('A' for Active; 'I' for Inactive)
REMARK    1  A    between atoms: C3_3  and  N1_4 
REMARK    2  A    between atoms: C8_16  and  C10_19 
REMARK    3  A    between atoms: C10_19  and  N5_20 
REMARK    4  A    between atoms: C10_19  and  N8_25 
REMARK    5  A    between atoms: N8_25  and  C12_28 
REMARK    6  A    between atoms: C12_28  and  N9_29 
REMARK    7  A    between atoms: C12_28  and  O3_33 
ROOT
HETATM    1  C1  UNL     1      56.244  45.949  38.667  1.00  0.00     0.018 C 
HETATM    2  C2  UNL     1      57.356  45.924  39.074  1.00  0.00    -0.071 C 
HETATM    3  C3  UNL     1      58.708  45.915  39.581  1.00  0.00     0.179 C 
ENDROOT
BRANCH   3   4
HETATM    4  N1  UNL     1      59.653  46.356  38.643  1.00  0.00    -0.145 N 
HETATM    5  C4  UNL     1      59.824  47.783  38.430  1.00  0.00     0.686 A 
HETATM    6  N2  UNL     1      59.100  48.541  39.150  1.00  0.00    -0.234 N 
HETATM    7  N3  UNL     1      60.710  48.358  37.506  1.00  0.00    -0.152 N 
ATOM      8  H22 UNL     1      58.456  48.122  39.821  1.00  0.00     0.174 HD
ATOM      9  H21 UNL     1      59.220  49.542  39.001  1.00  0.00     0.174 HD
HETATM   10  C5  UNL     1      61.503  47.533  36.713  1.00  0.00     0.312 A 
ATOM     11  H3  UNL     1      60.773  49.372  37.417  1.00  0.00     0.187 HD
HETATM   12  O1  UNL     1      62.288  48.060  35.889  1.00  0.00    -0.263 OA
HETATM   13  C6  UNL     1      61.391  46.071  36.869  1.00  0.00     0.268 A 
HETATM   14  O2  UNL     1      62.145  45.450  36.101  1.00  0.00    -0.280 OA
HETATM   15  C7  UNL     1      60.448  45.475  37.858  1.00  0.00     0.133 A 
HETATM   16  C8  UNL     1      60.508  44.177  37.957  1.00  0.00     0.104 C 
HETATM   17  C9  UNL     1      59.753  43.357  38.917  1.00  0.00     0.101 C 
HETATM   18  N4  UNL     1      59.184  42.654  39.676  1.00  0.00    -0.191 NA
BRANCH  16  19
HETATM   19  C10 UNL     1      61.341  43.245  37.108  1.00  0.00     0.338 C 
BRANCH  19  20
HETATM   20  N5  UNL     1      60.596  42.572  36.139  1.00  0.00    -0.335 N 
HETATM   21  C11 UNL     1      59.996  42.791  35.093  1.00  0.00     0.198 C 
HETATM   22  N6  UNL     1      59.876  44.045  34.458  1.00  0.00    -0.067 NA
HETATM   23  N7  UNL     1      59.353  41.678  34.443  1.00  0.00    -0.067 NA
ATOM     24  H5  UNL     1      60.530  41.583  36.377  1.00  0.00     0.164 HD
ENDBRANCH  19  20
BRANCH  19  25
HETATM   25  N8  UNL     1      62.015  42.250  37.988  1.00  0.00     0.003 N 
ATOM     26  H82 UNL     1      62.730  42.686  38.570  1.00  0.00     0.285 HD
ATOM     27  H81 UNL     1      61.394  41.920  38.726  1.00  0.00     0.285 HD
BRANCH  25  28
HETATM   28  C12 UNL     1      62.555  41.154  37.216  1.00  0.00     0.522 C 
BRANCH  28  29
HETATM   29  N9  UNL     1      63.442  40.382  38.080  1.00  0.00    -0.027 N 
ATOM     30  H93 UNL     1      64.403  40.361  37.740  1.00  0.00     0.279 HD
ATOM     31  H92 UNL     1      63.622  40.844  38.972  1.00  0.00     0.279 HD
ATOM     32  H91 UNL     1      63.043  39.450  38.193  1.00  0.00     0.279 HD
ENDBRANCH  28  29
BRANCH  28  33
HETATM   33  O3  UNL     1      63.165  41.471  36.041  1.00  0.00    -0.349 OA
ATOM     34  H3  UNL     1      63.999  41.923  36.099  1.00  0.00     0.213 HD
ENDBRANCH  28  33
ENDBRANCH  25  28
ENDBRANCH  19  25
ENDBRANCH  16  19
ENDBRANCH   3   4
TORSDOF 7
ENDMDL
