MODEL 1
REMARK VINA RESULT: -8.775077369      0.000      0.000
REMARK  13 active torsions:
REMARK  status: ('A' for Active; 'I' for Inactive)
REMARK    1  A    between atoms: N1_1  and  N2_4 
REMARK    2  A    between atoms: N2_4  and  C1_6 
REMARK    3  A    between atoms: C2_8  and  C3_9 
REMARK    4  A    between atoms: C3_9  and  O2_10 
REMARK    5  A    between atoms: C4_12  and  N3_13 
REMARK       I    between atoms: N3_13  and  C5_15 
REMARK    6  A    between atoms: C5_15  and  C6_17 
REMARK    7  A    between atoms: C8_22  and  O5_23 
REMARK    8  A    between atoms: C8_22  and  N5_25 
REMARK       I    between atoms: N5_25  and  C9_27 
REMARK    9  A    between atoms: C9_27  and  C10_29 
REMARK   10  A    between atoms: C10_29  and  C11_30 
REMARK   11  A    between atoms: C11_30  and  N6_31 
REMARK   12  A    between atoms: C15_42  and  O8_43 
REMARK   13  A    between atoms: C16_45  and  N10_46 
ROOT
HETATM    1  C6  UNL     1      61.928  43.745  35.175  1.00  0.00     0.269 C 
HETATM    2  N4  UNL     1      63.260  43.929  35.694  1.00  0.00    -0.334 N 
ATOM      3  H4  UNL     1      63.908  44.583  35.255  1.00  0.00     0.164 HD
HETATM    4  C7  UNL     1      63.654  43.156  36.862  1.00  0.00     0.297 C 
HETATM    5  O4  UNL     1      64.604  43.599  37.521  1.00  0.00    -0.266 OA
HETATM    6  C8  UNL     1      62.966  41.927  37.233  1.00  0.00     0.303 C 
HETATM    7  N9  UNL     1      61.919  41.532  36.308  1.00  0.00    -0.301 N 
ATOM      8  H9  UNL     1      61.520  40.600  36.408  1.00  0.00     0.167 HD
HETATM    9  C14 UNL     1      61.423  42.351  35.286  1.00  0.00     0.254 C 
HETATM   10  O7  UNL     1      60.556  41.906  34.469  1.00  0.00    -0.271 OA
ENDROOT
BRANCH   1  11
HETATM   11  C5  UNL     1      61.010  44.754  35.733  1.00  0.00     0.250 C 
HETATM   12  N3  UNL     1      61.415  45.849  36.517  1.00  0.00    -0.349 N 
ATOM     13  H3  UNL     1      62.407  45.972  36.721  1.00  0.00     0.163 HD
HETATM   14  O3  UNL     1      59.759  44.625  35.485  1.00  0.00    -0.271 OA
BRANCH  12  15
HETATM   15  C4  UNL     1      60.455  46.819  37.050  1.00  0.00     0.146 C 
HETATM   16  C2  UNL     1      60.289  46.638  38.510  1.00  0.00     0.173 C 
HETATM   17  O1  UNL     1      59.800  47.738  39.205  1.00  0.00    -0.354 OA
HETATM   18  C1  UNL     1      60.676  48.805  39.031  1.00  0.00     0.269 C 
HETATM   19  C16 UNL     1      60.447  49.283  37.602  1.00  0.00     0.263 C 
HETATM   20  C15 UNL     1      60.837  48.218  36.611  1.00  0.00     0.178 C 
BRANCH  16  21
HETATM   21  C3  UNL     1      59.354  45.472  38.856  1.00  0.00     0.198 C 
BRANCH  21  22
HETATM   22  O2  UNL     1      60.046  44.273  38.700  1.00  0.00    -0.398 OA
ATOM     23  H2  UNL     1      59.715  43.823  37.931  1.00  0.00     0.209 HD
ENDBRANCH  21  22
ENDBRANCH  16  21
BRANCH  18  24
HETATM   24  N2  UNL     1      60.513  49.867  39.971  1.00  0.00    -0.312 N 
ATOM     25  H2  UNL     1      59.595  50.151  40.313  1.00  0.00     0.182 HD
BRANCH  24  26
HETATM   26  N1  UNL     1      61.671  50.483  40.386  1.00  0.00    -0.347 N 
ATOM     27  H12 UNL     1      62.404  49.961  40.867  1.00  0.00     0.176 HD
ATOM     28  H11 UNL     1      61.742  51.480  40.182  1.00  0.00     0.176 HD
ENDBRANCH  24  26
ENDBRANCH  18  24
BRANCH  19  29
HETATM   29  N10 UNL     1      58.997  49.504  37.485  1.00  0.00    -0.068 N 
ATOM     30 3H10 UNL     1      58.571  49.882  38.332  1.00  0.00     0.275 HD
ATOM     31 2H10 UNL     1      58.749  50.278  36.868  1.00  0.00     0.275 HD
ATOM     32 1H10 UNL     1      58.605  48.607  37.195  1.00  0.00     0.275 HD
ENDBRANCH  19  29
BRANCH  20  33
HETATM   33  O8  UNL     1      62.232  48.240  36.454  1.00  0.00    -0.391 OA
ATOM     34  H8  UNL     1      62.412  48.554  35.577  1.00  0.00     0.210 HD
ENDBRANCH  20  33
ENDBRANCH  12  15
ENDBRANCH   1  11
BRANCH   6  35
HETATM   35  O5  UNL     1      62.296  42.071  38.478  1.00  0.00    -0.346 OA
ATOM     36  H5  UNL     1      61.526  41.515  38.519  1.00  0.00     0.215 HD
ENDBRANCH   6  35
BRANCH   6  37
HETATM   37  N5  UNL     1      63.888  40.792  37.327  1.00  0.00    -0.304 N 
HETATM   38  C9  UNL     1      63.477  39.622  38.074  1.00  0.00     0.223 C 
HETATM   39  O6  UNL     1      62.342  39.606  38.615  1.00  0.00    -0.273 OA
ATOM     40  H5  UNL     1      64.802  40.825  36.875  1.00  0.00     0.167 HD
BRANCH  38  41
HETATM   41  C10 UNL     1      64.354  38.453  38.217  1.00  0.00     0.124 C 
BRANCH  41  42
HETATM   42  C11 UNL     1      64.469  37.871  39.572  1.00  0.00     0.159 C 
BRANCH  42  43
HETATM   43  N6  UNL     1      65.800  37.503  39.963  1.00  0.00    -0.286 N 
HETATM   44  C12 UNL     1      66.284  37.066  41.116  1.00  0.00     0.201 A 
HETATM   45  N7  UNL     1      67.601  36.829  40.936  1.00  0.00    -0.346 N 
HETATM   46  C13 UNL     1      67.947  37.119  39.664  1.00  0.00     0.198 A 
ATOM     47  H7  UNL     1      68.240  36.484  41.653  1.00  0.00     0.167 HD
HETATM   48  N8  UNL     1      66.820  37.534  39.080  1.00  0.00    -0.293 N 
ATOM     49  H8  UNL     1      66.743  37.830  38.107  1.00  0.00     0.188 HD
ENDBRANCH  42  43
ENDBRANCH  41  42
ENDBRANCH  38  41
ENDBRANCH   6  37
TORSDOF 13
ENDMDL
MODEL 2
REMARK VINA RESULT: -8.256992707      2.999     10.052
REMARK  13 active torsions:
REMARK  status: ('A' for Active; 'I' for Inactive)
REMARK    1  A    between atoms: N1_1  and  N2_4 
REMARK    2  A    between atoms: N2_4  and  C1_6 
REMARK    3  A    between atoms: C2_8  and  C3_9 
REMARK    4  A    between atoms: C3_9  and  O2_10 
REMARK    5  A    between atoms: C4_12  and  N3_13 
REMARK       I    between atoms: N3_13  and  C5_15 
REMARK    6  A    between atoms: C5_15  and  C6_17 
REMARK    7  A    between atoms: C8_22  and  O5_23 
REMARK    8  A    between atoms: C8_22  and  N5_25 
REMARK       I    between atoms: N5_25  and  C9_27 
REMARK    9  A    between atoms: C9_27  and  C10_29 
REMARK   10  A    between atoms: C10_29  and  C11_30 
REMARK   11  A    between atoms: C11_30  and  N6_31 
REMARK   12  A    between atoms: C15_42  and  O8_43 
REMARK   13  A    between atoms: C16_45  and  N10_46 
ROOT
HETATM    1  C6  UNL     1      60.660  47.612  36.738  1.00  0.00     0.269 C 
HETATM    2  N4  UNL     1      59.514  48.303  37.273  1.00  0.00    -0.334 N 
ATOM      3  H4  UNL     1      58.713  48.523  36.683  1.00  0.00     0.164 HD
HETATM    4  C7  UNL     1      59.534  48.678  38.678  1.00  0.00     0.297 C 
HETATM    5  O4  UNL     1      58.434  48.890  39.207  1.00  0.00    -0.266 OA
HETATM    6  C8  UNL     1      60.781  48.797  39.421  1.00  0.00     0.303 C 
HETATM    7  N9  UNL     1      61.971  48.571  38.619  1.00  0.00    -0.301 N 
ATOM      8  H9  UNL     1      62.874  48.810  39.028  1.00  0.00     0.167 HD
HETATM    9  C14 UNL     1      61.956  48.047  37.321  1.00  0.00     0.254 C 
HETATM   10  O7  UNL     1      63.036  47.948  36.655  1.00  0.00    -0.271 OA
ENDROOT
BRANCH   1  11
HETATM   11  C5  UNL     1      60.452  46.153  36.782  1.00  0.00     0.250 C 
HETATM   12  N3  UNL     1      61.488  45.202  36.811  1.00  0.00    -0.349 N 
ATOM     13  H3  UNL     1      62.455  45.524  36.806  1.00  0.00     0.163 HD
HETATM   14  O3  UNL     1      59.244  45.723  36.796  1.00  0.00    -0.271 OA
BRANCH  12  15
HETATM   15  C4  UNL     1      61.219  43.762  36.850  1.00  0.00     0.146 C 
HETATM   16  C2  UNL     1      61.973  43.065  35.784  1.00  0.00     0.173 C 
HETATM   17  O1  UNL     1      62.186  41.705  35.983  1.00  0.00    -0.354 OA
HETATM   18  C1  UNL     1      62.906  41.532  37.162  1.00  0.00     0.269 C 
HETATM   19  C16 UNL     1      61.910  41.803  38.283  1.00  0.00     0.263 C 
HETATM   20  C15 UNL     1      61.442  43.233  38.252  1.00  0.00     0.178 C 
BRANCH  16  21
HETATM   21  C3  UNL     1      61.300  43.187  34.410  1.00  0.00     0.198 C 
BRANCH  21  22
HETATM   22  O2  UNL     1      60.041  43.761  34.571  1.00  0.00    -0.398 OA
ATOM     23  H2  UNL     1      59.572  43.716  33.745  1.00  0.00     0.209 HD
ENDBRANCH  21  22
ENDBRANCH  16  21
BRANCH  18  24
HETATM   24  N2  UNL     1      63.517  40.250  37.302  1.00  0.00    -0.312 N 
ATOM     25  H2  UNL     1      63.475  39.547  36.565  1.00  0.00     0.182 HD
BRANCH  24  26
HETATM   26  N1  UNL     1      64.168  40.023  38.492  1.00  0.00    -0.347 N 
ATOM     27  H12 UNL     1      64.713  40.757  38.945  1.00  0.00     0.176 HD
ATOM     28  H11 UNL     1      64.067  39.086  38.883  1.00  0.00     0.176 HD
ENDBRANCH  24  26
ENDBRANCH  18  24
BRANCH  19  29
HETATM   29  N10 UNL     1      60.753  40.939  38.003  1.00  0.00    -0.068 N 
ATOM     30 3H10 UNL     1      60.275  41.166  37.131  1.00  0.00     0.275 HD
ATOM     31 2H10 UNL     1      61.007  39.982  37.757  1.00  0.00     0.275 HD
ATOM     32 1H10 UNL     1      60.154  41.004  38.827  1.00  0.00     0.275 HD
ENDBRANCH  19  29
BRANCH  20  33
HETATM   33  O8  UNL     1      62.421  44.040  38.852  1.00  0.00    -0.391 OA
ATOM     34  H8  UNL     1      62.026  44.443  39.615  1.00  0.00     0.210 HD
ENDBRANCH  20  33
ENDBRANCH  12  15
ENDBRANCH   1  11
BRANCH   6  35
HETATM   35  O5  UNL     1      60.862  47.818  40.448  1.00  0.00    -0.346 OA
ATOM     36  H5  UNL     1      61.401  47.084  40.180  1.00  0.00     0.215 HD
ENDBRANCH   6  35
BRANCH   6  37
HETATM   37  N5  UNL     1      60.932  50.123  40.026  1.00  0.00    -0.304 N 
HETATM   38  C9  UNL     1      62.056  50.362  40.906  1.00  0.00     0.223 C 
HETATM   39  O6  UNL     1      62.876  49.433  41.122  1.00  0.00    -0.273 OA
ATOM     40  H5  UNL     1      60.259  50.864  39.831  1.00  0.00     0.167 HD
BRANCH  38  41
HETATM   41  C10 UNL     1      62.264  51.664  41.553  1.00  0.00     0.124 C 
BRANCH  41  42
HETATM   42  C11 UNL     1      63.252  52.567  40.925  1.00  0.00     0.159 C 
BRANCH  42  43
HETATM   43  N6  UNL     1      63.222  53.921  41.397  1.00  0.00    -0.286 N 
HETATM   44  C12 UNL     1      62.273  54.845  41.346  1.00  0.00     0.201 A 
HETATM   45  N7  UNL     1      62.746  55.943  41.975  1.00  0.00    -0.346 N 
HETATM   46  C13 UNL     1      63.998  55.708  42.422  1.00  0.00     0.198 A 
ATOM     47  H7  UNL     1      62.235  56.818  42.093  1.00  0.00     0.167 HD
HETATM   48  N8  UNL     1      64.273  54.455  42.056  1.00  0.00    -0.293 N 
ATOM     49  H8  UNL     1      65.150  53.970  42.246  1.00  0.00     0.188 HD
ENDBRANCH  42  43
ENDBRANCH  41  42
ENDBRANCH  38  41
ENDBRANCH   6  37
TORSDOF 13
ENDMDL
MODEL 3
REMARK VINA RESULT: -8.224235948      2.965      9.288
REMARK  13 active torsions:
REMARK  status: ('A' for Active; 'I' for Inactive)
REMARK    1  A    between atoms: N1_1  and  N2_4 
REMARK    2  A    between atoms: N2_4  and  C1_6 
REMARK    3  A    between atoms: C2_8  and  C3_9 
REMARK    4  A    between atoms: C3_9  and  O2_10 
REMARK    5  A    between atoms: C4_12  and  N3_13 
REMARK       I    between atoms: N3_13  and  C5_15 
REMARK    6  A    between atoms: C5_15  and  C6_17 
REMARK    7  A    between atoms: C8_22  and  O5_23 
REMARK    8  A    between atoms: C8_22  and  N5_25 
REMARK       I    between atoms: N5_25  and  C9_27 
REMARK    9  A    between atoms: C9_27  and  C10_29 
REMARK   10  A    between atoms: C10_29  and  C11_30 
REMARK   11  A    between atoms: C11_30  and  N6_31 
REMARK   12  A    between atoms: C15_42  and  O8_43 
REMARK   13  A    between atoms: C16_45  and  N10_46 
ROOT
HETATM    1  C6  UNL     1      60.816  47.605  36.650  1.00  0.00     0.269 C 
HETATM    2  N4  UNL     1      59.688  48.337  37.167  1.00  0.00    -0.334 N 
ATOM      3  H4  UNL     1      58.894  48.566  36.570  1.00  0.00     0.164 HD
HETATM    4  C7  UNL     1      59.714  48.740  38.564  1.00  0.00     0.297 C 
HETATM    5  O4  UNL     1      58.618  48.992  39.085  1.00  0.00    -0.266 OA
HETATM    6  C8  UNL     1      60.961  48.842  39.309  1.00  0.00     0.303 C 
HETATM    7  N9  UNL     1      62.146  48.568  38.516  1.00  0.00    -0.301 N 
ATOM      8  H9  UNL     1      63.054  48.791  38.922  1.00  0.00     0.167 HD
HETATM    9  C14 UNL     1      62.122  48.018  37.229  1.00  0.00     0.254 C 
HETATM   10  O7  UNL     1      63.200  47.877  36.568  1.00  0.00    -0.271 OA
ENDROOT
BRANCH   1  11
HETATM   11  C5  UNL     1      60.569  46.153  36.723  1.00  0.00     0.250 C 
HETATM   12  N3  UNL     1      61.579  45.175  36.742  1.00  0.00    -0.349 N 
ATOM     13  H3  UNL     1      62.555  45.470  36.707  1.00  0.00     0.163 HD
HETATM   14  O3  UNL     1      59.351  45.757  36.774  1.00  0.00    -0.271 OA
BRANCH  12  15
HETATM   15  C4  UNL     1      61.273  43.744  36.811  1.00  0.00     0.146 C 
HETATM   16  C2  UNL     1      62.001  43.005  35.755  1.00  0.00     0.173 C 
HETATM   17  O1  UNL     1      62.180  41.645  35.981  1.00  0.00    -0.354 OA
HETATM   18  C1  UNL     1      62.902  41.476  37.159  1.00  0.00     0.269 C 
HETATM   19  C16 UNL     1      61.920  41.795  38.280  1.00  0.00     0.263 C 
HETATM   20  C15 UNL     1      61.489  43.237  38.223  1.00  0.00     0.178 C 
BRANCH  16  21
HETATM   21  C3  UNL     1      61.324  43.118  34.383  1.00  0.00     0.198 C 
BRANCH  21  22
HETATM   22  O2  UNL     1      60.103  43.771  34.532  1.00  0.00    -0.398 OA
ATOM     23  H2  UNL     1      59.517  43.494  33.837  1.00  0.00     0.209 HD
ENDBRANCH  21  22
ENDBRANCH  16  21
BRANCH  18  24
HETATM   24  N2  UNL     1      63.479  40.181  37.321  1.00  0.00    -0.312 N 
ATOM     25  H2  UNL     1      63.390  39.455  36.611  1.00  0.00     0.182 HD
BRANCH  24  26
HETATM   26  N1  UNL     1      64.165  39.974  38.495  1.00  0.00    -0.347 N 
ATOM     27  H12 UNL     1      64.084  39.094  39.006  1.00  0.00     0.176 HD
ATOM     28  H11 UNL     1      64.749  40.748  38.813  1.00  0.00     0.176 HD
ENDBRANCH  24  26
ENDBRANCH  18  24
BRANCH  19  29
HETATM   29  N10 UNL     1      60.738  40.957  38.023  1.00  0.00    -0.068 N 
ATOM     30 3H10 UNL     1      60.747  40.508  37.107  1.00  0.00     0.275 HD
ATOM     31 2H10 UNL     1      60.714  40.101  38.578  1.00  0.00     0.275 HD
ATOM     32 1H10 UNL     1      59.932  41.565  38.173  1.00  0.00     0.275 HD
ENDBRANCH  19  29
BRANCH  20  33
HETATM   33  O8  UNL     1      62.493  44.029  38.800  1.00  0.00    -0.391 OA
ATOM     34  H8  UNL     1      62.668  43.676  39.665  1.00  0.00     0.210 HD
ENDBRANCH  20  33
ENDBRANCH  12  15
ENDBRANCH   1  11
BRANCH   6  35
HETATM   35  O5  UNL     1      61.013  47.882  40.356  1.00  0.00    -0.346 OA
ATOM     36  H5  UNL     1      61.857  47.897  40.793  1.00  0.00     0.215 HD
ENDBRANCH   6  35
BRANCH   6  37
HETATM   37  N5  UNL     1      61.145  50.175  39.887  1.00  0.00    -0.304 N 
HETATM   38  C9  UNL     1      62.265  50.399  40.776  1.00  0.00     0.223 C 
HETATM   39  O6  UNL     1      63.053  49.450  41.023  1.00  0.00    -0.273 OA
ATOM     40  H5  UNL     1      60.497  50.932  39.667  1.00  0.00     0.167 HD
BRANCH  38  41
HETATM   41  C10 UNL     1      62.505  51.708  41.398  1.00  0.00     0.124 C 
BRANCH  41  42
HETATM   42  C11 UNL     1      62.052  51.871  42.796  1.00  0.00     0.159 C 
BRANCH  42  43
HETATM   43  N6  UNL     1      63.087  51.771  43.785  1.00  0.00    -0.286 N 
HETATM   44  C12 UNL     1      63.584  52.667  44.626  1.00  0.00     0.201 A 
HETATM   45  N7  UNL     1      64.521  52.044  45.371  1.00  0.00    -0.346 N 
HETATM   46  C13 UNL     1      64.615  50.750  44.997  1.00  0.00     0.198 A 
ATOM     47  H7  UNL     1      65.076  52.484  46.106  1.00  0.00     0.167 HD
HETATM   48  N8  UNL     1      63.721  50.603  44.017  1.00  0.00    -0.293 N 
ATOM     49  H8  UNL     1      63.544  49.732  43.516  1.00  0.00     0.188 HD
ENDBRANCH  42  43
ENDBRANCH  41  42
ENDBRANCH  38  41
ENDBRANCH   6  37
TORSDOF 13
ENDMDL
MODEL 4
REMARK VINA RESULT: -7.943305675      1.716      2.824
REMARK  13 active torsions:
REMARK  status: ('A' for Active; 'I' for Inactive)
REMARK    1  A    between atoms: N1_1  and  N2_4 
REMARK    2  A    between atoms: N2_4  and  C1_6 
REMARK    3  A    between atoms: C2_8  and  C3_9 
REMARK    4  A    between atoms: C3_9  and  O2_10 
REMARK    5  A    between atoms: C4_12  and  N3_13 
REMARK       I    between atoms: N3_13  and  C5_15 
REMARK    6  A    between atoms: C5_15  and  C6_17 
REMARK    7  A    between atoms: C8_22  and  O5_23 
REMARK    8  A    between atoms: C8_22  and  N5_25 
REMARK       I    between atoms: N5_25  and  C9_27 
REMARK    9  A    between atoms: C9_27  and  C10_29 
REMARK   10  A    between atoms: C10_29  and  C11_30 
REMARK   11  A    between atoms: C11_30  and  N6_31 
REMARK   12  A    between atoms: C15_42  and  O8_43 
REMARK   13  A    between atoms: C16_45  and  N10_46 
ROOT
HETATM    1  C6  UNL     1      60.406  42.759  37.991  1.00  0.00     0.269 C 
HETATM    2  N4  UNL     1      60.743  42.478  36.618  1.00  0.00    -0.334 N 
ATOM      3  H4  UNL     1      60.053  42.588  35.876  1.00  0.00     0.164 HD
HETATM    4  C7  UNL     1      62.096  42.032  36.322  1.00  0.00     0.297 C 
HETATM    5  O4  UNL     1      62.482  42.183  35.154  1.00  0.00    -0.266 OA
HETATM    6  C8  UNL     1      62.948  41.440  37.344  1.00  0.00     0.303 C 
HETATM    7  N9  UNL     1      62.303  41.288  38.636  1.00  0.00    -0.301 N 
ATOM      8  H9  UNL     1      62.776  40.725  39.342  1.00  0.00     0.167 HD
HETATM    9  C14 UNL     1      61.073  41.865  38.973  1.00  0.00     0.254 C 
HETATM   10  O7  UNL     1      60.537  41.623  40.102  1.00  0.00    -0.271 OA
ENDROOT
BRANCH   1  11
HETATM   11  C5  UNL     1      60.581  44.194  38.283  1.00  0.00     0.250 C 
HETATM   12  N3  UNL     1      59.756  45.214  37.779  1.00  0.00    -0.349 N 
ATOM     13  H3  UNL     1      58.976  44.965  37.170  1.00  0.00     0.163 HD
HETATM   14  O3  UNL     1      61.550  44.533  39.051  1.00  0.00    -0.271 OA
BRANCH  12  15
HETATM   15  C4  UNL     1      59.981  46.626  38.100  1.00  0.00     0.146 C 
HETATM   16  C2  UNL     1      60.193  47.413  36.865  1.00  0.00     0.173 C 
HETATM   17  O1  UNL     1      59.955  48.779  36.968  1.00  0.00    -0.354 OA
HETATM   18  C1  UNL     1      58.630  48.976  37.346  1.00  0.00     0.269 C 
HETATM   19  C16 UNL     1      58.573  48.593  38.821  1.00  0.00     0.263 C 
HETATM   20  C15 UNL     1      58.878  47.131  39.008  1.00  0.00     0.178 C 
BRANCH  16  21
HETATM   21  C3  UNL     1      61.620  47.275  36.316  1.00  0.00     0.198 C 
BRANCH  21  22
HETATM   22  O2  UNL     1      62.478  46.940  37.361  1.00  0.00    -0.398 OA
ATOM     23  H2  UNL     1      62.526  45.994  37.431  1.00  0.00     0.209 HD
ENDBRANCH  21  22
ENDBRANCH  16  21
BRANCH  18  24
HETATM   24  N2  UNL     1      58.141  50.299  37.129  1.00  0.00    -0.312 N 
ATOM     25  H2  UNL     1      58.649  50.978  36.562  1.00  0.00     0.182 HD
BRANCH  24  26
HETATM   26  N1  UNL     1      56.941  50.601  37.731  1.00  0.00    -0.347 N 
ATOM     27  H12 UNL     1      56.806  51.483  38.225  1.00  0.00     0.176 HD
ATOM     28  H11 UNL     1      56.211  49.893  37.649  1.00  0.00     0.176 HD
ENDBRANCH  24  26
ENDBRANCH  18  24
BRANCH  19  29
HETATM   29  N10 UNL     1      59.640  49.368  39.473  1.00  0.00    -0.068 N 
ATOM     30 3H10 UNL     1      59.453  50.370  39.511  1.00  0.00     0.275 HD
ATOM     31 2H10 UNL     1      59.698  49.217  40.480  1.00  0.00     0.275 HD
ATOM     32 1H10 UNL     1      60.497  49.130  38.973  1.00  0.00     0.275 HD
ENDBRANCH  19  29
BRANCH  20  33
HETATM   33  O8  UNL     1      57.723  46.390  38.713  1.00  0.00    -0.391 OA
ATOM     34  H8  UNL     1      57.023  46.729  39.258  1.00  0.00     0.210 HD
ENDBRANCH  20  33
ENDBRANCH  12  15
ENDBRANCH   1  11
BRANCH   6  35
HETATM   35  O5  UNL     1      64.075  42.263  37.611  1.00  0.00    -0.346 OA
ATOM     36  H5  UNL     1      63.811  43.159  37.786  1.00  0.00     0.215 HD
ENDBRANCH   6  35
BRANCH   6  37
HETATM   37  N5  UNL     1      63.423  40.109  36.956  1.00  0.00    -0.304 N 
HETATM   38  C9  UNL     1      64.233  39.360  37.892  1.00  0.00     0.223 C 
HETATM   39  O6  UNL     1      64.501  39.863  39.013  1.00  0.00    -0.273 OA
ATOM     40  H5  UNL     1      63.187  39.718  36.044  1.00  0.00     0.167 HD
BRANCH  38  41
HETATM   41  C10 UNL     1      64.750  38.024  37.566  1.00  0.00     0.124 C 
BRANCH  41  42
HETATM   42  C11 UNL     1      64.850  37.061  38.684  1.00  0.00     0.159 C 
BRANCH  42  43
HETATM   43  N6  UNL     1      66.122  37.033  39.347  1.00  0.00    -0.286 N 
HETATM   44  C12 UNL     1      66.447  37.176  40.624  1.00  0.00     0.201 A 
HETATM   45  N7  UNL     1      67.785  37.024  40.719  1.00  0.00    -0.346 N 
HETATM   46  C13 UNL     1      68.304  36.784  39.496  1.00  0.00     0.198 A 
ATOM     47  H7  UNL     1      68.323  37.082  41.584  1.00  0.00     0.167 HD
HETATM   48  N8  UNL     1      67.261  36.793  38.664  1.00  0.00    -0.293 N 
ATOM     49  H8  UNL     1      67.317  36.642  37.656  1.00  0.00     0.188 HD
ENDBRANCH  42  43
ENDBRANCH  41  42
ENDBRANCH  38  41
ENDBRANCH   6  37
TORSDOF 13
ENDMDL
MODEL 5
REMARK VINA RESULT: -7.828315882      1.967      2.541
REMARK  13 active torsions:
REMARK  status: ('A' for Active; 'I' for Inactive)
REMARK    1  A    between atoms: N1_1  and  N2_4 
REMARK    2  A    between atoms: N2_4  and  C1_6 
REMARK    3  A    between atoms: C2_8  and  C3_9 
REMARK    4  A    between atoms: C3_9  and  O2_10 
REMARK    5  A    between atoms: C4_12  and  N3_13 
REMARK       I    between atoms: N3_13  and  C5_15 
REMARK    6  A    between atoms: C5_15  and  C6_17 
REMARK    7  A    between atoms: C8_22  and  O5_23 
REMARK    8  A    between atoms: C8_22  and  N5_25 
REMARK       I    between atoms: N5_25  and  C9_27 
REMARK    9  A    between atoms: C9_27  and  C10_29 
REMARK   10  A    between atoms: C10_29  and  C11_30 
REMARK   11  A    between atoms: C11_30  and  N6_31 
REMARK   12  A    between atoms: C15_42  and  O8_43 
REMARK   13  A    between atoms: C16_45  and  N10_46 
ROOT
HETATM    1  C6  UNL     1      61.476  44.466  35.625  1.00  0.00     0.269 C 
HETATM    2  N4  UNL     1      62.886  44.503  35.922  1.00  0.00    -0.334 N 
ATOM      3  H4  UNL     1      63.512  45.130  35.417  1.00  0.00     0.164 HD
HETATM    4  C7  UNL     1      63.390  43.621  36.963  1.00  0.00     0.297 C 
HETATM    5  O4  UNL     1      64.473  43.937  37.476  1.00  0.00    -0.266 OA
HETATM    6  C8  UNL     1      62.661  42.430  37.377  1.00  0.00     0.303 C 
HETATM    7  N9  UNL     1      61.445  42.189  36.621  1.00  0.00    -0.301 N 
ATOM      8  H9  UNL     1      60.983  41.288  36.736  1.00  0.00     0.167 HD
HETATM    9  C14 UNL     1      60.868  43.115  35.744  1.00  0.00     0.254 C 
HETATM   10  O7  UNL     1      59.842  42.801  35.061  1.00  0.00    -0.271 OA
ENDROOT
BRANCH   1  11
HETATM   11  C5  UNL     1      60.760  45.507  36.385  1.00  0.00     0.250 C 
HETATM   12  N3  UNL     1      60.218  45.322  37.670  1.00  0.00    -0.349 N 
ATOM     13  H3  UNL     1      60.321  44.415  38.125  1.00  0.00     0.163 HD
HETATM   14  O3  UNL     1      60.623  46.658  35.838  1.00  0.00    -0.271 OA
BRANCH  12  15
HETATM   15  C4  UNL     1      59.511  46.394  38.375  1.00  0.00     0.146 C 
HETATM   16  C2  UNL     1      58.084  46.043  38.557  1.00  0.00     0.173 C 
HETATM   17  O1  UNL     1      57.421  46.712  39.580  1.00  0.00    -0.354 OA
HETATM   18  C1  UNL     1      58.059  46.434  40.786  1.00  0.00     0.269 C 
HETATM   19  C16 UNL     1      59.354  47.238  40.749  1.00  0.00     0.263 C 
HETATM   20  C15 UNL     1      60.256  46.755  39.645  1.00  0.00     0.178 C 
BRANCH  16  21
HETATM   21  C3  UNL     1      57.253  46.283  37.290  1.00  0.00     0.198 C 
BRANCH  21  22
HETATM   22  O2  UNL     1      57.809  47.341  36.575  1.00  0.00    -0.398 OA
ATOM     23  H2  UNL     1      58.218  47.001  35.787  1.00  0.00     0.209 HD
ENDBRANCH  21  22
ENDBRANCH  16  21
BRANCH  18  24
HETATM   24  N2  UNL     1      57.289  46.734  41.948  1.00  0.00    -0.312 N 
ATOM     25  H2  UNL     1      57.717  46.855  42.866  1.00  0.00     0.182 HD
BRANCH  24  26
HETATM   26  N1  UNL     1      55.932  46.850  41.755  1.00  0.00    -0.347 N 
ATOM     27  H12 UNL     1      55.506  47.748  41.523  1.00  0.00     0.176 HD
ATOM     28  H11 UNL     1      55.392  45.990  41.858  1.00  0.00     0.176 HD
ENDBRANCH  24  26
ENDBRANCH  18  24
BRANCH  19  29
HETATM   29  N10 UNL     1      58.953  48.620  40.438  1.00  0.00    -0.068 N 
ATOM     30 3H10 UNL     1      58.797  49.196  41.265  1.00  0.00     0.275 HD
ATOM     31 2H10 UNL     1      59.703  49.183  40.037  1.00  0.00     0.275 HD
ATOM     32 1H10 UNL     1      58.134  48.539  39.835  1.00  0.00     0.275 HD
ENDBRANCH  19  29
BRANCH  20  33
HETATM   33  O8  UNL     1      60.921  45.599  40.081  1.00  0.00    -0.391 OA
ATOM     34  H8  UNL     1      61.774  45.868  40.400  1.00  0.00     0.210 HD
ENDBRANCH  20  33
ENDBRANCH  12  15
ENDBRANCH   1  11
BRANCH   6  35
HETATM   35  O5  UNL     1      62.219  42.542  38.723  1.00  0.00    -0.346 OA
ATOM     36  H5  UNL     1      62.193  41.692  39.147  1.00  0.00     0.215 HD
ENDBRANCH   6  35
BRANCH   6  37
HETATM   37  N5  UNL     1      63.477  41.219  37.252  1.00  0.00    -0.304 N 
HETATM   38  C9  UNL     1      63.119  40.056  38.037  1.00  0.00     0.223 C 
HETATM   39  O6  UNL     1      62.118  40.112  38.797  1.00  0.00    -0.273 OA
ATOM     40  H5  UNL     1      64.280  41.195  36.624  1.00  0.00     0.167 HD
BRANCH  38  41
HETATM   41  C10 UNL     1      63.897  38.812  37.969  1.00  0.00     0.124 C 
BRANCH  41  42
HETATM   42  C11 UNL     1      64.338  38.234  39.256  1.00  0.00     0.159 C 
BRANCH  42  43
HETATM   43  N6  UNL     1      65.644  37.641  39.238  1.00  0.00    -0.286 N 
HETATM   44  C12 UNL     1      66.326  37.052  38.265  1.00  0.00     0.201 A 
HETATM   45  N7  UNL     1      67.529  36.703  38.770  1.00  0.00    -0.346 N 
HETATM   46  C13 UNL     1      67.604  37.074  40.066  1.00  0.00     0.198 A 
ATOM     47  H7  UNL     1      68.269  36.231  38.251  1.00  0.00     0.167 HD
HETATM   48  N8  UNL     1      66.431  37.651  40.335  1.00  0.00    -0.293 N 
ATOM     49  H8  UNL     1      66.167  38.043  41.240  1.00  0.00     0.188 HD
ENDBRANCH  42  43
ENDBRANCH  41  42
ENDBRANCH  38  41
ENDBRANCH   6  37
TORSDOF 13
ENDMDL
