MODEL 1
REMARK VINA RESULT: -7.012839317      0.000      0.000
REMARK  7 active torsions:
REMARK  status: ('A' for Active; 'I' for Inactive)
REMARK    1  A    between atoms: O1_2  and  C2_3 
REMARK       I    between atoms: C2_3  and  N1_5 
REMARK    2  A    between atoms: C3_7  and  C4_9 
REMARK    3  A    between atoms: C4_9  and  N3_10 
REMARK    4  A    between atoms: C4_9  and  C8_28 
REMARK    5  A    between atoms: N3_10  and  N4_12 
REMARK    6  A    between atoms: C7_22  and  N8_23 
REMARK    7  A    between atoms: N8_23  and  N9_25 
ROOT
HETATM    1  N4  UNL     1      37.186  -1.737  13.915  1.00  0.00    -0.073 N 
HETATM    2  C5  UNL     1      38.134  -2.442  14.684  1.00  0.00     0.134 C 
HETATM    3  N5  UNL     1      37.822  -3.401  15.454  1.00  0.00    -0.386 N 
ATOM      4  H51 UNL     1      38.507  -3.911  16.010  1.00  0.00     0.157 HD
ATOM      5  H52 UNL     1      36.849  -3.705  15.506  1.00  0.00     0.157 HD
HETATM    6  C6  UNL     1      39.558  -1.996  14.608  1.00  0.00     0.218 C 
HETATM    7  N6  UNL     1      39.494  -0.551  14.904  1.00  0.00    -0.315 N 
ATOM      8  H6  UNL     1      40.085  -0.115  15.612  1.00  0.00     0.181 HD
HETATM    9  N7  UNL     1      38.573   0.182  14.153  1.00  0.00    -0.133 N 
ATOM     10  H7  UNL     1      38.761   1.167  13.971  1.00  0.00     0.205 HD
HETATM   11  C7  UNL     1      37.476  -0.353  13.672  1.00  0.00     0.738 C 
ENDROOT
BRANCH   1  12
HETATM   12  N3  UNL     1      36.062  -2.329  13.417  1.00  0.00    -0.292 N 
ATOM     13  H3  UNL     1      35.155  -2.174  13.856  1.00  0.00     0.183 HD
BRANCH  12  14
HETATM   14  C4  UNL     1      36.179  -3.164  12.273  1.00  0.00     0.265 C 
BRANCH  14  15
HETATM   15  C3  UNL     1      35.650  -4.546  12.549  1.00  0.00     0.132 C 
HETATM   16  N1  UNL     1      34.579  -4.943  11.982  1.00  0.00    -0.292 N 
HETATM   17  C2  UNL     1      33.983  -6.197  12.151  1.00  0.00     0.365 C 
ATOM     18  H1  UNL     1      34.117  -4.289  11.349  1.00  0.00     0.172 HD
HETATM   19  O2  UNL     1      32.813  -6.291  12.624  1.00  0.00    -0.238 OA
HETATM   20  N2  UNL     1      36.328  -5.416  13.435  1.00  0.00    -0.085 NA
BRANCH  17  21
HETATM   21  O1  UNL     1      34.611  -7.402  11.823  1.00  0.00    -0.309 OA
HETATM   22  C1  UNL     1      35.033  -7.648  10.494  1.00  0.00     0.215 C 
ENDBRANCH  17  21
ENDBRANCH  14  15
BRANCH  14  23
HETATM   23  C8  UNL     1      35.390  -2.616  11.150  1.00  0.00     0.205 C 
HETATM   24  O5  UNL     1      35.226  -3.166  10.054  1.00  0.00    -0.646 OA
HETATM   25  O6  UNL     1      34.800  -1.359  11.410  1.00  0.00    -0.646 OA
ENDBRANCH  14  23
ENDBRANCH  12  14
ENDBRANCH   1  12
BRANCH  11  26
HETATM   26  N8  UNL     1      36.537   0.394  12.931  1.00  0.00    -0.069 N 
ATOM     27  H8  UNL     1      35.858  -0.106  12.356  1.00  0.00     0.212 HD
BRANCH  26  28
HETATM   28  N9  UNL     1      36.498   1.778  12.951  1.00  0.00    -0.024 N 
HETATM   29  O3  UNL     1      37.403   2.414  12.397  1.00  0.00    -0.516 OA
HETATM   30  O4  UNL     1      35.473   2.427  13.575  1.00  0.00    -0.516 OA
ENDBRANCH  26  28
ENDBRANCH  11  26
TORSDOF 7
ENDMDL
MODEL 2
REMARK VINA RESULT: -6.327228163      1.643      1.983
REMARK  7 active torsions:
REMARK  status: ('A' for Active; 'I' for Inactive)
REMARK    1  A    between atoms: O1_2  and  C2_3 
REMARK       I    between atoms: C2_3  and  N1_5 
REMARK    2  A    between atoms: C3_7  and  C4_9 
REMARK    3  A    between atoms: C4_9  and  N3_10 
REMARK    4  A    between atoms: C4_9  and  C8_28 
REMARK    5  A    between atoms: N3_10  and  N4_12 
REMARK    6  A    between atoms: C7_22  and  N8_23 
REMARK    7  A    between atoms: N8_23  and  N9_25 
ROOT
HETATM    1  N4  UNL     1      38.109  -0.649  12.995  1.00  0.00    -0.073 N 
HETATM    2  C5  UNL     1      39.469  -1.008  13.084  1.00  0.00     0.134 C 
HETATM    3  N5  UNL     1      39.875  -2.015  13.741  1.00  0.00    -0.386 N 
ATOM      4  H51 UNL     1      40.859  -2.275  13.805  1.00  0.00     0.157 HD
ATOM      5  H52 UNL     1      39.194  -2.617  14.205  1.00  0.00     0.157 HD
HETATM    6  C6  UNL     1      40.465  -0.126  12.404  1.00  0.00     0.218 C 
HETATM    7  N6  UNL     1      40.160   1.222  12.926  1.00  0.00    -0.315 N 
ATOM      8  H6  UNL     1      40.881   1.827  13.321  1.00  0.00     0.181 HD
HETATM    9  N7  UNL     1      38.824   1.616  12.843  1.00  0.00    -0.133 N 
ATOM     10  H7  UNL     1      38.609   2.609  12.757  1.00  0.00     0.205 HD
HETATM   11  C7  UNL     1      37.835   0.755  12.872  1.00  0.00     0.738 C 
ENDROOT
BRANCH   1  12
HETATM   12  N3  UNL     1      37.105  -1.573  13.012  1.00  0.00    -0.292 N 
ATOM     13  H3  UNL     1      36.451  -1.615  13.793  1.00  0.00     0.183 HD
BRANCH  12  14
HETATM   14  C4  UNL     1      36.988  -2.475  11.920  1.00  0.00     0.265 C 
BRANCH  14  15
HETATM   15  C3  UNL     1      37.108  -3.904  12.377  1.00  0.00     0.132 C 
HETATM   16  N1  UNL     1      36.077  -4.529  12.790  1.00  0.00    -0.292 N 
HETATM   17  C2  UNL     1      36.051  -5.854  13.241  1.00  0.00     0.365 C 
ATOM     18  H1  UNL     1      35.193  -4.019  12.793  1.00  0.00     0.172 HD
HETATM   19  O2  UNL     1      35.698  -6.120  14.426  1.00  0.00    -0.238 OA
HETATM   20  N2  UNL     1      38.358  -4.568  12.354  1.00  0.00    -0.085 NA
BRANCH  17  21
HETATM   21  O1  UNL     1      36.403  -6.948  12.445  1.00  0.00    -0.309 OA
HETATM   22  C1  UNL     1      35.620  -7.289  11.316  1.00  0.00     0.215 C 
ENDBRANCH  17  21
ENDBRANCH  14  15
BRANCH  14  23
HETATM   23  C8  UNL     1      35.665  -2.338  11.276  1.00  0.00     0.205 C 
HETATM   24  O5  UNL     1      35.158  -3.156  10.499  1.00  0.00    -0.646 OA
HETATM   25  O6  UNL     1      34.972  -1.153  11.613  1.00  0.00    -0.646 OA
ENDBRANCH  14  23
ENDBRANCH  12  14
ENDBRANCH   1  12
BRANCH  11  26
HETATM   26  N8  UNL     1      36.484   1.156  12.809  1.00  0.00    -0.069 N 
ATOM     27  H8  UNL     1      35.767   0.442  12.686  1.00  0.00     0.212 HD
BRANCH  26  28
HETATM   28  N9  UNL     1      36.093   2.481  12.907  1.00  0.00    -0.024 N 
HETATM   29  O3  UNL     1      35.375   2.829  13.853  1.00  0.00    -0.516 OA
HETATM   30  O4  UNL     1      36.496   3.387  11.970  1.00  0.00    -0.516 OA
ENDBRANCH  26  28
ENDBRANCH  11  26
TORSDOF 7
ENDMDL
MODEL 3
REMARK VINA RESULT: -6.281489622      1.439      1.909
REMARK  7 active torsions:
REMARK  status: ('A' for Active; 'I' for Inactive)
REMARK    1  A    between atoms: O1_2  and  C2_3 
REMARK       I    between atoms: C2_3  and  N1_5 
REMARK    2  A    between atoms: C3_7  and  C4_9 
REMARK    3  A    between atoms: C4_9  and  N3_10 
REMARK    4  A    between atoms: C4_9  and  C8_28 
REMARK    5  A    between atoms: N3_10  and  N4_12 
REMARK    6  A    between atoms: C7_22  and  N8_23 
REMARK    7  A    between atoms: N8_23  and  N9_25 
ROOT
HETATM    1  N4  UNL     1      37.441  -1.087  13.530  1.00  0.00    -0.073 N 
HETATM    2  C5  UNL     1      38.615  -1.662  14.055  1.00  0.00     0.134 C 
HETATM    3  N5  UNL     1      38.604  -2.679  14.814  1.00  0.00    -0.386 N 
ATOM      4  H51 UNL     1      39.454  -3.095  15.194  1.00  0.00     0.157 HD
ATOM      5  H52 UNL     1      37.716  -3.128  15.037  1.00  0.00     0.157 HD
HETATM    6  C6  UNL     1      39.916  -1.004  13.728  1.00  0.00     0.218 C 
HETATM    7  N6  UNL     1      39.708   0.406  14.115  1.00  0.00    -0.315 N 
ATOM      8  H6  UNL     1      40.363   0.905  14.718  1.00  0.00     0.181 HD
HETATM    9  N7  UNL     1      38.560   1.012  13.603  1.00  0.00    -0.133 N 
ATOM     10  H7  UNL     1      38.565   2.020  13.446  1.00  0.00     0.205 HD
HETATM   11  C7  UNL     1      37.475   0.332  13.316  1.00  0.00     0.738 C 
ENDROOT
BRANCH   1  12
HETATM   12  N3  UNL     1      36.335  -1.826  13.227  1.00  0.00    -0.292 N 
ATOM     13  H3  UNL     1      35.478  -1.725  13.770  1.00  0.00     0.183 HD
BRANCH  12  14
HETATM   14  C4  UNL     1      36.399  -2.740  12.141  1.00  0.00     0.265 C 
BRANCH  14  15
HETATM   15  C3  UNL     1      35.989  -4.124  12.565  1.00  0.00     0.132 C 
HETATM   16  N1  UNL     1      36.756  -5.115  12.332  1.00  0.00    -0.292 N 
HETATM   17  C2  UNL     1      36.496  -6.447  12.672  1.00  0.00     0.365 C 
ATOM     18  H1  UNL     1      37.638  -4.920  11.857  1.00  0.00     0.172 HD
HETATM   19  O2  UNL     1      36.410  -7.332  11.773  1.00  0.00    -0.238 OA
HETATM   20  N2  UNL     1      34.755  -4.343  13.223  1.00  0.00    -0.085 NA
BRANCH  17  21
HETATM   21  O1  UNL     1      36.314  -6.888  13.986  1.00  0.00    -0.309 OA
HETATM   22  C1  UNL     1      35.224  -7.731  14.312  1.00  0.00     0.215 C 
ENDBRANCH  17  21
ENDBRANCH  14  15
BRANCH  14  23
HETATM   23  C8  UNL     1      35.476  -2.327  11.063  1.00  0.00     0.205 C 
HETATM   24  O5  UNL     1      34.952  -1.212  10.957  1.00  0.00    -0.646 OA
HETATM   25  O6  UNL     1      35.208  -3.333  10.107  1.00  0.00    -0.646 OA
ENDBRANCH  14  23
ENDBRANCH  12  14
ENDBRANCH   1  12
BRANCH  11  26
HETATM   26  N8  UNL     1      36.309   0.950  12.818  1.00  0.00    -0.069 N 
ATOM     27  H8  UNL     1      35.608   0.371  12.357  1.00  0.00     0.212 HD
BRANCH  26  28
HETATM   28  N9  UNL     1      36.078   2.310  12.930  1.00  0.00    -0.024 N 
HETATM   29  O3  UNL     1      35.380   2.729  13.863  1.00  0.00    -0.516 OA
HETATM   30  O4  UNL     1      36.614   3.175  12.021  1.00  0.00    -0.516 OA
ENDBRANCH  26  28
ENDBRANCH  11  26
TORSDOF 7
ENDMDL
MODEL 4
REMARK VINA RESULT: -6.208626077      2.489      5.880
REMARK  7 active torsions:
REMARK  status: ('A' for Active; 'I' for Inactive)
REMARK    1  A    between atoms: O1_2  and  C2_3 
REMARK       I    between atoms: C2_3  and  N1_5 
REMARK    2  A    between atoms: C3_7  and  C4_9 
REMARK    3  A    between atoms: C4_9  and  N3_10 
REMARK    4  A    between atoms: C4_9  and  C8_28 
REMARK    5  A    between atoms: N3_10  and  N4_12 
REMARK    6  A    between atoms: C7_22  and  N8_23 
REMARK    7  A    between atoms: N8_23  and  N9_25 
ROOT
HETATM    1  N4  UNL     1      38.672  -2.636  11.937  1.00  0.00    -0.073 N 
HETATM    2  C5  UNL     1      39.789  -1.777  11.954  1.00  0.00     0.134 C 
HETATM    3  N5  UNL     1      40.117  -1.054  10.964  1.00  0.00    -0.386 N 
ATOM      4  H51 UNL     1      40.925  -0.432  10.977  1.00  0.00     0.157 HD
ATOM      5  H52 UNL     1      39.538  -1.062  10.125  1.00  0.00     0.157 HD
HETATM    6  C6  UNL     1      40.636  -1.766  13.184  1.00  0.00     0.218 C 
HETATM    7  N6  UNL     1      40.965  -3.189  13.403  1.00  0.00    -0.315 N 
ATOM      8  H6  UNL     1      41.924  -3.509  13.544  1.00  0.00     0.181 HD
HETATM    9  N7  UNL     1      39.881  -4.068  13.404  1.00  0.00    -0.133 N 
ATOM     10  H7  UNL     1      39.944  -4.924  13.954  1.00  0.00     0.205 HD
HETATM   11  C7  UNL     1      38.785  -3.832  12.722  1.00  0.00     0.738 C 
ENDROOT
BRANCH   1  12
HETATM   12  N3  UNL     1      37.540  -2.352  11.230  1.00  0.00    -0.292 N 
ATOM     13  H3  UNL     1      37.490  -2.547  10.230  1.00  0.00     0.183 HD
BRANCH  12  14
HETATM   14  C4  UNL     1      36.433  -1.780  11.912  1.00  0.00     0.265 C 
BRANCH  14  15
HETATM   15  C3  UNL     1      36.466  -0.277  11.843  1.00  0.00     0.132 C 
HETATM   16  N1  UNL     1      36.359   0.411  12.911  1.00  0.00    -0.292 N 
HETATM   17  C2  UNL     1      36.373   1.809  12.987  1.00  0.00     0.365 C 
ATOM     18  H1  UNL     1      36.254  -0.101  13.787  1.00  0.00     0.172 HD
HETATM   19  O2  UNL     1      35.372   2.436  13.438  1.00  0.00    -0.238 OA
HETATM   20  N2  UNL     1      36.614   0.387  10.603  1.00  0.00    -0.085 NA
BRANCH  17  21
HETATM   21  O1  UNL     1      37.457   2.593  12.582  1.00  0.00    -0.309 OA
HETATM   22  C1  UNL     1      38.768   2.276  13.014  1.00  0.00     0.215 C 
ENDBRANCH  17  21
ENDBRANCH  14  15
BRANCH  14  23
HETATM   23  C8  UNL     1      35.163  -2.213  11.291  1.00  0.00     0.205 C 
HETATM   24  O5  UNL     1      34.272  -1.459  10.883  1.00  0.00    -0.646 OA
HETATM   25  O6  UNL     1      35.015  -3.614  11.182  1.00  0.00    -0.646 OA
ENDBRANCH  14  23
ENDBRANCH  12  14
ENDBRANCH   1  12
BRANCH  11  26
HETATM   26  N8  UNL     1      37.699  -4.731  12.709  1.00  0.00    -0.069 N 
ATOM     27  H8  UNL     1      37.386  -5.107  11.814  1.00  0.00     0.212 HD
BRANCH  26  28
HETATM   28  N9  UNL     1      37.039  -5.124  13.861  1.00  0.00    -0.024 N 
HETATM   29  O3  UNL     1      37.639  -5.086  14.942  1.00  0.00    -0.516 OA
HETATM   30  O4  UNL     1      35.742  -5.546  13.800  1.00  0.00    -0.516 OA
ENDBRANCH  26  28
ENDBRANCH  11  26
TORSDOF 7
ENDMDL
MODEL 5
REMARK VINA RESULT: -6.155491383      1.458      1.604
REMARK  7 active torsions:
REMARK  status: ('A' for Active; 'I' for Inactive)
REMARK    1  A    between atoms: O1_2  and  C2_3 
REMARK       I    between atoms: C2_3  and  N1_5 
REMARK    2  A    between atoms: C3_7  and  C4_9 
REMARK    3  A    between atoms: C4_9  and  N3_10 
REMARK    4  A    between atoms: C4_9  and  C8_28 
REMARK    5  A    between atoms: N3_10  and  N4_12 
REMARK    6  A    between atoms: C7_22  and  N8_23 
REMARK    7  A    between atoms: N8_23  and  N9_25 
ROOT
HETATM    1  N4  UNL     1      37.500  -0.495  13.853  1.00  0.00    -0.073 N 
HETATM    2  C5  UNL     1      38.100  -1.255  14.876  1.00  0.00     0.134 C 
HETATM    3  N5  UNL     1      37.433  -1.949  15.702  1.00  0.00    -0.386 N 
ATOM      4  H51 UNL     1      37.867  -2.499  16.443  1.00  0.00     0.157 HD
ATOM      5  H52 UNL     1      36.417  -1.991  15.615  1.00  0.00     0.157 HD
HETATM    6  C6  UNL     1      39.588  -1.194  15.004  1.00  0.00     0.218 C 
HETATM    7  N6  UNL     1      39.879   0.253  15.075  1.00  0.00    -0.315 N 
ATOM      8  H6  UNL     1      40.459   0.654  15.812  1.00  0.00     0.181 HD
HETATM    9  N7  UNL     1      39.309   1.036  14.070  1.00  0.00    -0.133 N 
ATOM     10  H7  UNL     1      39.782   1.894  13.789  1.00  0.00     0.205 HD
HETATM   11  C7  UNL     1      38.188   0.707  13.474  1.00  0.00     0.738 C 
ENDROOT
BRANCH   1  12
HETATM   12  N3  UNL     1      36.340  -0.875  13.242  1.00  0.00    -0.292 N 
ATOM     13  H3  UNL     1      35.440  -0.535  13.580  1.00  0.00     0.183 HD
BRANCH  12  14
HETATM   14  C4  UNL     1      36.411  -1.753  12.127  1.00  0.00     0.265 C 
BRANCH  14  15
HETATM   15  C3  UNL     1      35.844  -3.107  12.460  1.00  0.00     0.132 C 
HETATM   16  N1  UNL     1      35.768  -4.004  11.558  1.00  0.00    -0.292 N 
HETATM   17  C2  UNL     1      35.265  -5.298  11.734  1.00  0.00     0.365 C 
ATOM     18  H1  UNL     1      36.104  -3.758  10.626  1.00  0.00     0.172 HD
HETATM   19  O2  UNL     1      34.257  -5.688  11.076  1.00  0.00    -0.238 OA
HETATM   20  N2  UNL     1      35.392  -3.399  13.769  1.00  0.00    -0.085 NA
BRANCH  17  21
HETATM   21  O1  UNL     1      35.815  -6.227  12.622  1.00  0.00    -0.309 OA
HETATM   22  C1  UNL     1      34.979  -6.944  13.512  1.00  0.00     0.215 C 
ENDBRANCH  17  21
ENDBRANCH  14  15
BRANCH  14  23
HETATM   23  C8  UNL     1      35.618  -1.219  10.999  1.00  0.00     0.205 C 
HETATM   24  O5  UNL     1      34.537  -1.673  10.605  1.00  0.00    -0.646 OA
HETATM   25  O6  UNL     1      36.196  -0.100  10.359  1.00  0.00    -0.646 OA
ENDBRANCH  14  23
ENDBRANCH  12  14
ENDBRANCH   1  12
BRANCH  11  26
HETATM   26  N8  UNL     1      37.603   1.510  12.473  1.00  0.00    -0.069 N 
ATOM     27  H8  UNL     1      37.863   1.346  11.501  1.00  0.00     0.212 HD
BRANCH  26  28
HETATM   28  N9  UNL     1      36.690   2.512  12.757  1.00  0.00    -0.024 N 
HETATM   29  O3  UNL     1      36.880   3.647  12.303  1.00  0.00    -0.516 OA
HETATM   30  O4  UNL     1      35.596   2.245  13.528  1.00  0.00    -0.516 OA
ENDBRANCH  26  28
ENDBRANCH  11  26
TORSDOF 7
ENDMDL
