MODEL 1
REMARK VINA RESULT: -6.658582979      0.000      0.000
REMARK  5 active torsions:
REMARK  status: ('A' for Active; 'I' for Inactive)
REMARK    1  A    between atoms: N1_1  and  N2_4 
REMARK       I    between atoms: N2_4  and  C1_6 
REMARK    2  A    between atoms: C1_6  and  C2_8 
REMARK    3  A    between atoms: N4_12  and  C4_13 
REMARK    4  A    between atoms: C4_13  and  C5_14 
REMARK    5  A    between atoms: C5_14  and  N5_15 
ROOT
HETATM    1  C2  UNL     1      35.929  -4.494  12.487  1.00  0.00     0.161 A 
HETATM    2  N3  UNL     1      36.360  -3.288  12.130  1.00  0.00    -0.181 N 
ATOM      3  H3  UNL     1      36.098  -2.820  11.261  1.00  0.00     0.184 HD
HETATM    4  C3  UNL     1      37.202  -2.750  13.074  1.00  0.00     0.703 A 
HETATM    5  N4  UNL     1      37.893  -1.640  13.245  1.00  0.00    -0.138 N 
HETATM    6  C7  UNL     1      38.613  -1.519  14.360  1.00  0.00     0.321 A 
HETATM    7  O2  UNL     1      39.347  -0.529  14.714  1.00  0.00    -0.257 OA
HETATM    8  S1  UNL     1      38.297  -2.994  15.157  1.00  0.00     0.074 SA
HETATM    9  N8  UNL     1      37.263  -3.679  14.019  1.00  0.00    -0.095 N 
HETATM   10  C8  UNL     1      36.501  -4.769  13.709  1.00  0.00     0.179 A 
HETATM   11  N9  UNL     1      36.345  -5.922  14.487  1.00  0.00    -0.078 NA
ENDROOT
BRANCH   1  12
HETATM   12  C1  UNL     1      35.014  -5.367  11.720  1.00  0.00     0.290 C 
HETATM   13  N2  UNL     1      33.842  -5.873  12.332  1.00  0.00    -0.271 N 
ATOM     14  H2  UNL     1      33.621  -5.642  13.301  1.00  0.00     0.189 HD
HETATM   15  O1  UNL     1      35.314  -5.631  10.535  1.00  0.00    -0.264 OA
BRANCH  13  16
HETATM   16  N1  UNL     1      32.999  -6.690  11.594  1.00  0.00    -0.342 N 
ATOM     17  H12 UNL     1      33.390  -7.294  10.871  1.00  0.00     0.176 HD
ATOM     18  H11 UNL     1      31.998  -6.671  11.789  1.00  0.00     0.176 HD
ENDBRANCH  13  16
ENDBRANCH   1  12
BRANCH   5  19
HETATM   19  C4  UNL     1      37.900  -0.530  12.253  1.00  0.00     0.171 C 
BRANCH  19  20
HETATM   20  C5  UNL     1      36.686   0.321  12.401  1.00  0.00     0.143 C 
BRANCH  20  21
HETATM   21  N5  UNL     1      36.820   1.303  13.463  1.00  0.00    -0.365 N 
HETATM   22  C6  UNL     1      36.985   2.547  13.162  1.00  0.00     0.197 C 
HETATM   23  N6  UNL     1      37.116   3.513  14.204  1.00  0.00    -0.067 NA
HETATM   24  N7  UNL     1      37.045   3.021  11.833  1.00  0.00    -0.067 NA
ATOM     25  H5  UNL     1      36.783   1.010  14.439  1.00  0.00     0.161 HD
ENDBRANCH  20  21
ENDBRANCH  19  20
ENDBRANCH   5  19
TORSDOF 5
ENDMDL
MODEL 2
REMARK VINA RESULT: -6.585117926      1.530      1.779
REMARK  5 active torsions:
REMARK  status: ('A' for Active; 'I' for Inactive)
REMARK    1  A    between atoms: N1_1  and  N2_4 
REMARK       I    between atoms: N2_4  and  C1_6 
REMARK    2  A    between atoms: C1_6  and  C2_8 
REMARK    3  A    between atoms: N4_12  and  C4_13 
REMARK    4  A    between atoms: C4_13  and  C5_14 
REMARK    5  A    between atoms: C5_14  and  N5_15 
ROOT
HETATM    1  C2  UNL     1      34.805  -5.687  12.563  1.00  0.00     0.161 A 
HETATM    2  N3  UNL     1      35.149  -4.507  12.054  1.00  0.00    -0.181 N 
ATOM      3  H3  UNL     1      34.683  -4.068  11.260  1.00  0.00     0.184 HD
HETATM    4  C3  UNL     1      36.210  -3.954  12.730  1.00  0.00     0.703 A 
HETATM    5  N4  UNL     1      36.939  -2.856  12.672  1.00  0.00    -0.138 N 
HETATM    6  C7  UNL     1      37.919  -2.710  13.562  1.00  0.00     0.321 A 
HETATM    7  O2  UNL     1      38.734  -1.726  13.675  1.00  0.00    -0.257 OA
HETATM    8  S1  UNL     1      37.794  -4.143  14.479  1.00  0.00     0.074 SA
HETATM    9  N8  UNL     1      36.495  -4.846  13.670  1.00  0.00    -0.095 N 
HETATM   10  C8  UNL     1      35.663  -5.927  13.611  1.00  0.00     0.179 A 
HETATM   11  N9  UNL     1      35.692  -7.044  14.455  1.00  0.00    -0.078 NA
ENDROOT
BRANCH   1  12
HETATM   12  C1  UNL     1      33.713  -6.565  12.091  1.00  0.00     0.290 C 
HETATM   13  N2  UNL     1      33.988  -7.910  11.742  1.00  0.00    -0.271 N 
ATOM     14  H2  UNL     1      34.936  -8.280  11.814  1.00  0.00     0.189 HD
HETATM   15  O1  UNL     1      32.563  -6.080  12.014  1.00  0.00    -0.264 OA
BRANCH  13  16
HETATM   16  N1  UNL     1      32.949  -8.715  11.302  1.00  0.00    -0.342 N 
ATOM     17  H12 UNL     1      32.032  -8.641  11.743  1.00  0.00     0.176 HD
ATOM     18  H11 UNL     1      33.121  -9.370  10.540  1.00  0.00     0.176 HD
ENDBRANCH  13  16
ENDBRANCH   1  12
BRANCH   5  19
HETATM   19  C4  UNL     1      36.711  -1.787  11.661  1.00  0.00     0.171 C 
BRANCH  19  20
HETATM   20  C5  UNL     1      36.296  -0.516  12.318  1.00  0.00     0.143 C 
BRANCH  20  21
HETATM   21  N5  UNL     1      37.304   0.524  12.205  1.00  0.00    -0.365 N 
HETATM   22  C6  UNL     1      37.146   1.635  12.844  1.00  0.00     0.197 C 
HETATM   23  N6  UNL     1      38.135   2.658  12.735  1.00  0.00    -0.067 NA
HETATM   24  N7  UNL     1      36.028   1.904  13.665  1.00  0.00    -0.067 NA
ATOM     25  H5  UNL     1      38.130   0.378  11.625  1.00  0.00     0.161 HD
ENDBRANCH  20  21
ENDBRANCH  19  20
ENDBRANCH   5  19
TORSDOF 5
ENDMDL
MODEL 3
REMARK VINA RESULT: -6.381296811      2.245      4.628
REMARK  5 active torsions:
REMARK  status: ('A' for Active; 'I' for Inactive)
REMARK    1  A    between atoms: N1_1  and  N2_4 
REMARK       I    between atoms: N2_4  and  C1_6 
REMARK    2  A    between atoms: C1_6  and  C2_8 
REMARK    3  A    between atoms: N4_12  and  C4_13 
REMARK    4  A    between atoms: C4_13  and  C5_14 
REMARK    5  A    between atoms: C5_14  and  N5_15 
ROOT
HETATM    1  C2  UNL     1      38.188  -2.538  15.485  1.00  0.00     0.161 A 
HETATM    2  N3  UNL     1      37.533  -1.793  14.599  1.00  0.00    -0.181 N 
ATOM      3  H3  UNL     1      37.443  -0.778  14.658  1.00  0.00     0.184 HD
HETATM    4  C3  UNL     1      36.993  -2.559  13.593  1.00  0.00     0.703 A 
HETATM    5  N4  UNL     1      36.278  -2.372  12.501  1.00  0.00    -0.138 N 
HETATM    6  C7  UNL     1      35.954  -3.442  11.777  1.00  0.00     0.321 A 
HETATM    7  O2  UNL     1      35.271  -3.475  10.691  1.00  0.00    -0.257 OA
HETATM    8  S1  UNL     1      36.674  -4.711  12.661  1.00  0.00     0.074 SA
HETATM    9  N8  UNL     1      37.347  -3.799  13.906  1.00  0.00    -0.095 N 
HETATM   10  C8  UNL     1      38.081  -3.841  15.057  1.00  0.00     0.179 A 
HETATM   11  N9  UNL     1      38.610  -4.987  15.662  1.00  0.00    -0.078 NA
ENDROOT
BRANCH   1  12
HETATM   12  C1  UNL     1      38.891  -2.055  16.693  1.00  0.00     0.290 C 
HETATM   13  N2  UNL     1      38.405  -2.398  17.978  1.00  0.00    -0.271 N 
ATOM     14  H2  UNL     1      37.571  -2.978  18.079  1.00  0.00     0.189 HD
HETATM   15  O1  UNL     1      39.910  -1.348  16.534  1.00  0.00    -0.264 OA
BRANCH  13  16
HETATM   16  N1  UNL     1      39.080  -1.935  19.097  1.00  0.00    -0.342 N 
ATOM     17  H12 UNL     1      39.979  -2.346  19.349  1.00  0.00     0.176 HD
ATOM     18  H11 UNL     1      38.663  -1.187  19.650  1.00  0.00     0.176 HD
ENDBRANCH  13  16
ENDBRANCH   1  12
BRANCH   5  19
HETATM   19  C4  UNL     1      35.824  -1.027  12.052  1.00  0.00     0.171 C 
BRANCH  19  20
HETATM   20  C5  UNL     1      36.855   0.007  12.346  1.00  0.00     0.143 C 
BRANCH  20  21
HETATM   21  N5  UNL     1      36.408   0.975  13.332  1.00  0.00    -0.365 N 
HETATM   22  C6  UNL     1      36.544   2.237  13.092  1.00  0.00     0.197 C 
HETATM   23  N6  UNL     1      36.105   3.189  14.059  1.00  0.00    -0.067 NA
HETATM   24  N7  UNL     1      37.112   2.741  11.901  1.00  0.00    -0.067 NA
ATOM     25  H5  UNL     1      35.991   0.660  14.208  1.00  0.00     0.161 HD
ENDBRANCH  20  21
ENDBRANCH  19  20
ENDBRANCH   5  19
TORSDOF 5
ENDMDL
MODEL 4
REMARK VINA RESULT: -6.356557862      1.345      1.414
REMARK  5 active torsions:
REMARK  status: ('A' for Active; 'I' for Inactive)
REMARK    1  A    between atoms: N1_1  and  N2_4 
REMARK       I    between atoms: N2_4  and  C1_6 
REMARK    2  A    between atoms: C1_6  and  C2_8 
REMARK    3  A    between atoms: N4_12  and  C4_13 
REMARK    4  A    between atoms: C4_13  and  C5_14 
REMARK    5  A    between atoms: C5_14  and  N5_15 
ROOT
HETATM    1  C2  UNL     1      35.687  -4.937  12.983  1.00  0.00     0.161 A 
HETATM    2  N3  UNL     1      35.791  -3.704  12.495  1.00  0.00    -0.181 N 
ATOM      3  H3  UNL     1      35.045  -3.221  11.993  1.00  0.00     0.184 HD
HETATM    4  C3  UNL     1      37.029  -3.162  12.748  1.00  0.00     0.703 A 
HETATM    5  N4  UNL     1      37.665  -2.031  12.512  1.00  0.00    -0.138 N 
HETATM    6  C7  UNL     1      38.916  -1.915  12.954  1.00  0.00     0.321 A 
HETATM    7  O2  UNL     1      39.701  -0.908  12.830  1.00  0.00    -0.257 OA
HETATM    8  S1  UNL     1      39.177  -3.424  13.706  1.00  0.00     0.074 SA
HETATM    9  N8  UNL     1      37.670  -4.115  13.410  1.00  0.00    -0.095 N 
HETATM   10  C8  UNL     1      36.892  -5.225  13.582  1.00  0.00     0.179 A 
HETATM   11  N9  UNL     1      37.263  -6.406  14.236  1.00  0.00    -0.078 NA
ENDROOT
BRANCH   1  12
HETATM   12  C1  UNL     1      34.505  -5.821  12.898  1.00  0.00     0.290 C 
HETATM   13  N2  UNL     1      33.768  -5.902  11.691  1.00  0.00    -0.271 N 
ATOM     14  H2  UNL     1      34.046  -5.354  10.877  1.00  0.00     0.189 HD
HETATM   15  O1  UNL     1      34.191  -6.479  13.914  1.00  0.00    -0.264 OA
BRANCH  13  16
HETATM   16  N1  UNL     1      32.663  -6.737  11.634  1.00  0.00    -0.342 N 
ATOM     17  H12 UNL     1      32.544  -7.463  12.341  1.00  0.00     0.176 HD
ATOM     18  H11 UNL     1      31.986  -6.608  10.883  1.00  0.00     0.176 HD
ENDBRANCH  13  16
ENDBRANCH   1  12
BRANCH   5  19
HETATM   19  C4  UNL     1      37.046  -0.892  11.779  1.00  0.00     0.171 C 
BRANCH  19  20
HETATM   20  C5  UNL     1      36.711   0.220  12.712  1.00  0.00     0.143 C 
BRANCH  20  21
HETATM   21  N5  UNL     1      37.474   1.425  12.439  1.00  0.00    -0.365 N 
HETATM   22  C6  UNL     1      37.086   2.550  12.940  1.00  0.00     0.197 C 
HETATM   23  N6  UNL     1      37.834   3.735  12.673  1.00  0.00    -0.067 NA
HETATM   24  N7  UNL     1      35.940   2.681  13.755  1.00  0.00    -0.067 NA
ATOM     25  H5  UNL     1      38.310   1.383  11.856  1.00  0.00     0.161 HD
ENDBRANCH  20  21
ENDBRANCH  19  20
ENDBRANCH   5  19
TORSDOF 5
ENDMDL
MODEL 5
REMARK VINA RESULT: -6.279654395      2.436      6.382
REMARK  5 active torsions:
REMARK  status: ('A' for Active; 'I' for Inactive)
REMARK    1  A    between atoms: N1_1  and  N2_4 
REMARK       I    between atoms: N2_4  and  C1_6 
REMARK    2  A    between atoms: C1_6  and  C2_8 
REMARK    3  A    between atoms: N4_12  and  C4_13 
REMARK    4  A    between atoms: C4_13  and  C5_14 
REMARK    5  A    between atoms: C5_14  and  N5_15 
ROOT
HETATM    1  C2  UNL     1      37.913   0.795  13.452  1.00  0.00     0.161 A 
HETATM    2  N3  UNL     1      37.405  -0.382  13.806  1.00  0.00    -0.181 N 
ATOM      3  H3  UNL     1      36.462  -0.512  14.174  1.00  0.00     0.184 HD
HETATM    4  C3  UNL     1      38.306  -1.402  13.615  1.00  0.00     0.703 A 
HETATM    5  N4  UNL     1      38.350  -2.709  13.783  1.00  0.00    -0.138 N 
HETATM    6  C7  UNL     1      39.475  -3.343  13.455  1.00  0.00     0.321 A 
HETATM    7  O2  UNL     1      39.720  -4.599  13.540  1.00  0.00    -0.257 OA
HETATM    8  S1  UNL     1      40.465  -2.065  12.908  1.00  0.00     0.074 SA
HETATM    9  N8  UNL     1      39.382  -0.796  13.131  1.00  0.00    -0.095 N 
HETATM   10  C8  UNL     1      39.194   0.552  13.012  1.00  0.00     0.179 A 
HETATM   11  N9  UNL     1      40.126   1.481  12.535  1.00  0.00    -0.078 NA
ENDROOT
BRANCH   1  12
HETATM   12  C1  UNL     1      37.232   2.106  13.521  1.00  0.00     0.290 C 
HETATM   13  N2  UNL     1      37.985   3.300  13.404  1.00  0.00    -0.271 N 
ATOM     14  H2  UNL     1      38.996   3.264  13.271  1.00  0.00     0.189 HD
HETATM   15  O1  UNL     1      35.993   2.114  13.684  1.00  0.00    -0.264 OA
BRANCH  13  16
HETATM   16  N1  UNL     1      37.326   4.517  13.472  1.00  0.00    -0.342 N 
ATOM     17  H12 UNL     1      36.310   4.546  13.378  1.00  0.00     0.176 HD
ATOM     18  H11 UNL     1      37.872   5.367  13.615  1.00  0.00     0.176 HD
ENDBRANCH  13  16
ENDBRANCH   1  12
BRANCH   5  19
HETATM   19  C4  UNL     1      37.205  -3.495  14.318  1.00  0.00     0.171 C 
BRANCH  19  20
HETATM   20  C5  UNL     1      36.005  -3.343  13.449  1.00  0.00     0.143 C 
BRANCH  20  21
HETATM   21  N5  UNL     1      36.078  -4.160  12.250  1.00  0.00    -0.365 N 
HETATM   22  C6  UNL     1      35.627  -3.693  11.134  1.00  0.00     0.197 C 
HETATM   23  N6  UNL     1      35.699  -4.493   9.955  1.00  0.00    -0.067 NA
HETATM   24  N7  UNL     1      35.055  -2.407  11.007  1.00  0.00    -0.067 NA
ATOM     25  H5  UNL     1      36.483  -5.095  12.290  1.00  0.00     0.161 HD
ENDBRANCH  20  21
ENDBRANCH  19  20
ENDBRANCH   5  19
TORSDOF 5
ENDMDL
