MODEL 1
REMARK VINA RESULT: -6.699443598      0.000      0.000
REMARK  5 active torsions:
REMARK  status: ('A' for Active; 'I' for Inactive)
REMARK    1  A    between atoms: C2_2  and  O1_3 
REMARK    2  A    between atoms: O1_3  and  C3_4 
REMARK    3  A    between atoms: C3_4  and  C4_5 
REMARK       I    between atoms: C4_5  and  N1_7 
REMARK    4  A    between atoms: N1_7  and  C5_9 
REMARK    5  A    between atoms: C8_19  and  N5_20 
REMARK       I    between atoms: N5_20  and  C9_22 
ROOT
HETATM    1  C5  UNL     1      36.501  -4.572  13.138  1.00  0.00     0.408 C 
HETATM    2  N2  UNL     1      36.633  -4.516  14.577  1.00  0.00    -0.289 N 
ATOM      3  H2  UNL     1      36.029  -5.070  15.184  1.00  0.00     0.184 HD
HETATM    4  N3  UNL     1      37.610  -3.682  15.103  1.00  0.00    -0.299 N 
ATOM      5  H3  UNL     1      38.241  -3.981  15.846  1.00  0.00     0.186 HD
HETATM    6  C6  UNL     1      37.662  -2.487  14.579  1.00  0.00     0.115 A 
HETATM    7  C7  UNL     1      38.608  -1.461  14.979  1.00  0.00     0.147 A 
HETATM    8 CL1  UNL     1      39.735  -1.754  16.279  1.00  0.00    -0.062 Cl
HETATM    9  N4  UNL     1      38.637  -0.300  14.375  1.00  0.00    -0.179 N 
ATOM     10  H4  UNL     1      39.306   0.416  14.654  1.00  0.00     0.185 HD
HETATM   11  C8  UNL     1      37.718  -0.059  13.326  1.00  0.00     0.685 A 
HETATM   12  N7  UNL     1      36.833  -0.931  12.932  1.00  0.00    -0.190 N 
ATOM     13  H7  UNL     1      36.215  -0.672  12.162  1.00  0.00     0.180 HD
HETATM   14  C10 UNL     1      36.678  -2.220  13.509  1.00  0.00     0.358 A 
HETATM   15  N8  UNL     1      36.759  -3.262  12.537  1.00  0.00    -0.008 N 
ATOM     16  H81 UNL     1      36.139  -3.084  11.746  1.00  0.00     0.284 HD
ATOM     17  H82 UNL     1      37.652  -3.245  12.043  1.00  0.00     0.284 HD
ENDROOT
BRANCH   1  18
HETATM   18  N1  UNL     1      35.235  -5.122  12.710  1.00  0.00    -0.314 N 
HETATM   19  C4  UNL     1      34.810  -6.395  13.122  1.00  0.00     0.244 C 
HETATM   20  O2  UNL     1      35.628  -7.032  13.892  1.00  0.00    -0.271 OA
ATOM     21  H1  UNL     1      34.636  -4.572  12.094  1.00  0.00     0.166 HD
BRANCH  19  22
HETATM   22  C3  UNL     1      33.540  -7.045  12.753  1.00  0.00     0.270 C 
BRANCH  22  23
HETATM   23  O1  UNL     1      33.133  -8.096  13.505  1.00  0.00    -0.382 OA
BRANCH  23  24
HETATM   24  C2  UNL     1      33.424  -9.344  13.020  1.00  0.00     0.163 C 
HETATM   25  C1  UNL     1      33.253  -9.407  11.507  1.00  0.00     0.033 C 
ENDBRANCH  23  24
ENDBRANCH  22  23
ENDBRANCH  19  22
ENDBRANCH   1  18
BRANCH  11  26
HETATM   26  N5  UNL     1      37.746   1.185  12.657  1.00  0.00    -0.144 N 
HETATM   27  C9  UNL     1      36.755   2.154  12.979  1.00  0.00     0.346 C 
HETATM   28  N6  UNL     1      36.771   3.427  12.303  1.00  0.00    -0.039 NA
HETATM   29  O3  UNL     1      35.861   1.972  13.817  1.00  0.00    -0.250 OA
ATOM     30  H5  UNL     1      38.462   1.385  11.958  1.00  0.00     0.188 HD
ENDBRANCH  11  26
TORSDOF 5
ENDMDL
MODEL 2
REMARK VINA RESULT: -6.613908955      1.279      1.279
REMARK  5 active torsions:
REMARK  status: ('A' for Active; 'I' for Inactive)
REMARK    1  A    between atoms: C2_2  and  O1_3 
REMARK    2  A    between atoms: O1_3  and  C3_4 
REMARK    3  A    between atoms: C3_4  and  C4_5 
REMARK       I    between atoms: C4_5  and  N1_7 
REMARK    4  A    between atoms: N1_7  and  C5_9 
REMARK    5  A    between atoms: C8_19  and  N5_20 
REMARK       I    between atoms: N5_20  and  C9_22 
ROOT
HETATM    1  C5  UNL     1      36.542  -4.916  12.970  1.00  0.00     0.408 C 
HETATM    2  N2  UNL     1      37.488  -4.860  14.063  1.00  0.00    -0.289 N 
ATOM      3  H2  UNL     1      37.393  -5.472  14.874  1.00  0.00     0.184 HD
HETATM    4  N3  UNL     1      38.527  -3.946  13.971  1.00  0.00    -0.299 N 
ATOM      5  H3  UNL     1      39.493  -4.192  14.187  1.00  0.00     0.186 HD
HETATM    6  C6  UNL     1      38.179  -2.746  13.587  1.00  0.00     0.115 A 
HETATM    7  C7  UNL     1      39.107  -1.642  13.422  1.00  0.00     0.147 A 
HETATM    8 CL1  UNL     1      40.799  -1.841  13.802  1.00  0.00    -0.062 Cl
HETATM    9  N4  UNL     1      38.696  -0.478  12.985  1.00  0.00    -0.179 N 
ATOM     10  H4  UNL     1      39.352   0.294  12.864  1.00  0.00     0.185 HD
HETATM   11  C8  UNL     1      37.323  -0.313  12.685  1.00  0.00     0.685 A 
HETATM   12  N7  UNL     1      36.438  -1.258  12.828  1.00  0.00    -0.190 N 
ATOM     13  H7  UNL     1      35.471  -1.050  12.580  1.00  0.00     0.180 HD
HETATM   14  C10 UNL     1      36.740  -2.561  13.309  1.00  0.00     0.358 A 
HETATM   15  N8  UNL     1      36.307  -3.584  12.412  1.00  0.00    -0.008 N 
ATOM     16  H81 UNL     1      35.332  -3.456  12.142  1.00  0.00     0.284 HD
ATOM     17  H82 UNL     1      36.738  -3.481  11.492  1.00  0.00     0.284 HD
ENDROOT
BRANCH   1  18
HETATM   18  N1  UNL     1      35.306  -5.575  13.329  1.00  0.00    -0.314 N 
HETATM   19  C4  UNL     1      34.347  -5.914  12.360  1.00  0.00     0.244 C 
HETATM   20  O2  UNL     1      34.642  -5.587  11.146  1.00  0.00    -0.271 OA
ATOM     21  H1  UNL     1      35.127  -5.800  14.307  1.00  0.00     0.166 HD
BRANCH  19  22
HETATM   22  C3  UNL     1      33.063  -6.591  12.615  1.00  0.00     0.270 C 
BRANCH  22  23
HETATM   23  O1  UNL     1      33.087  -7.717  13.367  1.00  0.00    -0.382 OA
BRANCH  23  24
HETATM   24  C2  UNL     1      33.802  -8.773  12.864  1.00  0.00     0.163 C 
HETATM   25  C1  UNL     1      33.217  -9.262  11.545  1.00  0.00     0.033 C 
ENDBRANCH  23  24
ENDBRANCH  22  23
ENDBRANCH  19  22
ENDBRANCH   1  18
BRANCH  11  26
HETATM   26  N5  UNL     1      36.868   0.934  12.201  1.00  0.00    -0.144 N 
HETATM   27  C9  UNL     1      37.082   2.093  12.998  1.00  0.00     0.346 C 
HETATM   28  N6  UNL     1      36.623   3.372  12.517  1.00  0.00    -0.039 NA
HETATM   29  O3  UNL     1      37.648   2.075  14.100  1.00  0.00    -0.250 OA
ATOM     30  H5  UNL     1      36.397   1.002  11.299  1.00  0.00     0.188 HD
ENDBRANCH  11  26
TORSDOF 5
ENDMDL
MODEL 3
REMARK VINA RESULT: -6.456728010      2.346      7.379
REMARK  5 active torsions:
REMARK  status: ('A' for Active; 'I' for Inactive)
REMARK    1  A    between atoms: C2_2  and  O1_3 
REMARK    2  A    between atoms: O1_3  and  C3_4 
REMARK    3  A    between atoms: C3_4  and  C4_5 
REMARK       I    between atoms: C4_5  and  N1_7 
REMARK    4  A    between atoms: N1_7  and  C5_9 
REMARK    5  A    between atoms: C8_19  and  N5_20 
REMARK       I    between atoms: N5_20  and  C9_22 
ROOT
HETATM    1  C5  UNL     1      38.226  -1.484  14.823  1.00  0.00     0.408 C 
HETATM    2  N2  UNL     1      39.231  -1.972  13.904  1.00  0.00    -0.289 N 
ATOM      3  H2  UNL     1      39.767  -1.331  13.318  1.00  0.00     0.184 HD
HETATM    4  N3  UNL     1      39.439  -3.343  13.845  1.00  0.00    -0.299 N 
ATOM      5  H3  UNL     1      40.373  -3.754  13.847  1.00  0.00     0.186 HD
HETATM    6  C6  UNL     1      38.355  -4.068  13.786  1.00  0.00     0.115 A 
HETATM    7  C7  UNL     1      38.346  -5.518  13.722  1.00  0.00     0.147 A 
HETATM    8 CL1  UNL     1      39.844  -6.411  13.652  1.00  0.00    -0.062 Cl
HETATM    9  N4  UNL     1      37.219  -6.185  13.716  1.00  0.00    -0.179 N 
ATOM     10  H4  UNL     1      37.217  -7.204  13.677  1.00  0.00     0.185 HD
HETATM   11  C8  UNL     1      36.004  -5.461  13.764  1.00  0.00     0.685 A 
HETATM   12  N7  UNL     1      35.944  -4.160  13.805  1.00  0.00    -0.190 N 
ATOM     13  H7  UNL     1      35.022  -3.724  13.844  1.00  0.00     0.180 HD
HETATM   14  C10 UNL     1      37.085  -3.313  13.798  1.00  0.00     0.358 A 
HETATM   15  N8  UNL     1      37.095  -2.409  14.903  1.00  0.00    -0.008 N 
ATOM     16  H81 UNL     1      36.209  -1.911  14.986  1.00  0.00     0.284 HD
ATOM     17  H82 UNL     1      37.080  -2.906  15.793  1.00  0.00     0.284 HD
ENDROOT
BRANCH   1  18
HETATM   18  N1  UNL     1      37.800  -0.135  14.526  1.00  0.00    -0.314 N 
HETATM   19  C4  UNL     1      37.317   0.220  13.256  1.00  0.00     0.244 C 
HETATM   20  O2  UNL     1      37.294  -0.732  12.383  1.00  0.00    -0.271 OA
ATOM     21  H1  UNL     1      37.851   0.575  15.256  1.00  0.00     0.166 HD
BRANCH  19  22
HETATM   22  C3  UNL     1      36.852   1.558  12.850  1.00  0.00     0.270 C 
BRANCH  22  23
HETATM   23  O1  UNL     1      35.978   2.191  13.669  1.00  0.00    -0.382 OA
BRANCH  23  24
HETATM   24  C2  UNL     1      36.104   3.553  13.763  1.00  0.00     0.163 C 
HETATM   25  C1  UNL     1      37.557   3.965  13.958  1.00  0.00     0.033 C 
ENDBRANCH  23  24
ENDBRANCH  22  23
ENDBRANCH  19  22
ENDBRANCH   1  18
BRANCH  11  26
HETATM   26  N5  UNL     1      34.780  -6.168  13.771  1.00  0.00    -0.144 N 
HETATM   27  C9  UNL     1      33.888  -5.994  12.677  1.00  0.00     0.346 C 
HETATM   28  N6  UNL     1      32.636  -6.708  12.671  1.00  0.00    -0.039 NA
HETATM   29  O3  UNL     1      34.119  -5.255  11.710  1.00  0.00    -0.250 OA
ATOM     30  H5  UNL     1      34.543  -6.790  14.543  1.00  0.00     0.188 HD
ENDBRANCH  11  26
TORSDOF 5
ENDMDL
MODEL 4
REMARK VINA RESULT: -6.342966319      1.434      1.621
REMARK  5 active torsions:
REMARK  status: ('A' for Active; 'I' for Inactive)
REMARK    1  A    between atoms: C2_2  and  O1_3 
REMARK    2  A    between atoms: O1_3  and  C3_4 
REMARK    3  A    between atoms: C3_4  and  C4_5 
REMARK       I    between atoms: C4_5  and  N1_7 
REMARK    4  A    between atoms: N1_7  and  C5_9 
REMARK    5  A    between atoms: C8_19  and  N5_20 
REMARK       I    between atoms: N5_20  and  C9_22 
ROOT
HETATM    1  C5  UNL     1      37.342  -4.056  14.274  1.00  0.00     0.408 C 
HETATM    2  N2  UNL     1      37.864  -3.880  15.612  1.00  0.00    -0.289 N 
ATOM      3  H2  UNL     1      37.476  -4.396  16.402  1.00  0.00     0.184 HD
HETATM    4  N3  UNL     1      38.909  -2.983  15.783  1.00  0.00    -0.299 N 
ATOM      5  H3  UNL     1      39.734  -3.206  16.340  1.00  0.00     0.186 HD
HETATM    6  C6  UNL     1      38.761  -1.834  15.180  1.00  0.00     0.115 A 
HETATM    7  C7  UNL     1      39.734  -0.758  15.226  1.00  0.00     0.147 A 
HETATM    8 CL1  UNL     1      41.187  -0.917  16.179  1.00  0.00    -0.062 Cl
HETATM    9  N4  UNL     1      39.542   0.351  14.555  1.00  0.00    -0.179 N 
ATOM     10  H4  UNL     1      40.231   1.102  14.584  1.00  0.00     0.185 HD
HETATM   11  C8  UNL     1      38.360   0.484  13.789  1.00  0.00     0.685 A 
HETATM   12  N7  UNL     1      37.441  -0.437  13.721  1.00  0.00    -0.190 N 
ATOM     13  H7  UNL     1      36.624  -0.257  13.138  1.00  0.00     0.180 HD
HETATM   14  C10 UNL     1      37.509  -1.678  14.410  1.00  0.00     0.358 A 
HETATM   15  N8  UNL     1      37.365  -2.795  13.532  1.00  0.00    -0.008 N 
ATOM     16  H81 UNL     1      36.544  -2.696  12.934  1.00  0.00     0.284 HD
ATOM     17  H82 UNL     1      38.085  -2.798  12.810  1.00  0.00     0.284 HD
ENDROOT
BRANCH   1  18
HETATM   18  N1  UNL     1      36.033  -4.668  14.257  1.00  0.00    -0.314 N 
HETATM   19  C4  UNL     1      35.389  -4.992  13.052  1.00  0.00     0.244 C 
HETATM   20  O2  UNL     1      36.041  -4.696  11.976  1.00  0.00    -0.271 OA
ATOM     21  H1  UNL     1      35.565  -4.869  15.141  1.00  0.00     0.166 HD
BRANCH  19  22
HETATM   22  C3  UNL     1      34.063  -5.621  12.921  1.00  0.00     0.270 C 
BRANCH  22  23
HETATM   23  O1  UNL     1      33.746  -6.167  11.722  1.00  0.00    -0.382 OA
BRANCH  23  24
HETATM   24  C2  UNL     1      33.870  -7.527  11.617  1.00  0.00     0.163 C 
HETATM   25  C1  UNL     1      34.900  -7.912  10.562  1.00  0.00     0.033 C 
ENDBRANCH  23  24
ENDBRANCH  22  23
ENDBRANCH  19  22
ENDBRANCH   1  18
BRANCH  11  26
HETATM   26  N5  UNL     1      38.147   1.669  13.050  1.00  0.00    -0.144 N 
HETATM   27  C9  UNL     1      36.892   2.329  13.169  1.00  0.00     0.346 C 
HETATM   28  N6  UNL     1      36.661   3.539  12.421  1.00  0.00    -0.039 NA
HETATM   29  O3  UNL     1      35.967   1.925  13.887  1.00  0.00    -0.250 OA
ATOM     30  H5  UNL     1      38.878   2.044  12.445  1.00  0.00     0.188 HD
ENDBRANCH  11  26
TORSDOF 5
ENDMDL
MODEL 5
REMARK VINA RESULT: -6.289045606      3.589      7.768
REMARK  5 active torsions:
REMARK  status: ('A' for Active; 'I' for Inactive)
REMARK    1  A    between atoms: C2_2  and  O1_3 
REMARK    2  A    between atoms: O1_3  and  C3_4 
REMARK    3  A    between atoms: C3_4  and  C4_5 
REMARK       I    between atoms: C4_5  and  N1_7 
REMARK    4  A    between atoms: N1_7  and  C5_9 
REMARK    5  A    between atoms: C8_19  and  N5_20 
REMARK       I    between atoms: N5_20  and  C9_22 
ROOT
HETATM    1  C5  UNL     1      38.291  -3.420  15.042  1.00  0.00     0.408 C 
HETATM    2  N2  UNL     1      37.306  -2.362  15.016  1.00  0.00    -0.289 N 
ATOM      3  H2  UNL     1      37.166  -1.750  15.821  1.00  0.00     0.184 HD
HETATM    4  N3  UNL     1      36.555  -2.208  13.858  1.00  0.00    -0.299 N 
ATOM      5  H3  UNL     1      36.392  -1.297  13.430  1.00  0.00     0.186 HD
HETATM    6  C6  UNL     1      36.073  -3.314  13.357  1.00  0.00     0.115 A 
HETATM    7  C7  UNL     1      35.266  -3.379  12.152  1.00  0.00     0.147 A 
HETATM    8 CL1  UNL     1      34.821  -1.920  11.304  1.00  0.00    -0.062 Cl
HETATM    9  N4  UNL     1      34.856  -4.529  11.679  1.00  0.00    -0.179 N 
ATOM     10  H4  UNL     1      34.295  -4.571  10.829  1.00  0.00     0.185 HD
HETATM   11  C8  UNL     1      35.210  -5.712  12.371  1.00  0.00     0.685 A 
HETATM   12  N7  UNL     1      35.916  -5.719  13.465  1.00  0.00    -0.190 N 
ATOM     13  H7  UNL     1      36.128  -6.621  13.893  1.00  0.00     0.180 HD
HETATM   14  C10 UNL     1      36.409  -4.546  14.100  1.00  0.00     0.358 A 
HETATM   15  N8  UNL     1      37.821  -4.593  14.303  1.00  0.00    -0.008 N 
ATOM     16  H81 UNL     1      38.105  -5.461  14.758  1.00  0.00     0.284 HD
ATOM     17  H82 UNL     1      38.322  -4.706  13.422  1.00  0.00     0.284 HD
ENDROOT
BRANCH   1  18
HETATM   18  N1  UNL     1      38.715  -3.761  16.381  1.00  0.00    -0.314 N 
HETATM   19  C4  UNL     1      39.501  -2.886  17.148  1.00  0.00     0.244 C 
HETATM   20  O2  UNL     1      39.821  -1.775  16.571  1.00  0.00    -0.271 OA
ATOM     21  H1  UNL     1      38.437  -4.658  16.778  1.00  0.00     0.166 HD
BRANCH  19  22
HETATM   22  C3  UNL     1      39.981  -3.130  18.520  1.00  0.00     0.270 C 
BRANCH  22  23
HETATM   23  O1  UNL     1      40.680  -2.139  19.124  1.00  0.00    -0.382 OA
BRANCH  23  24
HETATM   24  C2  UNL     1      40.141  -1.623  20.273  1.00  0.00     0.163 C 
HETATM   25  C1  UNL     1      39.319  -0.372  19.989  1.00  0.00     0.033 C 
ENDBRANCH  23  24
ENDBRANCH  22  23
ENDBRANCH  19  22
ENDBRANCH   1  18
BRANCH  11  26
HETATM   26  N5  UNL     1      34.786  -6.960  11.863  1.00  0.00    -0.144 N 
HETATM   27  C9  UNL     1      33.456  -7.388  12.132  1.00  0.00     0.346 C 
HETATM   28  N6  UNL     1      33.010  -8.660  11.622  1.00  0.00    -0.039 NA
HETATM   29  O3  UNL     1      32.639  -6.727  12.789  1.00  0.00    -0.250 OA
ATOM     30  H5  UNL     1      35.420  -7.542  11.316  1.00  0.00     0.188 HD
ENDBRANCH  11  26
TORSDOF 5
ENDMDL
