MODEL 1
REMARK VINA RESULT: -6.585892530      0.000      0.000
REMARK  7 active torsions:
REMARK  status: ('A' for Active; 'I' for Inactive)
REMARK    1  A    between atoms: C2_2  and  C3_6 
REMARK    2  A    between atoms: C3_6  and  N2_7 
REMARK    3  A    between atoms: C3_6  and  C4_11 
REMARK       I    between atoms: C4_11  and  N3_13 
REMARK    4  A    between atoms: N3_13  and  N4_15 
REMARK    5  A    between atoms: C5_16  and  N5_17 
REMARK    6  A    between atoms: N5_17  and  N6_19 
REMARK    7  A    between atoms: C6_24  and  N8_25 
ROOT
HETATM    1  N4  UNL     1      39.110  -0.283  12.263  1.00  0.00    -0.080 N 
HETATM    2  C5  UNL     1      38.625   1.002  12.654  1.00  0.00     0.718 C 
HETATM    3  N7  UNL     1      39.350   2.044  12.824  1.00  0.00    -0.194 N 
ATOM      4  H7  UNL     1      38.910   2.920  13.107  1.00  0.00     0.180 HD
HETATM    5  C6  UNL     1      40.752   1.998  12.625  1.00  0.00     0.301 C 
HETATM    6  C7  UNL     1      41.312   0.636  12.819  1.00  0.00     0.121 C 
HETATM    7  C8  UNL     1      40.532  -0.449  12.124  1.00  0.00     0.238 C 
HETATM    8 CL1  UNL     1      41.064  -0.514  10.431  1.00  0.00    -0.076 Cl
HETATM    9  C9  UNL     1      40.913  -1.706  12.764  1.00  0.00     0.110 C 
HETATM   10  N9  UNL     1      41.199  -2.707  13.283  1.00  0.00    -0.193 NA
ENDROOT
BRANCH   1  11
HETATM   11  N3  UNL     1      38.195  -1.311  12.039  1.00  0.00    -0.248 N 
HETATM   12  C4  UNL     1      37.498  -1.989  13.068  1.00  0.00     0.273 C 
HETATM   13  O1  UNL     1      37.688  -1.670  14.265  1.00  0.00    -0.269 OA
ATOM     14  H3  UNL     1      38.017  -1.592  11.074  1.00  0.00     0.191 HD
BRANCH  12  15
HETATM   15  C3  UNL     1      36.542  -3.074  12.783  1.00  0.00     0.320 C 
BRANCH  15  16
HETATM   16  C2  UNL     1      35.575  -2.706  11.710  1.00  0.00     0.016 C 
HETATM   17  C1  UNL     1      35.020  -1.352  11.550  1.00  0.00     0.065 C 
HETATM   18  N1  UNL     1      35.231  -3.627  10.907  1.00  0.00    -0.404 N 
ATOM     19  H12 UNL     1      34.569  -3.376  10.173  1.00  0.00     0.155 HD
ATOM     20  H11 UNL     1      35.615  -4.566  11.017  1.00  0.00     0.155 HD
ENDBRANCH  15  16
BRANCH  15  21
HETATM   21  N2  UNL     1      35.792  -3.374  13.984  1.00  0.00    -0.061 N 
ATOM     22  H23 UNL     1      35.679  -2.561  14.590  1.00  0.00     0.275 HD
ATOM     23  H22 UNL     1      34.805  -3.546  13.798  1.00  0.00     0.275 HD
ATOM     24  H21 UNL     1      36.246  -4.155  14.457  1.00  0.00     0.275 HD
ENDBRANCH  15  21
ENDBRANCH  12  15
ENDBRANCH   1  11
BRANCH   2  25
HETATM   25  N5  UNL     1      37.204   1.146  12.876  1.00  0.00    -0.070 N 
ATOM     26  H5  UNL     1      36.633   0.305  12.960  1.00  0.00     0.212 HD
BRANCH  25  27
HETATM   27  N6  UNL     1      36.593   2.375  12.977  1.00  0.00    -0.024 N 
HETATM   28  O2  UNL     1      35.741   2.516  13.896  1.00  0.00    -0.516 OA
HETATM   29  O3  UNL     1      36.817   3.457  12.183  1.00  0.00    -0.516 OA
ENDBRANCH  25  27
ENDBRANCH   2  25
BRANCH   5  30
HETATM   30  N8  UNL     1      41.362   2.840  13.676  1.00  0.00    -0.058 N 
ATOM     31  H83 UNL     1      42.055   3.495  13.315  1.00  0.00     0.276 HD
ATOM     32  H82 UNL     1      40.718   3.532  14.060  1.00  0.00     0.276 HD
ATOM     33  H81 UNL     1      41.737   2.206  14.381  1.00  0.00     0.276 HD
ENDBRANCH   5  30
TORSDOF 7
ENDMDL
MODEL 2
REMARK VINA RESULT: -6.378607933      2.122      2.147
REMARK  7 active torsions:
REMARK  status: ('A' for Active; 'I' for Inactive)
REMARK    1  A    between atoms: C2_2  and  C3_6 
REMARK    2  A    between atoms: C3_6  and  N2_7 
REMARK    3  A    between atoms: C3_6  and  C4_11 
REMARK       I    between atoms: C4_11  and  N3_13 
REMARK    4  A    between atoms: N3_13  and  N4_15 
REMARK    5  A    between atoms: C5_16  and  N5_17 
REMARK    6  A    between atoms: N5_17  and  N6_19 
REMARK    7  A    between atoms: C6_24  and  N8_25 
ROOT
HETATM    1  N4  UNL     1      38.455  -0.460  14.520  1.00  0.00    -0.080 N 
HETATM    2  C5  UNL     1      38.191   0.866  14.059  1.00  0.00     0.718 C 
HETATM    3  N7  UNL     1      39.001   1.853  14.148  1.00  0.00    -0.194 N 
ATOM      4  H7  UNL     1      38.722   2.766  13.790  1.00  0.00     0.180 HD
HETATM    5  C6  UNL     1      40.281   1.695  14.737  1.00  0.00     0.301 C 
HETATM    6  C7  UNL     1      40.326   0.576  15.713  1.00  0.00     0.121 C 
HETATM    7  C8  UNL     1      39.692  -0.696  15.212  1.00  0.00     0.238 C 
HETATM    8 CL1  UNL     1      40.890  -1.558  14.225  1.00  0.00    -0.076 Cl
HETATM    9  C9  UNL     1      39.411  -1.510  16.393  1.00  0.00     0.110 C 
HETATM   10  N9  UNL     1      39.169  -2.153  17.331  1.00  0.00    -0.193 NA
ENDROOT
BRANCH   1  11
HETATM   11  N3  UNL     1      37.508  -1.458  14.285  1.00  0.00    -0.248 N 
HETATM   12  C4  UNL     1      37.430  -2.209  13.087  1.00  0.00     0.273 C 
HETATM   13  O1  UNL     1      38.246  -1.993  12.161  1.00  0.00    -0.269 OA
ATOM     14  H3  UNL     1      36.831  -1.659  15.021  1.00  0.00     0.191 HD
BRANCH  12  15
HETATM   15  C3  UNL     1      36.409  -3.252  12.882  1.00  0.00     0.320 C 
BRANCH  15  16
HETATM   16  C2  UNL     1      35.455  -2.901  11.792  1.00  0.00     0.016 C 
HETATM   17  C1  UNL     1      35.080  -1.517  11.460  1.00  0.00     0.065 C 
HETATM   18  N1  UNL     1      34.955  -3.865  11.134  1.00  0.00    -0.404 N 
ATOM     19  H12 UNL     1      34.302  -3.626  10.389  1.00  0.00     0.155 HD
ATOM     20  H11 UNL     1      35.215  -4.825  11.364  1.00  0.00     0.155 HD
ENDBRANCH  15  16
BRANCH  15  21
HETATM   21  N2  UNL     1      35.656  -3.425  14.105  1.00  0.00    -0.061 N 
ATOM     22  H23 UNL     1      35.801  -2.662  14.767  1.00  0.00     0.275 HD
ATOM     23  H22 UNL     1      34.653  -3.302  13.970  1.00  0.00     0.275 HD
ATOM     24  H21 UNL     1      35.890  -4.336  14.499  1.00  0.00     0.275 HD
ENDBRANCH  15  21
ENDBRANCH  12  15
ENDBRANCH   1  11
BRANCH   2  25
HETATM   25  N5  UNL     1      36.910   1.120  13.438  1.00  0.00    -0.070 N 
ATOM     26  H5  UNL     1      36.324   0.326  13.179  1.00  0.00     0.212 HD
BRANCH  25  27
HETATM   27  N6  UNL     1      36.453   2.393  13.184  1.00  0.00    -0.024 N 
HETATM   28  O2  UNL     1      35.536   2.831  13.930  1.00  0.00    -0.516 OA
HETATM   29  O3  UNL     1      36.893   3.229  12.204  1.00  0.00    -0.516 OA
ENDBRANCH  25  27
ENDBRANCH   2  25
BRANCH   5  30
HETATM   30  N8  UNL     1      40.547   2.923  15.518  1.00  0.00    -0.058 N 
ATOM     31  H83 UNL     1      39.746   3.230  16.069  1.00  0.00     0.276 HD
ATOM     32  H82 UNL     1      41.189   2.773  16.296  1.00  0.00     0.276 HD
ATOM     33  H81 UNL     1      40.874   3.627  14.857  1.00  0.00     0.276 HD
ENDBRANCH   5  30
TORSDOF 7
ENDMDL
MODEL 3
REMARK VINA RESULT: -6.349144034      2.241      2.714
REMARK  7 active torsions:
REMARK  status: ('A' for Active; 'I' for Inactive)
REMARK    1  A    between atoms: C2_2  and  C3_6 
REMARK    2  A    between atoms: C3_6  and  N2_7 
REMARK    3  A    between atoms: C3_6  and  C4_11 
REMARK       I    between atoms: C4_11  and  N3_13 
REMARK    4  A    between atoms: N3_13  and  N4_15 
REMARK    5  A    between atoms: C5_16  and  N5_17 
REMARK    6  A    between atoms: N5_17  and  N6_19 
REMARK    7  A    between atoms: C6_24  and  N8_25 
ROOT
HETATM    1  N4  UNL     1      37.981  -1.067  14.277  1.00  0.00    -0.080 N 
HETATM    2  C5  UNL     1      37.968   0.259  13.748  1.00  0.00     0.718 C 
HETATM    3  N7  UNL     1      38.973   1.053  13.722  1.00  0.00    -0.194 N 
ATOM      4  H7  UNL     1      38.865   1.986  13.324  1.00  0.00     0.180 HD
HETATM    5  C6  UNL     1      40.231   0.654  14.238  1.00  0.00     0.301 C 
HETATM    6  C7  UNL     1      40.113  -0.399  15.280  1.00  0.00     0.121 C 
HETATM    7  C8  UNL     1      39.190  -1.528  14.903  1.00  0.00     0.238 C 
HETATM    8 CL1  UNL     1      40.101  -2.676  13.900  1.00  0.00    -0.076 Cl
HETATM    9  C9  UNL     1      38.834  -2.203  16.150  1.00  0.00     0.110 C 
HETATM   10  N9  UNL     1      38.533  -2.732  17.141  1.00  0.00    -0.193 NA
ENDROOT
BRANCH   1  11
HETATM   11  N3  UNL     1      36.830  -1.849  14.168  1.00  0.00    -0.248 N 
HETATM   12  C4  UNL     1      36.525  -2.657  13.045  1.00  0.00     0.273 C 
HETATM   13  O1  UNL     1      37.315  -2.699  12.074  1.00  0.00    -0.269 OA
ATOM     14  H3  UNL     1      36.168  -1.838  14.944  1.00  0.00     0.191 HD
BRANCH  12  15
HETATM   15  C3  UNL     1      35.294  -3.464  12.973  1.00  0.00     0.320 C 
BRANCH  15  16
HETATM   16  C2  UNL     1      35.504  -4.857  13.460  1.00  0.00     0.016 C 
HETATM   17  C1  UNL     1      34.599  -5.972  13.134  1.00  0.00     0.065 C 
HETATM   18  N1  UNL     1      36.521  -5.063  14.191  1.00  0.00    -0.404 N 
ATOM     19  H12 UNL     1      36.665  -6.017  14.524  1.00  0.00     0.155 HD
ATOM     20  H11 UNL     1      37.148  -4.291  14.417  1.00  0.00     0.155 HD
ENDBRANCH  15  16
BRANCH  15  21
HETATM   21  N2  UNL     1      34.848  -3.527  11.598  1.00  0.00    -0.061 N 
ATOM     22  H23 UNL     1      34.339  -4.386  11.389  1.00  0.00     0.275 HD
ATOM     23  H22 UNL     1      34.096  -2.868  11.399  1.00  0.00     0.275 HD
ATOM     24  H21 UNL     1      35.658  -3.393  10.993  1.00  0.00     0.275 HD
ENDBRANCH  15  21
ENDBRANCH  12  15
ENDBRANCH   1  11
BRANCH   2  25
HETATM   25  N5  UNL     1      36.727   0.752  13.195  1.00  0.00    -0.070 N 
ATOM     26  H5  UNL     1      36.039   0.078  12.855  1.00  0.00     0.212 HD
BRANCH  25  27
HETATM   27  N6  UNL     1      36.437   2.094  13.110  1.00  0.00    -0.024 N 
HETATM   28  O2  UNL     1      35.648   2.566  13.972  1.00  0.00    -0.516 OA
HETATM   29  O3  UNL     1      36.919   2.967  12.183  1.00  0.00    -0.516 OA
ENDBRANCH  25  27
ENDBRANCH   2  25
BRANCH   5  30
HETATM   30  N8  UNL     1      40.808   1.833  14.919  1.00  0.00    -0.058 N 
ATOM     31  H83 UNL     1      41.571   2.265  14.398  1.00  0.00     0.276 HD
ATOM     32  H82 UNL     1      40.183   2.639  14.924  1.00  0.00     0.276 HD
ATOM     33  H81 UNL     1      41.081   1.530  15.853  1.00  0.00     0.276 HD
ENDBRANCH   5  30
TORSDOF 7
ENDMDL
MODEL 4
REMARK VINA RESULT: -6.274118063      1.474      1.611
REMARK  7 active torsions:
REMARK  status: ('A' for Active; 'I' for Inactive)
REMARK    1  A    between atoms: C2_2  and  C3_6 
REMARK    2  A    between atoms: C3_6  and  N2_7 
REMARK    3  A    between atoms: C3_6  and  C4_11 
REMARK       I    between atoms: C4_11  and  N3_13 
REMARK    4  A    between atoms: N3_13  and  N4_15 
REMARK    5  A    between atoms: C5_16  and  N5_17 
REMARK    6  A    between atoms: N5_17  and  N6_19 
REMARK    7  A    between atoms: C6_24  and  N8_25 
ROOT
HETATM    1  N4  UNL     1      39.738   0.360  13.110  1.00  0.00    -0.080 N 
HETATM    2  C5  UNL     1      39.136   1.655  13.106  1.00  0.00     0.718 C 
HETATM    3  N7  UNL     1      39.604   2.684  12.506  1.00  0.00    -0.194 N 
ATOM      4  H7  UNL     1      39.101   3.570  12.562  1.00  0.00     0.180 HD
HETATM    5  C6  UNL     1      40.810   2.611  11.765  1.00  0.00     0.301 C 
HETATM    6  C7  UNL     1      41.708   1.527  12.241  1.00  0.00     0.121 C 
HETATM    7  C8  UNL     1      41.011   0.210  12.459  1.00  0.00     0.238 C 
HETATM    8 CL1  UNL     1      40.900  -0.622  10.894  1.00  0.00    -0.076 Cl
HETATM    9  C9  UNL     1      41.882  -0.579  13.328  1.00  0.00     0.110 C 
HETATM   10  N9  UNL     1      42.563  -1.203  14.034  1.00  0.00    -0.193 NA
ENDROOT
BRANCH   1  11
HETATM   11  N3  UNL     1      39.074  -0.692  13.742  1.00  0.00    -0.248 N 
HETATM   12  C4  UNL     1      38.129  -1.531  13.103  1.00  0.00     0.273 C 
HETATM   13  O1  UNL     1      37.849  -1.348  11.895  1.00  0.00    -0.269 OA
ATOM     14  H3  UNL     1      39.283  -0.868  14.725  1.00  0.00     0.191 HD
BRANCH  12  15
HETATM   15  C3  UNL     1      37.449  -2.628  13.813  1.00  0.00     0.320 C 
BRANCH  15  16
HETATM   16  C2  UNL     1      36.194  -3.052  13.129  1.00  0.00     0.016 C 
HETATM   17  C1  UNL     1      35.910  -4.446  12.750  1.00  0.00     0.065 C 
HETATM   18  N1  UNL     1      35.346  -2.143  12.873  1.00  0.00    -0.404 N 
ATOM     19  H12 UNL     1      34.487  -2.432  12.405  1.00  0.00     0.155 HD
ATOM     20  H11 UNL     1      35.542  -1.177  13.136  1.00  0.00     0.155 HD
ENDBRANCH  15  16
BRANCH  15  21
HETATM   21  N2  UNL     1      37.111  -2.190  15.150  1.00  0.00    -0.061 N 
ATOM     22  H23 UNL     1      37.483  -1.266  15.366  1.00  0.00     0.275 HD
ATOM     23  H22 UNL     1      36.121  -1.969  15.252  1.00  0.00     0.275 HD
ATOM     24  H21 UNL     1      37.424  -2.904  15.809  1.00  0.00     0.275 HD
ENDBRANCH  15  21
ENDBRANCH  12  15
ENDBRANCH   1  11
BRANCH   2  25
HETATM   25  N5  UNL     1      37.897   1.823  13.833  1.00  0.00    -0.070 N 
ATOM     26  H5  UNL     1      37.846   1.497  14.798  1.00  0.00     0.212 HD
BRANCH  25  27
HETATM   27  N6  UNL     1      36.785   2.408  13.271  1.00  0.00    -0.024 N 
HETATM   28  O2  UNL     1      35.693   2.268  13.885  1.00  0.00    -0.516 OA
HETATM   29  O3  UNL     1      36.746   3.125  12.115  1.00  0.00    -0.516 OA
ENDBRANCH  25  27
ENDBRANCH   2  25
BRANCH   5  30
HETATM   30  N8  UNL     1      41.538   3.875  12.007  1.00  0.00    -0.058 N 
ATOM     31  H83 UNL     1      41.013   4.539  12.576  1.00  0.00     0.276 HD
ATOM     32  H82 UNL     1      42.334   3.766  12.636  1.00  0.00     0.276 HD
ATOM     33  H81 UNL     1      41.797   4.246  11.093  1.00  0.00     0.276 HD
ENDBRANCH   5  30
TORSDOF 7
ENDMDL
MODEL 5
REMARK VINA RESULT: -6.204565584      4.394      5.404
REMARK  7 active torsions:
REMARK  status: ('A' for Active; 'I' for Inactive)
REMARK    1  A    between atoms: C2_2  and  C3_6 
REMARK    2  A    between atoms: C3_6  and  N2_7 
REMARK    3  A    between atoms: C3_6  and  C4_11 
REMARK       I    between atoms: C4_11  and  N3_13 
REMARK    4  A    between atoms: N3_13  and  N4_15 
REMARK    5  A    between atoms: C5_16  and  N5_17 
REMARK    6  A    between atoms: N5_17  and  N6_19 
REMARK    7  A    between atoms: C6_24  and  N8_25 
ROOT
HETATM    1  N4  UNL     1      37.587  -4.527  13.918  1.00  0.00    -0.080 N 
HETATM    2  C5  UNL     1      36.746  -3.453  14.338  1.00  0.00     0.718 C 
HETATM    3  N7  UNL     1      37.032  -2.605  15.254  1.00  0.00    -0.194 N 
ATOM      4  H7  UNL     1      36.364  -1.871  15.486  1.00  0.00     0.180 HD
HETATM    5  C6  UNL     1      38.265  -2.673  15.951  1.00  0.00     0.301 C 
HETATM    6  C7  UNL     1      38.835  -4.045  15.970  1.00  0.00     0.121 C 
HETATM    7  C8  UNL     1      38.821  -4.730  14.629  1.00  0.00     0.238 C 
HETATM    8 CL1  UNL     1      40.246  -4.192  13.717  1.00  0.00    -0.076 Cl
HETATM    9  C9  UNL     1      38.969  -6.160  14.894  1.00  0.00     0.110 C 
HETATM   10  N9  UNL     1      39.068  -7.300  15.101  1.00  0.00    -0.193 NA
ENDROOT
BRANCH   1  11
HETATM   11  N3  UNL     1      37.178  -5.329  12.851  1.00  0.00    -0.248 N 
HETATM   12  C4  UNL     1      36.161  -6.310  12.942  1.00  0.00     0.273 C 
HETATM   13  O1  UNL     1      35.568  -6.495  14.030  1.00  0.00    -0.269 OA
ATOM     14  H3  UNL     1      37.641  -5.199  11.951  1.00  0.00     0.191 HD
BRANCH  12  15
HETATM   15  C3  UNL     1      35.766  -7.136  11.787  1.00  0.00     0.320 C 
BRANCH  15  16
HETATM   16  C2  UNL     1      34.285  -7.238  11.647  1.00  0.00     0.016 C 
HETATM   17  C1  UNL     1      33.568  -8.521  11.560  1.00  0.00     0.065 C 
HETATM   18  N1  UNL     1      33.636  -6.148  11.604  1.00  0.00    -0.404 N 
ATOM     19  H12 UNL     1      32.623  -6.218  11.507  1.00  0.00     0.155 HD
ATOM     20  H11 UNL     1      34.133  -5.259  11.664  1.00  0.00     0.155 HD
ENDBRANCH  15  16
BRANCH  15  21
HETATM   21  N2  UNL     1      36.298  -8.470  11.955  1.00  0.00    -0.061 N 
ATOM     22  H23 UNL     1      37.283  -8.470  12.219  1.00  0.00     0.275 HD
ATOM     23  H22 UNL     1      35.933  -8.938  12.784  1.00  0.00     0.275 HD
ATOM     24  H21 UNL     1      36.121  -8.995  11.098  1.00  0.00     0.275 HD
ENDBRANCH  15  21
ENDBRANCH  12  15
ENDBRANCH   1  11
BRANCH   2  25
HETATM   25  N5  UNL     1      35.467  -3.302  13.680  1.00  0.00    -0.070 N 
ATOM     26  H5  UNL     1      34.625  -3.609  14.167  1.00  0.00     0.212 HD
BRANCH  25  27
HETATM   27  N6  UNL     1      35.345  -2.759  12.421  1.00  0.00    -0.024 N 
HETATM   28  O2  UNL     1      35.624  -1.537  12.295  1.00  0.00    -0.516 OA
HETATM   29  O3  UNL     1      34.951  -3.413  11.295  1.00  0.00    -0.516 OA
ENDBRANCH  25  27
ENDBRANCH   2  25
BRANCH   5  30
HETATM   30  N8  UNL     1      37.980  -2.334  17.361  1.00  0.00    -0.058 N 
ATOM     31  H83 UNL     1      38.592  -2.812  18.021  1.00  0.00     0.276 HD
ATOM     32  H82 UNL     1      38.245  -1.380  17.606  1.00  0.00     0.276 HD
ATOM     33  H81 UNL     1      36.991  -2.528  17.517  1.00  0.00     0.276 HD
ENDBRANCH   5  30
TORSDOF 7
ENDMDL
