MODEL 1
REMARK VINA RESULT: -6.733936017      0.000      0.000
REMARK  8 active torsions:
REMARK  status: ('A' for Active; 'I' for Inactive)
REMARK    1  A    between atoms: O1_2  and  C2_3 
REMARK    2  A    between atoms: C3_6  and  N2_7 
REMARK    3  A    between atoms: N2_7  and  N3_9 
REMARK    4  A    between atoms: C4_10  and  N4_11 
REMARK    5  A    between atoms: C6_15  and  N5_16 
REMARK    6  A    between atoms: N5_16  and  O4_17 
REMARK    7  A    between atoms: N5_16  and  O5_19 
REMARK    8  A    between atoms: C7_21  and  C8_22 
ROOT
HETATM    1  N3  UNL     1      37.438  -2.170  12.566  1.00  0.00    -0.213 N 
HETATM    2  C4  UNL     1      38.199  -2.668  13.576  1.00  0.00     0.198 A 
HETATM    3  C5  UNL     1      37.556  -3.820  13.974  1.00  0.00     0.087 A 
HETATM    4  C6  UNL     1      36.421  -4.005  13.208  1.00  0.00     0.103 A 
HETATM    5  C7  UNL     1      36.379  -2.945  12.330  1.00  0.00     0.150 A 
ENDROOT
BRANCH   1   6
HETATM    6  N2  UNL     1      37.731  -0.998  11.864  1.00  0.00    -0.121 N 
ATOM      7  H2  UNL     1      38.095  -1.060  10.913  1.00  0.00     0.206 HD
BRANCH   6   8
HETATM    8  C3  UNL     1      37.549   0.158  12.400  1.00  0.00     0.715 A 
HETATM    9  N1  UNL     1      36.378   0.673  12.831  1.00  0.00    -0.151 N 
HETATM   10  C2  UNL     1      36.670   1.896  13.309  1.00  0.00     0.253 A 
ATOM     11  H1  UNL     1      35.461   0.227  12.800  1.00  0.00     0.188 HD
HETATM   12  N8  UNL     1      37.987   2.130  13.176  1.00  0.00    -0.250 N 
HETATM   13  N7  UNL     1      38.514   1.061  12.619  1.00  0.00    -0.128 N 
ATOM     14  H8  UNL     1      38.484   2.976  13.455  1.00  0.00     0.191 HD
ATOM     15  H7  UNL     1      39.501   0.938  12.390  1.00  0.00     0.205 HD
BRANCH  10  16
HETATM   16  O1  UNL     1      35.752   2.791  13.861  1.00  0.00    -0.326 OA
HETATM   17  C1  UNL     1      36.016   4.181  13.852  1.00  0.00     0.213 C 
ENDBRANCH  10  16
ENDBRANCH   6   8
ENDBRANCH   1   6
BRANCH   2  18
HETATM   18  N4  UNL     1      39.396  -2.114  14.105  1.00  0.00    -0.096 N 
HETATM   19  O2  UNL     1      39.610  -2.110  15.329  1.00  0.00    -0.530 OA
HETATM   20  O3  UNL     1      40.356  -1.569  13.291  1.00  0.00    -0.530 OA
ENDBRANCH   2  18
BRANCH   5  21
HETATM   21  C8  UNL     1      35.359  -2.711  11.327  1.00  0.00     0.285 C 
HETATM   22  N6  UNL     1      34.593  -1.517  11.284  1.00  0.00    -0.056 NA
HETATM   23  O6  UNL     1      35.156  -3.601  10.471  1.00  0.00    -0.269 OA
ENDBRANCH   5  21
BRANCH   4  24
HETATM   24  N5  UNL     1      35.473  -5.080  13.301  1.00  0.00    -0.034 NA
BRANCH  24  25
HETATM   25  O4  UNL     1      35.685  -5.748  14.483  1.00  0.00    -0.284 OA
ATOM     26  H4  UNL     1      34.969  -6.356  14.620  1.00  0.00     0.240 HD
ENDBRANCH  24  25
BRANCH  24  27
HETATM   27  O5  UNL     1      35.590  -5.967  12.314  1.00  0.00    -0.284 OA
ATOM     28  H5  UNL     1      34.769  -6.392  12.096  1.00  0.00     0.240 HD
ENDBRANCH  24  27
ENDBRANCH   4  24
TORSDOF 8
ENDMDL
MODEL 2
REMARK VINA RESULT: -6.716672727      1.248      3.475
REMARK  8 active torsions:
REMARK  status: ('A' for Active; 'I' for Inactive)
REMARK    1  A    between atoms: O1_2  and  C2_3 
REMARK    2  A    between atoms: C3_6  and  N2_7 
REMARK    3  A    between atoms: N2_7  and  N3_9 
REMARK    4  A    between atoms: C4_10  and  N4_11 
REMARK    5  A    between atoms: C6_15  and  N5_16 
REMARK    6  A    between atoms: N5_16  and  O4_17 
REMARK    7  A    between atoms: N5_16  and  O5_19 
REMARK    8  A    between atoms: C7_21  and  C8_22 
ROOT
HETATM    1  N3  UNL     1      37.506  -2.098  12.485  1.00  0.00    -0.213 N 
HETATM    2  C4  UNL     1      36.431  -2.893  12.241  1.00  0.00     0.198 A 
HETATM    3  C5  UNL     1      36.560  -3.949  13.116  1.00  0.00     0.087 A 
HETATM    4  C6  UNL     1      37.703  -3.784  13.875  1.00  0.00     0.103 A 
HETATM    5  C7  UNL     1      38.274  -2.606  13.450  1.00  0.00     0.150 A 
ENDROOT
BRANCH   1   6
HETATM    6  N2  UNL     1      37.768  -0.901  11.815  1.00  0.00    -0.121 N 
ATOM      7  H2  UNL     1      38.124  -0.926  10.859  1.00  0.00     0.206 HD
BRANCH   6   8
HETATM    8  C3  UNL     1      37.566   0.235  12.387  1.00  0.00     0.715 A 
HETATM    9  N1  UNL     1      36.383   0.727  12.811  1.00  0.00    -0.151 N 
HETATM   10  C2  UNL     1      36.656   1.935  13.337  1.00  0.00     0.253 A 
ATOM     11  H1  UNL     1      35.470   0.277  12.746  1.00  0.00     0.188 HD
HETATM   12  N8  UNL     1      37.974   2.182  13.239  1.00  0.00    -0.250 N 
HETATM   13  N7  UNL     1      38.520   1.136  12.657  1.00  0.00    -0.128 N 
ATOM     14  H8  UNL     1      38.459   3.022  13.557  1.00  0.00     0.191 HD
ATOM     15  H7  UNL     1      39.512   1.028  12.444  1.00  0.00     0.205 HD
BRANCH  10  16
HETATM   16  O1  UNL     1      35.721   2.805  13.901  1.00  0.00    -0.326 OA
HETATM   17  C1  UNL     1      35.934   4.202  13.866  1.00  0.00     0.213 C 
ENDBRANCH  10  16
ENDBRANCH   6   8
ENDBRANCH   1   6
BRANCH   2  18
HETATM   18  N4  UNL     1      35.402  -2.678  11.284  1.00  0.00    -0.096 N 
HETATM   19  O2  UNL     1      35.065  -3.579  10.497  1.00  0.00    -0.530 OA
HETATM   20  O3  UNL     1      34.743  -1.479  11.195  1.00  0.00    -0.530 OA
ENDBRANCH   2  18
BRANCH   5  21
HETATM   21  C8  UNL     1      39.498  -2.021  13.959  1.00  0.00     0.285 C 
HETATM   22  N6  UNL     1      40.559  -1.615  13.110  1.00  0.00    -0.056 NA
HETATM   23  O6  UNL     1      39.612  -1.872  15.198  1.00  0.00    -0.269 OA
ENDBRANCH   5  21
BRANCH   4  24
HETATM   24  N5  UNL     1      38.201  -4.659  14.900  1.00  0.00    -0.034 NA
BRANCH  24  25
HETATM   25  O4  UNL     1      37.674  -5.911  14.700  1.00  0.00    -0.284 OA
ATOM     26  H4  UNL     1      37.448  -6.283  15.544  1.00  0.00     0.240 HD
ENDBRANCH  24  25
BRANCH  24  27
HETATM   27  O5  UNL     1      37.861  -4.272  16.128  1.00  0.00    -0.284 OA
ATOM     28  H5  UNL     1      38.566  -4.367  16.757  1.00  0.00     0.240 HD
ENDBRANCH  24  27
ENDBRANCH   4  24
TORSDOF 8
ENDMDL
MODEL 3
REMARK VINA RESULT: -6.120006580      1.694      2.066
REMARK  8 active torsions:
REMARK  status: ('A' for Active; 'I' for Inactive)
REMARK    1  A    between atoms: O1_2  and  C2_3 
REMARK    2  A    between atoms: C3_6  and  N2_7 
REMARK    3  A    between atoms: N2_7  and  N3_9 
REMARK    4  A    between atoms: C4_10  and  N4_11 
REMARK    5  A    between atoms: C6_15  and  N5_16 
REMARK    6  A    between atoms: N5_16  and  O4_17 
REMARK    7  A    between atoms: N5_16  and  O5_19 
REMARK    8  A    between atoms: C7_21  and  C8_22 
ROOT
HETATM    1  N3  UNL     1      36.780  -3.598  12.892  1.00  0.00    -0.213 N 
HETATM    2  C4  UNL     1      36.943  -4.436  13.949  1.00  0.00     0.198 A 
HETATM    3  C5  UNL     1      35.844  -5.267  13.919  1.00  0.00     0.087 A 
HETATM    4  C6  UNL     1      35.034  -4.925  12.852  1.00  0.00     0.103 A 
HETATM    5  C7  UNL     1      35.657  -3.869  12.227  1.00  0.00     0.150 A 
ENDROOT
BRANCH   1   6
HETATM    6  N2  UNL     1      37.679  -2.586  12.545  1.00  0.00    -0.121 N 
ATOM      7  H2  UNL     1      38.540  -2.824  12.052  1.00  0.00     0.206 HD
BRANCH   6   8
HETATM    8  C3  UNL     1      37.436  -1.356  12.838  1.00  0.00     0.715 A 
HETATM    9  N1  UNL     1      37.204  -0.348  11.970  1.00  0.00    -0.151 N 
HETATM   10  C2  UNL     1      37.005   0.747  12.725  1.00  0.00     0.253 A 
ATOM     11  H1  UNL     1      37.184  -0.406  10.952  1.00  0.00     0.188 HD
HETATM   12  N8  UNL     1      37.112   0.424  14.026  1.00  0.00    -0.250 N 
HETATM   13  N7  UNL     1      37.376  -0.864  14.083  1.00  0.00    -0.128 N 
ATOM     14  H8  UNL     1      37.008   1.058  14.818  1.00  0.00     0.191 HD
ATOM     15  H7  UNL     1      37.513  -1.402  14.939  1.00  0.00     0.205 HD
BRANCH  10  16
HETATM   16  O1  UNL     1      36.729   2.027  12.241  1.00  0.00    -0.326 OA
HETATM   17  C1  UNL     1      37.018   3.166  13.027  1.00  0.00     0.213 C 
ENDBRANCH  10  16
ENDBRANCH   6   8
ENDBRANCH   1   6
BRANCH   2  18
HETATM   18  N4  UNL     1      38.014  -4.445  14.884  1.00  0.00    -0.096 N 
HETATM   19  O2  UNL     1      38.361  -3.404  15.466  1.00  0.00    -0.530 OA
HETATM   20  O3  UNL     1      38.698  -5.596  15.179  1.00  0.00    -0.530 OA
ENDBRANCH   2  18
BRANCH   5  21
HETATM   21  C8  UNL     1      35.173  -3.170  11.052  1.00  0.00     0.285 C 
HETATM   22  N6  UNL     1      34.675  -1.843  11.107  1.00  0.00    -0.056 NA
HETATM   23  O6  UNL     1      35.201  -3.770   9.953  1.00  0.00    -0.269 OA
ENDBRANCH   5  21
BRANCH   4  24
HETATM   24  N5  UNL     1      33.795  -5.542  12.468  1.00  0.00    -0.034 NA
BRANCH  24  25
HETATM   25  O4  UNL     1      33.503  -6.535  13.370  1.00  0.00    -0.284 OA
ATOM     26  H4  UNL     1      33.284  -7.325  12.890  1.00  0.00     0.240 HD
ENDBRANCH  24  25
BRANCH  24  27
HETATM   27  O5  UNL     1      33.842  -6.100  11.259  1.00  0.00    -0.284 OA
ATOM     28  H5  UNL     1      32.999  -6.423  10.965  1.00  0.00     0.240 HD
ENDBRANCH  24  27
ENDBRANCH   4  24
TORSDOF 8
ENDMDL
MODEL 4
REMARK VINA RESULT: -6.002471847      2.108      5.830
REMARK  8 active torsions:
REMARK  status: ('A' for Active; 'I' for Inactive)
REMARK    1  A    between atoms: O1_2  and  C2_3 
REMARK    2  A    between atoms: C3_6  and  N2_7 
REMARK    3  A    between atoms: N2_7  and  N3_9 
REMARK    4  A    between atoms: C4_10  and  N4_11 
REMARK    5  A    between atoms: C6_15  and  N5_16 
REMARK    6  A    between atoms: N5_16  and  O4_17 
REMARK    7  A    between atoms: N5_16  and  O5_19 
REMARK    8  A    between atoms: C7_21  and  C8_22 
ROOT
HETATM    1  N3  UNL     1      38.391   0.392  12.857  1.00  0.00    -0.213 N 
HETATM    2  C4  UNL     1      39.577  -0.041  13.362  1.00  0.00     0.198 A 
HETATM    3  C5  UNL     1      39.939   0.910  14.291  1.00  0.00     0.087 A 
HETATM    4  C6  UNL     1      38.976   1.901  14.339  1.00  0.00     0.103 A 
HETATM    5  C7  UNL     1      38.015   1.540  13.422  1.00  0.00     0.150 A 
ENDROOT
BRANCH   1   6
HETATM    6  N2  UNL     1      37.659  -0.283  11.877  1.00  0.00    -0.121 N 
ATOM      7  H2  UNL     1      37.716   0.024  10.906  1.00  0.00     0.206 HD
BRANCH   6   8
HETATM    8  C3  UNL     1      36.914  -1.288  12.184  1.00  0.00     0.715 A 
HETATM    9  N1  UNL     1      36.244  -2.087  11.327  1.00  0.00    -0.151 N 
HETATM   10  C2  UNL     1      35.605  -2.990  12.092  1.00  0.00     0.253 A 
ATOM     11  H1  UNL     1      36.226  -2.020  10.309  1.00  0.00     0.188 HD
HETATM   12  N8  UNL     1      35.873  -2.753  13.388  1.00  0.00    -0.250 N 
HETATM   13  N7  UNL     1      36.675  -1.710  13.432  1.00  0.00    -0.128 N 
ATOM     14  H8  UNL     1      35.522  -3.283  14.187  1.00  0.00     0.191 HD
ATOM     15  H7  UNL     1      37.053  -1.290  14.281  1.00  0.00     0.205 HD
BRANCH  10  16
HETATM   16  O1  UNL     1      34.787  -4.019  11.622  1.00  0.00    -0.326 OA
HETATM   17  C1  UNL     1      34.438  -5.097  12.467  1.00  0.00     0.213 C 
ENDBRANCH  10  16
ENDBRANCH   6   8
ENDBRANCH   1   6
BRANCH   2  18
HETATM   18  N4  UNL     1      40.288  -1.217  13.000  1.00  0.00    -0.096 N 
HETATM   19  O2  UNL     1      39.875  -2.340  13.336  1.00  0.00    -0.530 OA
HETATM   20  O3  UNL     1      41.447  -1.159  12.270  1.00  0.00    -0.530 OA
ENDBRANCH   2  18
BRANCH   5  21
HETATM   21  C8  UNL     1      36.807   2.282  13.119  1.00  0.00     0.285 C 
HETATM   22  N6  UNL     1      36.797   3.396  12.242  1.00  0.00    -0.056 NA
HETATM   23  O6  UNL     1      35.737   1.915  13.657  1.00  0.00    -0.269 OA
ENDBRANCH   5  21
BRANCH   4  24
HETATM   24  N5  UNL     1      38.971   3.070  15.173  1.00  0.00    -0.034 NA
BRANCH  24  25
HETATM   25  O4  UNL     1      39.729   4.042  14.567  1.00  0.00    -0.284 OA
ATOM     26  H4  UNL     1      39.319   4.885  14.720  1.00  0.00     0.240 HD
ENDBRANCH  24  25
BRANCH  24  27
HETATM   27  O5  UNL     1      39.490   2.852  16.381  1.00  0.00    -0.284 OA
ATOM     28  H5  UNL     1      38.840   2.865  17.073  1.00  0.00     0.240 HD
ENDBRANCH  24  27
ENDBRANCH   4  24
TORSDOF 8
ENDMDL
MODEL 5
REMARK VINA RESULT: -5.912611188      2.119      6.038
REMARK  8 active torsions:
REMARK  status: ('A' for Active; 'I' for Inactive)
REMARK    1  A    between atoms: O1_2  and  C2_3 
REMARK    2  A    between atoms: C3_6  and  N2_7 
REMARK    3  A    between atoms: N2_7  and  N3_9 
REMARK    4  A    between atoms: C4_10  and  N4_11 
REMARK    5  A    between atoms: C6_15  and  N5_16 
REMARK    6  A    between atoms: N5_16  and  O4_17 
REMARK    7  A    between atoms: N5_16  and  O5_19 
REMARK    8  A    between atoms: C7_21  and  C8_22 
ROOT
HETATM    1  N3  UNL     1      38.390   0.840  13.378  1.00  0.00    -0.213 N 
HETATM    2  C4  UNL     1      39.730   0.617  13.338  1.00  0.00     0.198 A 
HETATM    3  C5  UNL     1      40.285   1.833  13.001  1.00  0.00     0.087 A 
HETATM    4  C6  UNL     1      39.282   2.771  12.841  1.00  0.00     0.103 A 
HETATM    5  C7  UNL     1      38.101   2.109  13.087  1.00  0.00     0.150 A 
ENDROOT
BRANCH   1   6
HETATM    6  N2  UNL     1      37.439  -0.135  13.689  1.00  0.00    -0.121 N 
ATOM      7  H2  UNL     1      37.226  -0.336  14.666  1.00  0.00     0.206 HD
BRANCH   6   8
HETATM    8  C3  UNL     1      36.828  -0.784  12.759  1.00  0.00     0.715 A 
HETATM    9  N1  UNL     1      36.146  -1.940  12.895  1.00  0.00    -0.151 N 
HETATM   10  C2  UNL     1      35.686  -2.241  11.667  1.00  0.00     0.253 A 
ATOM     11  H1  UNL     1      36.008  -2.476  13.752  1.00  0.00     0.188 HD
HETATM   12  N8  UNL     1      36.076  -1.294  10.795  1.00  0.00    -0.250 N 
HETATM   13  N7  UNL     1      36.773  -0.409  11.474  1.00  0.00    -0.128 N 
ATOM     14  H8  UNL     1      35.869  -1.268   9.797  1.00  0.00     0.191 HD
ATOM     15  H7  UNL     1      37.204   0.430  11.084  1.00  0.00     0.205 HD
BRANCH  10  16
HETATM   16  O1  UNL     1      34.921  -3.362  11.339  1.00  0.00    -0.326 OA
HETATM   17  C1  UNL     1      34.918  -4.497  12.183  1.00  0.00     0.213 C 
ENDBRANCH  10  16
ENDBRANCH   6   8
ENDBRANCH   1   6
BRANCH   2  18
HETATM   18  N4  UNL     1      40.407  -0.608  13.586  1.00  0.00    -0.096 N 
HETATM   19  O2  UNL     1      41.445  -0.636  14.267  1.00  0.00    -0.530 OA
HETATM   20  O3  UNL     1      39.941  -1.798  13.087  1.00  0.00    -0.530 OA
ENDBRANCH   2  18
BRANCH   5  21
HETATM   21  C8  UNL     1      36.774   2.689  13.036  1.00  0.00     0.285 C 
HETATM   22  N6  UNL     1      35.834   2.534  14.087  1.00  0.00    -0.056 NA
HETATM   23  O6  UNL     1      36.456   3.352  12.022  1.00  0.00    -0.269 OA
ENDBRANCH   5  21
BRANCH   4  24
HETATM   24  N5  UNL     1      39.434   4.156  12.491  1.00  0.00    -0.034 NA
BRANCH  24  25
HETATM   25  O4  UNL     1      38.748   4.916  13.406  1.00  0.00    -0.284 OA
ATOM     26  H4  UNL     1      38.567   5.765  13.020  1.00  0.00     0.240 HD
ENDBRANCH  24  25
BRANCH  24  27
HETATM   27  O5  UNL     1      38.950   4.446  11.285  1.00  0.00    -0.284 OA
ATOM     28  H5  UNL     1      39.436   5.132  10.843  1.00  0.00     0.240 HD
ENDBRANCH  24  27
ENDBRANCH   4  24
TORSDOF 8
ENDMDL
