MODEL 1
REMARK VINA RESULT: -3.340793625      0.000      0.000
REMARK  2 active torsions:
REMARK  status: ('A' for Active; 'I' for Inactive)
REMARK    1  A    between atoms: C2_2  and  O1_3 
REMARK    2  A    between atoms: C2_2  and  C3_5 
ROOT
HETATM    1  C3  UNL     1      25.650 -15.225   8.377  1.00  0.00     0.077 C 
HETATM    2  C4  UNL     1      24.766 -14.372   7.497  1.00  0.00     0.282 C 
HETATM    3  N1  UNL     1      25.620 -13.221   7.633  1.00  0.00     0.098 N 
HETATM    4  C5  UNL     1      26.016 -12.798   8.966  1.00  0.00     0.309 A 
HETATM    5  C6  UNL     1      26.565 -14.050   8.339  1.00  0.00     0.259 A 
ENDROOT
BRANCH   1   6
HETATM    6  C2  UNL     1      26.084 -16.463   7.669  1.00  0.00     0.122 C 
HETATM    7  C1  UNL     1      27.587 -16.614   7.714  1.00  0.00     0.040 C 
BRANCH   6   8
HETATM    8  O1  UNL     1      25.561 -17.559   8.397  1.00  0.00    -0.395 OA
ATOM      9  H1  UNL     1      24.798 -17.853   7.914  1.00  0.00     0.210 HD
ENDBRANCH   6   8
ENDBRANCH   1   6
TORSDOF 2
ENDMDL
MODEL 2
REMARK VINA RESULT: -3.190145615      1.936      2.473
REMARK  2 active torsions:
REMARK  status: ('A' for Active; 'I' for Inactive)
REMARK    1  A    between atoms: C2_2  and  O1_3 
REMARK    2  A    between atoms: C2_2  and  C3_5 
ROOT
HETATM    1  C3  UNL     1      26.797 -14.473   7.660  1.00  0.00     0.077 C 
HETATM    2  C4  UNL     1      26.132 -13.612   8.709  1.00  0.00     0.282 C 
HETATM    3  N1  UNL     1      24.863 -14.273   8.548  1.00  0.00     0.098 N 
HETATM    4  C5  UNL     1      24.315 -14.417   7.210  1.00  0.00     0.309 A 
HETATM    5  C6  UNL     1      25.505 -15.215   7.665  1.00  0.00     0.259 A 
ENDROOT
BRANCH   1   6
HETATM    6  C2  UNL     1      27.996 -15.167   8.214  1.00  0.00     0.122 C 
HETATM    7  C1  UNL     1      28.098 -16.578   7.680  1.00  0.00     0.040 C 
BRANCH   6   8
HETATM    8  O1  UNL     1      29.132 -14.481   7.722  1.00  0.00    -0.395 OA
ATOM      9  H1  UNL     1      29.303 -14.843   6.860  1.00  0.00     0.210 HD
ENDBRANCH   6   8
ENDBRANCH   1   6
TORSDOF 2
ENDMDL
MODEL 3
REMARK VINA RESULT: -2.673911059      1.012      1.250
REMARK  2 active torsions:
REMARK  status: ('A' for Active; 'I' for Inactive)
REMARK    1  A    between atoms: C2_2  and  O1_3 
REMARK    2  A    between atoms: C2_2  and  C3_5 
ROOT
HETATM    1  C3  UNL     1      25.432 -15.094   8.684  1.00  0.00     0.077 C 
HETATM    2  C4  UNL     1      24.644 -14.228   7.729  1.00  0.00     0.282 C 
HETATM    3  N1  UNL     1      25.697 -13.250   7.636  1.00  0.00     0.098 N 
HETATM    4  C5  UNL     1      26.269 -12.721   8.862  1.00  0.00     0.309 A 
HETATM    5  C6  UNL     1      26.535 -14.131   8.412  1.00  0.00     0.259 A 
ENDROOT
BRANCH   1   6
HETATM    6  C2  UNL     1      25.579 -16.482   8.157  1.00  0.00     0.122 C 
HETATM    7  C1  UNL     1      24.783 -16.664   6.885  1.00  0.00     0.040 C 
BRANCH   6   8
HETATM    8  O1  UNL     1      26.938 -16.641   7.792  1.00  0.00    -0.395 OA
ATOM      9  H1  UNL     1      27.005 -16.334   6.896  1.00  0.00     0.210 HD
ENDBRANCH   6   8
ENDBRANCH   1   6
TORSDOF 2
ENDMDL
MODEL 4
REMARK VINA RESULT: -2.566344318      1.989      3.261
REMARK  2 active torsions:
REMARK  status: ('A' for Active; 'I' for Inactive)
REMARK    1  A    between atoms: C2_2  and  O1_3 
REMARK    2  A    between atoms: C2_2  and  C3_5 
ROOT
HETATM    1  C3  UNL     1      25.093 -14.276   8.142  1.00  0.00     0.077 C 
HETATM    2  C4  UNL     1      25.518 -15.718   7.987  1.00  0.00     0.282 C 
HETATM    3  N1  UNL     1      24.697 -15.908   6.819  1.00  0.00     0.098 N 
HETATM    4  C5  UNL     1      23.298 -15.520   6.879  1.00  0.00     0.309 A 
HETATM    5  C6  UNL     1      24.399 -14.497   6.843  1.00  0.00     0.259 A 
ENDROOT
BRANCH   1   6
HETATM    6  C2  UNL     1      26.273 -13.364   8.151  1.00  0.00     0.122 C 
HETATM    7  C1  UNL     1      26.283 -12.505   9.395  1.00  0.00     0.040 C 
BRANCH   6   8
HETATM    8  O1  UNL     1      27.425 -14.182   8.234  1.00  0.00    -0.395 OA
ATOM      9  H1  UNL     1      27.811 -14.005   9.084  1.00  0.00     0.210 HD
ENDBRANCH   6   8
ENDBRANCH   1   6
TORSDOF 2
ENDMDL
MODEL 5
REMARK VINA RESULT: -2.511596051      1.400      2.550
REMARK  2 active torsions:
REMARK  status: ('A' for Active; 'I' for Inactive)
REMARK    1  A    between atoms: C2_2  and  O1_3 
REMARK    2  A    between atoms: C2_2  and  C3_5 
ROOT
HETATM    1  C3  UNL     1      25.855 -15.669   8.307  1.00  0.00     0.077 C 
HETATM    2  C4  UNL     1      26.345 -14.253   8.499  1.00  0.00     0.282 C 
HETATM    3  N1  UNL     1      27.566 -14.502   7.778  1.00  0.00     0.098 N 
HETATM    4  C5  UNL     1      28.373 -15.653   8.147  1.00  0.00     0.309 A 
HETATM    5  C6  UNL     1      27.056 -15.808   7.438  1.00  0.00     0.259 A 
ENDROOT
BRANCH   1   6
HETATM    6  C2  UNL     1      24.517 -15.692   7.648  1.00  0.00     0.122 C 
HETATM    7  C1  UNL     1      24.266 -14.410   6.889  1.00  0.00     0.040 C 
BRANCH   6   8
HETATM    8  O1  UNL     1      24.555 -16.720   6.676  1.00  0.00    -0.395 OA
ATOM      9  H1  UNL     1      25.306 -16.530   6.125  1.00  0.00     0.210 HD
ENDBRANCH   6   8
ENDBRANCH   1   6
TORSDOF 2
ENDMDL
