MODEL 1
REMARK VINA RESULT: -8.010508827      0.000      0.000
REMARK  5 active torsions:
REMARK  status: ('A' for Active; 'I' for Inactive)
REMARK    1  A    between atoms: C6_6  and  C7_7 
REMARK    2  A    between atoms: C11_11  and  C12_12 
REMARK    3  A    between atoms: C13_15  and  S1_16 
REMARK    4  A    between atoms: S1_16  and  C14_17 
REMARK    5  A    between atoms: C14_17  and  C15_18 
ROOT
HETATM    1  C12 UNL     1      12.996  24.239 115.820  1.00  0.00     0.072 A 
HETATM    2  N1  UNL     1      13.458  23.929 114.608  1.00  0.00    -0.335 N 
ATOM      3  H1  UNL     1      13.089  24.461 113.820  1.00  0.00     0.168 HD
HETATM    4  C13 UNL     1      14.371  22.974 114.331  1.00  0.00     0.148 A 
HETATM    5  N5  UNL     1      14.852  22.279 115.381  1.00  0.00    -0.302 N 
ATOM      6  H5  UNL     1      15.543  21.546 115.222  1.00  0.00     0.171 HD
HETATM    7  C18 UNL     1      14.436  22.533 116.635  1.00  0.00     0.270 A 
HETATM    8  O1  UNL     1      14.912  21.857 117.601  1.00  0.00    -0.266 OA
HETATM    9  C19 UNL     1      13.504  23.516 116.870  1.00  0.00     0.140 A 
HETATM   10  C20 UNL     1      13.134  23.724 118.271  1.00  0.00     0.107 C 
HETATM   11  N6  UNL     1      12.833  23.907 119.372  1.00  0.00    -0.191 NA
ENDROOT
BRANCH   1  12
HETATM   12  C11 UNL     1      11.990  25.224 116.127  1.00  0.00     0.006 A 
HETATM   13  C2  UNL     1      12.510  26.474 116.490  1.00  0.00    -0.034 A 
HETATM   14  C1  UNL     1      13.953  26.791 116.389  1.00  0.00     0.050 C 
HETATM   15  C3  UNL     1      11.580  27.415 116.900  1.00  0.00     0.025 A 
HETATM   16  C4  UNL     1      10.232  27.135 116.943  1.00  0.00    -0.015 A 
HETATM   17  C25 UNL     1      12.219  28.678 117.288  1.00  0.00     0.162 C 
HETATM   18  C5  UNL     1       9.814  25.885 116.567  1.00  0.00     0.018 A 
HETATM   19  C21 UNL     1       9.101  27.980 117.343  1.00  0.00     0.311 C 
HETATM   20  C6  UNL     1      10.655  24.847 116.135  1.00  0.00    -0.037 A 
HETATM   21  N7  UNL     1       9.452  28.951 118.359  1.00  0.00     0.088 N 
HETATM   22  C22 UNL     1       8.208  29.585 118.773  1.00  0.00     0.310 C 
HETATM   23  C23 UNL     1      10.274  30.019 117.778  1.00  0.00     0.280 C 
HETATM   24  C24 UNL     1      11.699  29.731 118.191  1.00  0.00     0.114 C 
HETATM   25  O2  UNL     1      13.305  28.877 116.806  1.00  0.00    -0.292 OA
BRANCH  20  26
HETATM   26  C7  UNL     1      10.125  23.560 115.755  1.00  0.00    -0.023 C 
HETATM   27  C8  UNL     1      10.383  22.924 114.440  1.00  0.00     0.019 C 
HETATM   28  C9  UNL     1       8.586  23.772 115.643  1.00  0.00     0.019 C 
HETATM   29  C10 UNL     1      10.059  22.506 116.879  1.00  0.00     0.019 C 
ENDBRANCH  20  26
ENDBRANCH   1  12
BRANCH   4  30
HETATM   30  S1  UNL     1      14.885  22.643 112.662  1.00  0.00    -0.086 SA
BRANCH  30  31
HETATM   31  C14 UNL     1      16.514  23.361 112.389  1.00  0.00     0.160 C 
BRANCH  31  32
HETATM   32  C15 UNL     1      16.558  24.768 112.892  1.00  0.00     0.109 A 
HETATM   33  N2  UNL     1      16.984  25.183 114.103  1.00  0.00    -0.286 N 
HETATM   34  N3  UNL     1      16.886  26.493 114.146  1.00  0.00    -0.275 N 
ATOM     35  H2  UNL     1      17.323  24.584 114.856  1.00  0.00     0.188 HD
HETATM   36  C16 UNL     1      16.401  26.938 112.976  1.00  0.00     0.194 A 
ATOM     37  H3  UNL     1      17.138  27.078 114.942  1.00  0.00     0.189 HD
HETATM   38  S2  UNL     1      16.113  28.515 112.582  1.00  0.00    -0.039 SA
HETATM   39  N4  UNL     1      16.203  25.862 112.208  1.00  0.00    -0.315 N 
HETATM   40  C17 UNL     1      15.689  25.965 110.837  1.00  0.00     0.160 C 
ENDBRANCH  31  32
ENDBRANCH  30  31
ENDBRANCH   4  30
TORSDOF 5
ENDMDL
MODEL 2
REMARK VINA RESULT: -7.972147352      2.624      4.264
REMARK  5 active torsions:
REMARK  status: ('A' for Active; 'I' for Inactive)
REMARK    1  A    between atoms: C6_6  and  C7_7 
REMARK    2  A    between atoms: C11_11  and  C12_12 
REMARK    3  A    between atoms: C13_15  and  S1_16 
REMARK    4  A    between atoms: S1_16  and  C14_17 
REMARK    5  A    between atoms: C14_17  and  C15_18 
ROOT
HETATM    1  C12 UNL     1      13.532  24.356 115.530  1.00  0.00     0.072 A 
HETATM    2  N1  UNL     1      14.259  25.213 114.811  1.00  0.00    -0.335 N 
ATOM      3  H1  UNL     1      13.790  26.055 114.478  1.00  0.00     0.168 HD
HETATM    4  C13 UNL     1      15.561  25.064 114.486  1.00  0.00     0.148 A 
HETATM    5  N5  UNL     1      16.169  23.947 114.934  1.00  0.00    -0.302 N 
ATOM      6  H5  UNL     1      17.153  23.790 114.712  1.00  0.00     0.171 HD
HETATM    7  C18 UNL     1      15.504  23.036 115.666  1.00  0.00     0.270 A 
HETATM    8  O1  UNL     1      16.110  21.995 116.071  1.00  0.00    -0.266 OA
HETATM    9  C19 UNL     1      14.178  23.229 115.974  1.00  0.00     0.140 A 
HETATM   10  C20 UNL     1      13.552  22.187 116.790  1.00  0.00     0.107 C 
HETATM   11  N6  UNL     1      13.043  21.378 117.439  1.00  0.00    -0.191 NA
ENDROOT
BRANCH   1  12
HETATM   12  C11 UNL     1      12.132  24.478 115.848  1.00  0.00     0.006 A 
HETATM   13  C2  UNL     1      11.279  23.912 114.891  1.00  0.00    -0.034 A 
HETATM   14  C1  UNL     1      11.787  23.108 113.755  1.00  0.00     0.050 C 
HETATM   15  C3  UNL     1       9.925  24.106 115.104  1.00  0.00     0.025 A 
HETATM   16  C4  UNL     1       9.452  24.809 116.190  1.00  0.00    -0.015 A 
HETATM   17  C25 UNL     1       9.115  23.505 114.038  1.00  0.00     0.162 C 
HETATM   18  C5  UNL     1      10.360  25.326 117.077  1.00  0.00     0.018 A 
HETATM   19  C21 UNL     1       8.075  25.123 116.590  1.00  0.00     0.311 C 
HETATM   20  C6  UNL     1      11.754  25.200 116.972  1.00  0.00    -0.037 A 
HETATM   21  N7  UNL     1       7.177  25.265 115.461  1.00  0.00     0.088 N 
HETATM   22  C22 UNL     1       5.910  25.741 115.998  1.00  0.00     0.310 C 
HETATM   23  C23 UNL     1       6.895  23.951 114.870  1.00  0.00     0.280 C 
HETATM   24  C24 UNL     1       7.738  23.858 113.620  1.00  0.00     0.114 C 
HETATM   25  O2  UNL     1       9.644  22.610 113.429  1.00  0.00    -0.292 OA
BRANCH  20  26
HETATM   26  C7  UNL     1      12.636  25.777 117.957  1.00  0.00    -0.023 C 
HETATM   27  C8  UNL     1      13.314  24.985 119.013  1.00  0.00     0.019 C 
HETATM   28  C9  UNL     1      11.722  26.668 118.848  1.00  0.00     0.019 C 
HETATM   29  C10 UNL     1      13.538  26.924 117.456  1.00  0.00     0.019 C 
ENDBRANCH  20  26
ENDBRANCH   1  12
BRANCH   4  30
HETATM   30  S1  UNL     1      16.409  26.272 113.497  1.00  0.00    -0.086 SA
BRANCH  30  31
HETATM   31  C14 UNL     1      15.296  26.883 112.220  1.00  0.00     0.160 C 
BRANCH  31  32
HETATM   32  C15 UNL     1      16.055  27.201 110.971  1.00  0.00     0.109 A 
HETATM   33  N2  UNL     1      16.567  28.398 110.617  1.00  0.00    -0.286 N 
HETATM   34  N3  UNL     1      17.179  28.257 109.463  1.00  0.00    -0.275 N 
ATOM     35  H2  UNL     1      16.493  29.263 111.153  1.00  0.00     0.188 HD
HETATM   36  C16 UNL     1      17.072  26.981 109.059  1.00  0.00     0.194 A 
ATOM     37  H3  UNL     1      17.659  29.000 108.954  1.00  0.00     0.189 HD
HETATM   38  S2  UNL     1      17.690  26.349 107.665  1.00  0.00    -0.039 SA
HETATM   39  N4  UNL     1      16.375  26.338 110.001  1.00  0.00    -0.315 N 
HETATM   40  C17 UNL     1      16.073  24.904 109.906  1.00  0.00     0.160 C 
ENDBRANCH  31  32
ENDBRANCH  30  31
ENDBRANCH   4  30
TORSDOF 5
ENDMDL
MODEL 3
REMARK VINA RESULT: -7.916892916      2.461      3.776
REMARK  5 active torsions:
REMARK  status: ('A' for Active; 'I' for Inactive)
REMARK    1  A    between atoms: C6_6  and  C7_7 
REMARK    2  A    between atoms: C11_11  and  C12_12 
REMARK    3  A    between atoms: C13_15  and  S1_16 
REMARK    4  A    between atoms: S1_16  and  C14_17 
REMARK    5  A    between atoms: C14_17  and  C15_18 
ROOT
HETATM    1  C12 UNL     1      13.122  24.719 115.957  1.00  0.00     0.072 A 
HETATM    2  N1  UNL     1      14.106  25.291 115.263  1.00  0.00    -0.335 N 
ATOM      3  H1  UNL     1      13.917  26.207 114.856  1.00  0.00     0.168 HD
HETATM    4  C13 UNL     1      15.332  24.766 115.051  1.00  0.00     0.148 A 
HETATM    5  N5  UNL     1      15.570  23.555 115.595  1.00  0.00    -0.302 N 
ATOM      6  H5  UNL     1      16.482  23.117 115.461  1.00  0.00     0.171 HD
HETATM    7  C18 UNL     1      14.628  22.914 116.310  1.00  0.00     0.270 A 
HETATM    8  O1  UNL     1      14.889  21.774 116.808  1.00  0.00    -0.266 OA
HETATM    9  C19 UNL     1      13.393  23.488 116.500  1.00  0.00     0.140 A 
HETATM   10  C20 UNL     1      12.447  22.715 117.308  1.00  0.00     0.107 C 
HETATM   11  N6  UNL     1      11.689  22.123 117.948  1.00  0.00    -0.191 NA
ENDROOT
BRANCH   1  12
HETATM   12  C11 UNL     1      11.796  25.246 116.155  1.00  0.00     0.006 A 
HETATM   13  C2  UNL     1      10.864  24.815 115.201  1.00  0.00    -0.034 A 
HETATM   14  C1  UNL     1      11.183  23.775 114.195  1.00  0.00     0.050 C 
HETATM   15  C3  UNL     1       9.606  25.386 115.290  1.00  0.00     0.025 A 
HETATM   16  C4  UNL     1       9.294  26.314 116.258  1.00  0.00    -0.015 A 
HETATM   17  C25 UNL     1       8.711  24.898 114.234  1.00  0.00     0.162 C 
HETATM   18  C5  UNL     1      10.269  26.675 117.153  1.00  0.00     0.018 A 
HETATM   19  C21 UNL     1       8.039  27.028 116.519  1.00  0.00     0.311 C 
HETATM   20  C6  UNL     1      11.579  26.171 117.166  1.00  0.00    -0.037 A 
HETATM   21  N7  UNL     1       7.264  27.267 115.318  1.00  0.00     0.088 N 
HETATM   22  C22 UNL     1       6.152  28.124 115.706  1.00  0.00     0.310 C 
HETATM   23  C23 UNL     1       6.662  26.014 114.846  1.00  0.00     0.280 C 
HETATM   24  C24 UNL     1       7.502  25.551 113.679  1.00  0.00     0.114 C 
HETATM   25  O2  UNL     1       9.002  23.828 113.762  1.00  0.00    -0.292 OA
BRANCH  20  26
HETATM   26  C7  UNL     1      12.541  26.607 118.150  1.00  0.00    -0.023 C 
HETATM   27  C8  UNL     1      13.129  25.710 119.174  1.00  0.00     0.019 C 
HETATM   28  C9  UNL     1      11.759  27.582 119.078  1.00  0.00     0.019 C 
HETATM   29  C10 UNL     1      13.573  27.644 117.661  1.00  0.00     0.019 C 
ENDBRANCH  20  26
ENDBRANCH   1  12
BRANCH   4  30
HETATM   30  S1  UNL     1      16.550  25.624 114.083  1.00  0.00    -0.086 SA
BRANCH  30  31
HETATM   31  C14 UNL     1      15.862  26.003 112.462  1.00  0.00     0.160 C 
BRANCH  31  32
HETATM   32  C15 UNL     1      15.643  27.475 112.316  1.00  0.00     0.109 A 
HETATM   33  N2  UNL     1      16.546  28.454 112.537  1.00  0.00    -0.286 N 
HETATM   34  N3  UNL     1      15.972  29.607 112.275  1.00  0.00    -0.275 N 
ATOM     35  H2  UNL     1      17.507  28.323 112.853  1.00  0.00     0.188 HD
HETATM   36  C16 UNL     1      14.705  29.392 111.885  1.00  0.00     0.194 A 
ATOM     37  H3  UNL     1      16.418  30.521 112.356  1.00  0.00     0.189 HD
HETATM   38  S2  UNL     1      13.611  30.551 111.457  1.00  0.00    -0.039 SA
HETATM   39  N4  UNL     1      14.515  28.069 111.914  1.00  0.00    -0.315 N 
HETATM   40  C17 UNL     1      13.237  27.456 111.530  1.00  0.00     0.160 C 
ENDBRANCH  31  32
ENDBRANCH  30  31
ENDBRANCH   4  30
TORSDOF 5
ENDMDL
MODEL 4
REMARK VINA RESULT: -7.891883239      3.119      6.549
REMARK  5 active torsions:
REMARK  status: ('A' for Active; 'I' for Inactive)
REMARK    1  A    between atoms: C6_6  and  C7_7 
REMARK    2  A    between atoms: C11_11  and  C12_12 
REMARK    3  A    between atoms: C13_15  and  S1_16 
REMARK    4  A    between atoms: S1_16  and  C14_17 
REMARK    5  A    between atoms: C14_17  and  C15_18 
ROOT
HETATM    1  C12 UNL     1      12.443  23.579 116.782  1.00  0.00     0.072 A 
HETATM    2  N1  UNL     1      12.112  24.731 116.196  1.00  0.00    -0.335 N 
ATOM      3  H1  UNL     1      11.664  24.675 115.281  1.00  0.00     0.168 HD
HETATM    4  C13 UNL     1      12.317  25.963 116.707  1.00  0.00     0.148 A 
HETATM    5  N5  UNL     1      12.909  26.024 117.916  1.00  0.00    -0.302 N 
ATOM      6  H5  UNL     1      13.086  26.934 118.342  1.00  0.00     0.171 HD
HETATM    7  C18 UNL     1      13.272  24.906 118.571  1.00  0.00     0.270 A 
HETATM    8  O1  UNL     1      13.828  25.001 119.711  1.00  0.00    -0.266 OA
HETATM    9  C19 UNL     1      13.043  23.670 118.013  1.00  0.00     0.140 A 
HETATM   10  C20 UNL     1      13.458  22.519 118.816  1.00  0.00     0.107 C 
HETATM   11  N6  UNL     1      13.775  21.598 119.438  1.00  0.00    -0.191 NA
ENDROOT
BRANCH   1  12
HETATM   12  C11 UNL     1      12.272  22.259 116.232  1.00  0.00     0.006 A 
HETATM   13  C2  UNL     1      11.120  21.599 116.683  1.00  0.00    -0.034 A 
HETATM   14  C1  UNL     1      10.092  22.275 117.508  1.00  0.00     0.050 C 
HETATM   15  C3  UNL     1      10.977  20.286 116.266  1.00  0.00     0.025 A 
HETATM   16  C4  UNL     1      11.908  19.675 115.456  1.00  0.00    -0.015 A 
HETATM   17  C25 UNL     1       9.762  19.671 116.812  1.00  0.00     0.162 C 
HETATM   18  C5  UNL     1      13.004  20.399 115.061  1.00  0.00     0.018 A 
HETATM   19  C21 UNL     1      11.943  18.312 114.911  1.00  0.00     0.311 C 
HETATM   20  C6  UNL     1      13.263  21.731 115.416  1.00  0.00    -0.037 A 
HETATM   21  N7  UNL     1      11.305  17.341 115.778  1.00  0.00     0.088 N 
HETATM   22  C22 UNL     1      11.570  16.032 115.197  1.00  0.00     0.310 C 
HETATM   23  C23 UNL     1       9.847  17.510 115.743  1.00  0.00     0.280 C 
HETATM   24  C24 UNL     1       9.472  18.233 117.016  1.00  0.00     0.114 C 
HETATM   25  O2  UNL     1       8.892  20.441 117.133  1.00  0.00    -0.292 OA
BRANCH  20  26
HETATM   26  C7  UNL     1      14.444  22.417 114.950  1.00  0.00    -0.023 C 
HETATM   27  C8  UNL     1      14.405  23.682 114.178  1.00  0.00     0.019 C 
HETATM   28  C9  UNL     1      15.061  21.476 113.874  1.00  0.00     0.019 C 
HETATM   29  C10 UNL     1      15.655  22.385 115.905  1.00  0.00     0.019 C 
ENDBRANCH  20  26
ENDBRANCH   1  12
BRANCH   4  30
HETATM   30  S1  UNL     1      11.850  27.425 115.808  1.00  0.00    -0.086 SA
BRANCH  30  31
HETATM   31  C14 UNL     1      13.212  28.601 115.837  1.00  0.00     0.160 C 
BRANCH  31  32
HETATM   32  C15 UNL     1      14.324  28.139 114.951  1.00  0.00     0.109 A 
HETATM   33  N2  UNL     1      15.243  27.190 115.231  1.00  0.00    -0.286 N 
HETATM   34  N3  UNL     1      16.030  27.061 114.186  1.00  0.00    -0.275 N 
ATOM     35  H2  UNL     1      15.315  26.665 116.102  1.00  0.00     0.188 HD
HETATM   36  C16 UNL     1      15.636  27.915 113.227  1.00  0.00     0.194 A 
ATOM     37  H3  UNL     1      16.817  26.416 114.116  1.00  0.00     0.189 HD
HETATM   38  S2  UNL     1      16.334  28.097 111.743  1.00  0.00    -0.039 SA
HETATM   39  N4  UNL     1      14.579  28.574 113.712  1.00  0.00    -0.315 N 
HETATM   40  C17 UNL     1      13.865  29.589 112.927  1.00  0.00     0.160 C 
ENDBRANCH  31  32
ENDBRANCH  30  31
ENDBRANCH   4  30
TORSDOF 5
ENDMDL
MODEL 5
REMARK VINA RESULT: -7.840325875      2.027      2.419
REMARK  5 active torsions:
REMARK  status: ('A' for Active; 'I' for Inactive)
REMARK    1  A    between atoms: C6_6  and  C7_7 
REMARK    2  A    between atoms: C11_11  and  C12_12 
REMARK    3  A    between atoms: C13_15  and  S1_16 
REMARK    4  A    between atoms: S1_16  and  C14_17 
REMARK    5  A    between atoms: C14_17  and  C15_18 
ROOT
HETATM    1  C12 UNL     1      13.353  25.035 115.391  1.00  0.00     0.072 A 
HETATM    2  N1  UNL     1      14.405  25.473 114.698  1.00  0.00    -0.335 N 
ATOM      3  H1  UNL     1      14.284  26.334 114.165  1.00  0.00     0.168 HD
HETATM    4  C13 UNL     1      15.615  24.878 114.641  1.00  0.00     0.148 A 
HETATM    5  N5  UNL     1      15.762  23.741 115.350  1.00  0.00    -0.302 N 
ATOM      6  H5  UNL     1      16.659  23.255 115.337  1.00  0.00     0.171 HD
HETATM    7  C18 UNL     1      14.748  23.236 116.075  1.00  0.00     0.270 A 
HETATM    8  O1  UNL     1      14.923  22.162 116.733  1.00  0.00    -0.266 OA
HETATM    9  C19 UNL     1      13.531  23.876 116.106  1.00  0.00     0.140 A 
HETATM   10  C20 UNL     1      12.501  23.254 116.939  1.00  0.00     0.107 C 
HETATM   11  N6  UNL     1      11.678  22.780 117.596  1.00  0.00    -0.191 NA
ENDROOT
BRANCH   1  12
HETATM   12  C11 UNL     1      12.043  25.633 115.428  1.00  0.00     0.006 A 
HETATM   13  C2  UNL     1      11.867  26.556 116.469  1.00  0.00    -0.034 A 
HETATM   14  C1  UNL     1      12.987  26.998 117.332  1.00  0.00     0.050 C 
HETATM   15  C3  UNL     1      10.589  27.069 116.607  1.00  0.00     0.025 A 
HETATM   16  C4  UNL     1       9.560  26.697 115.770  1.00  0.00    -0.015 A 
HETATM   17  C25 UNL     1      10.496  28.001 117.738  1.00  0.00     0.162 C 
HETATM   18  C5  UNL     1       9.825  25.789 114.777  1.00  0.00     0.018 A 
HETATM   19  C21 UNL     1       8.154  27.117 115.750  1.00  0.00     0.311 C 
HETATM   20  C6  UNL     1      11.074  25.197 114.536  1.00  0.00    -0.037 A 
HETATM   21  N7  UNL     1       7.645  27.451 117.065  1.00  0.00     0.088 N 
HETATM   22  C22 UNL     1       6.215  27.675 116.910  1.00  0.00     0.310 C 
HETATM   23  C23 UNL     1       8.207  28.730 117.517  1.00  0.00     0.280 C 
HETATM   24  C24 UNL     1       9.293  28.390 118.510  1.00  0.00     0.114 C 
HETATM   25  O2  UNL     1      11.534  28.509 118.076  1.00  0.00    -0.292 OA
BRANCH  20  26
HETATM   26  C7  UNL     1      11.262  24.250 113.462  1.00  0.00    -0.023 C 
HETATM   27  C8  UNL     1      12.339  24.364 112.450  1.00  0.00     0.019 C 
HETATM   28  C9  UNL     1      10.020  24.430 112.541  1.00  0.00     0.019 C 
HETATM   29  C10 UNL     1      10.985  22.775 113.817  1.00  0.00     0.019 C 
ENDBRANCH  20  26
ENDBRANCH   1  12
BRANCH   4  30
HETATM   30  S1  UNL     1      16.931  25.555 113.655  1.00  0.00    -0.086 SA
BRANCH  30  31
HETATM   31  C14 UNL     1      16.278  26.050 112.052  1.00  0.00     0.160 C 
BRANCH  31  32
HETATM   32  C15 UNL     1      15.902  27.497 112.062  1.00  0.00     0.109 A 
HETATM   33  N2  UNL     1      16.614  28.516 112.589  1.00  0.00    -0.286 N 
HETATM   34  N3  UNL     1      15.955  29.632 112.373  1.00  0.00    -0.275 N 
ATOM     35  H2  UNL     1      17.509  28.434 113.071  1.00  0.00     0.188 HD
HETATM   36  C16 UNL     1      14.819  29.353 111.711  1.00  0.00     0.194 A 
ATOM     37  H3  UNL     1      16.257  30.562 112.663  1.00  0.00     0.189 HD
HETATM   38  S2  UNL     1      13.683  30.449 111.230  1.00  0.00    -0.039 SA
HETATM   39  N4  UNL     1      14.800  28.030 111.524  1.00  0.00    -0.315 N 
HETATM   40  C17 UNL     1      13.704  27.359 110.813  1.00  0.00     0.160 C 
ENDBRANCH  31  32
ENDBRANCH  30  31
ENDBRANCH   4  30
TORSDOF 5
ENDMDL
