MODEL 1
REMARK VINA RESULT: -9.676749990      0.000      0.000
REMARK  5 active torsions:
REMARK  status: ('A' for Active; 'I' for Inactive)
REMARK    1  A    between atoms: C6_6  and  O1_7 
REMARK    2  A    between atoms: O1_7  and  C7_8 
REMARK    3  A    between atoms: C8_11  and  C9_12 
REMARK       I    between atoms: C9_12  and  N2_14 
REMARK    4  A    between atoms: N2_14  and  C10_16 
REMARK    5  A    between atoms: N4_27  and  C19_28 
ROOT
HETATM    1  C1  UNL     1      12.210  16.160 114.940  1.00  0.00     0.018 C 
HETATM    2  C2  UNL     1      12.677  17.209 114.559  1.00  0.00    -0.078 C 
HETATM    3  C3  UNL     1      13.222  18.452 114.085  1.00  0.00     0.018 A 
HETATM    4  C4  UNL     1      14.024  18.461 112.984  1.00  0.00     0.023 A 
HETATM    5  C5  UNL     1      14.512  19.685 112.587  1.00  0.00     0.040 A 
HETATM    6  C6  UNL     1      14.206  20.851 113.266  1.00  0.00     0.096 A 
HETATM    7  C8  UNL     1      13.406  20.842 114.360  1.00  0.00     0.067 A 
HETATM    8  C30 UNL     1      12.911  19.583 114.762  1.00  0.00     0.040 A 
ENDROOT
BRANCH   7   9
HETATM    9  C9  UNL     1      12.968  22.020 115.124  1.00  0.00     0.259 C 
HETATM   10  O3  UNL     1      11.818  22.475 114.811  1.00  0.00    -0.267 OA
HETATM   11  N2  UNL     1      13.673  22.660 116.128  1.00  0.00    -0.323 N 
ATOM     12  H2  UNL     1      14.591  22.298 116.386  1.00  0.00     0.169 HD
BRANCH  11  13
HETATM   13  C10 UNL     1      13.165  23.818 116.826  1.00  0.00     0.035 A 
HETATM   14  C11 UNL     1      12.526  23.587 118.052  1.00  0.00     0.030 A 
HETATM   15  C12 UNL     1      12.065  24.671 118.748  1.00  0.00     0.010 A 
HETATM   16  C13 UNL     1      12.206  25.978 118.288  1.00  0.00    -0.045 A 
HETATM   17  C14 UNL     1      12.839  26.161 117.081  1.00  0.00     0.002 A 
HETATM   18  C29 UNL     1      11.653  27.009 119.164  1.00  0.00     0.045 A 
HETATM   19  C15 UNL     1      13.319  25.092 116.350  1.00  0.00     0.044 A 
HETATM   20  C16 UNL     1      12.990  27.541 116.590  1.00  0.00     0.075 A 
HETATM   21  C17 UNL     1      12.474  28.553 117.400  1.00  0.00     0.038 A 
HETATM   22  N4  UNL     1      13.528  28.067 115.505  1.00  0.00    -0.291 N 
HETATM   23  N3  UNL     1      12.725  29.706 116.754  1.00  0.00    -0.353 N 
HETATM   24  C28 UNL     1      11.801  28.386 118.683  1.00  0.00     0.064 A 
HETATM   25  C18 UNL     1      13.352  29.432 115.623  1.00  0.00     0.190 A 
ATOM     26  H3  UNL     1      12.474  30.638 117.084  1.00  0.00     0.166 HD
BRANCH  22  27
HETATM   27  C19 UNL     1      14.168  27.465 114.399  1.00  0.00     0.113 A 
HETATM   28  C20 UNL     1      15.570  27.383 114.350  1.00  0.00     0.051 A 
HETATM   29  C21 UNL     1      16.224  26.852 113.261  1.00  0.00     0.035 A 
HETATM   30  C22 UNL     1      15.520  26.375 112.165  1.00  0.00     0.059 A 
HETATM   31  N5  UNL     1      16.139  25.853 111.092  1.00  0.00    -0.363 N 
HETATM   32  C27 UNL     1      14.145  26.464 112.233  1.00  0.00     0.062 A 
HETATM   33  C23 UNL     1      15.453  25.388 110.024  1.00  0.00     0.111 A 
ATOM     34  H5  UNL     1      17.157  25.807 111.083  1.00  0.00     0.165 HD
HETATM   35  C24 UNL     1      14.074  25.454 110.041  1.00  0.00     0.062 A 
HETATM   36  C25 UNL     1      13.359  24.955 108.897  1.00  0.00     0.101 C 
HETATM   37  C26 UNL     1      13.441  25.988 111.140  1.00  0.00     0.056 A 
HETATM   38  N6  UNL     1      12.768  24.562 107.975  1.00  0.00    -0.191 NA
HETATM   39  N7  UNL     1      13.532  26.986 113.306  1.00  0.00    -0.340 N 
ATOM     40  H7  UNL     1      12.513  27.025 113.297  1.00  0.00     0.167 HD
ENDBRANCH  22  27
ENDBRANCH  11  13
ENDBRANCH   7   9
BRANCH   6  41
HETATM   41  O1  UNL     1      14.760  22.009 112.770  1.00  0.00    -0.263 OA
BRANCH  41  42
HETATM   42  C7  UNL     1      15.976  22.489 113.336  1.00  0.00     0.378 C 
HETATM   43  N1  UNL     1      16.872  23.148 112.479  1.00  0.00    -0.032 NA
HETATM   44  O2  UNL     1      16.137  22.283 114.546  1.00  0.00    -0.242 OA
ENDBRANCH  41  42
ENDBRANCH   6  41
TORSDOF 5
ENDMDL
MODEL 2
REMARK VINA RESULT: -9.346707203      3.971      6.047
REMARK  5 active torsions:
REMARK  status: ('A' for Active; 'I' for Inactive)
REMARK    1  A    between atoms: C6_6  and  O1_7 
REMARK    2  A    between atoms: O1_7  and  C7_8 
REMARK    3  A    between atoms: C8_11  and  C9_12 
REMARK       I    between atoms: C9_12  and  N2_14 
REMARK    4  A    between atoms: N2_14  and  C10_16 
REMARK    5  A    between atoms: N4_27  and  C19_28 
ROOT
HETATM    1  C1  UNL     1      16.378  23.644 112.419  1.00  0.00     0.018 C 
HETATM    2  C2  UNL     1      15.774  23.270 113.397  1.00  0.00    -0.078 C 
HETATM    3  C3  UNL     1      15.069  22.839 114.574  1.00  0.00     0.018 A 
HETATM    4  C4  UNL     1      15.757  22.275 115.605  1.00  0.00     0.023 A 
HETATM    5  C5  UNL     1      15.020  21.884 116.698  1.00  0.00     0.040 A 
HETATM    6  C6  UNL     1      13.648  22.055 116.755  1.00  0.00     0.096 A 
HETATM    7  C8  UNL     1      12.963  22.618 115.730  1.00  0.00     0.067 A 
HETATM    8  C30 UNL     1      13.726  23.014 114.611  1.00  0.00     0.040 A 
ENDROOT
BRANCH   7   9
HETATM    9  C9  UNL     1      11.519  22.900 115.703  1.00  0.00     0.259 C 
HETATM   10  O3  UNL     1      11.085  23.409 114.617  1.00  0.00    -0.267 OA
HETATM   11  N2  UNL     1      10.615  22.666 116.723  1.00  0.00    -0.323 N 
ATOM     12  H2  UNL     1      10.954  22.255 117.592  1.00  0.00     0.169 HD
BRANCH  11  13
HETATM   13  C10 UNL     1       9.209  22.978 116.610  1.00  0.00     0.035 A 
HETATM   14  C11 UNL     1       8.330  21.897 116.465  1.00  0.00     0.030 A 
HETATM   15  C12 UNL     1       6.990  22.165 116.388  1.00  0.00     0.010 A 
HETATM   16  C13 UNL     1       6.476  23.457 116.449  1.00  0.00    -0.045 A 
HETATM   17  C14 UNL     1       7.372  24.491 116.591  1.00  0.00     0.002 A 
HETATM   18  C29 UNL     1       5.021  23.553 116.351  1.00  0.00     0.045 A 
HETATM   19  C15 UNL     1       8.731  24.260 116.673  1.00  0.00     0.044 A 
HETATM   20  C16 UNL     1       6.833  25.860 116.655  1.00  0.00     0.075 A 
HETATM   21  C17 UNL     1       5.447  25.991 116.564  1.00  0.00     0.038 A 
HETATM   22  N4  UNL     1       7.388  27.051 116.783  1.00  0.00    -0.291 N 
HETATM   23  N3  UNL     1       5.195  27.310 116.644  1.00  0.00    -0.353 N 
HETATM   24  C28 UNL     1       4.476  24.912 116.415  1.00  0.00     0.064 A 
HETATM   25  C18 UNL     1       6.343  27.954 116.773  1.00  0.00     0.190 A 
ATOM     26  H3  UNL     1       4.272  27.741 116.611  1.00  0.00     0.166 HD
BRANCH  22  27
HETATM   27  C19 UNL     1       8.740  27.438 116.907  1.00  0.00     0.113 A 
HETATM   28  C20 UNL     1       9.138  28.302 117.943  1.00  0.00     0.051 A 
HETATM   29  C21 UNL     1      10.437  28.741 118.058  1.00  0.00     0.035 A 
HETATM   30  C22 UNL     1      11.409  28.345 117.150  1.00  0.00     0.059 A 
HETATM   31  N5  UNL     1      12.684  28.762 117.244  1.00  0.00    -0.363 N 
HETATM   32  C27 UNL     1      11.000  27.497 116.142  1.00  0.00     0.062 A 
HETATM   33  C23 UNL     1      13.632  28.376 116.361  1.00  0.00     0.111 A 
ATOM     34  H5  UNL     1      12.944  29.390 118.005  1.00  0.00     0.165 HD
HETATM   35  C24 UNL     1      13.274  27.527 115.333  1.00  0.00     0.062 A 
HETATM   36  C25 UNL     1      14.294  27.127 114.401  1.00  0.00     0.101 C 
HETATM   37  C26 UNL     1      11.970  27.101 115.237  1.00  0.00     0.056 A 
HETATM   38  N6  UNL     1      15.107  26.800 113.636  1.00  0.00    -0.191 NA
HETATM   39  N7  UNL     1       9.726  27.084 116.053  1.00  0.00    -0.340 N 
ATOM     40  H7  UNL     1       9.485  26.458 115.285  1.00  0.00     0.167 HD
ENDBRANCH  22  27
ENDBRANCH  11  13
ENDBRANCH   7   9
BRANCH   6  41
HETATM   41  O1  UNL     1      13.026  21.618 117.903  1.00  0.00    -0.263 OA
BRANCH  41  42
HETATM   42  C7  UNL     1      13.503  22.078 119.164  1.00  0.00     0.378 C 
HETATM   43  N1  UNL     1      13.966  21.113 120.072  1.00  0.00    -0.032 NA
HETATM   44  O2  UNL     1      13.469  23.302 119.350  1.00  0.00    -0.242 OA
ENDBRANCH  41  42
ENDBRANCH   6  41
TORSDOF 5
ENDMDL
MODEL 3
REMARK VINA RESULT: -9.279262227      2.770      7.485
REMARK  5 active torsions:
REMARK  status: ('A' for Active; 'I' for Inactive)
REMARK    1  A    between atoms: C6_6  and  O1_7 
REMARK    2  A    between atoms: O1_7  and  C7_8 
REMARK    3  A    between atoms: C8_11  and  C9_12 
REMARK       I    between atoms: C9_12  and  N2_14 
REMARK    4  A    between atoms: N2_14  and  C10_16 
REMARK    5  A    between atoms: N4_27  and  C19_28 
ROOT
HETATM    1  C1  UNL     1       7.921  29.246 118.196  1.00  0.00     0.018 C 
HETATM    2  C2  UNL     1       8.929  28.578 118.223  1.00  0.00    -0.078 C 
HETATM    3  C3  UNL     1      10.127  27.786 118.278  1.00  0.00     0.018 A 
HETATM    4  C4  UNL     1      11.254  28.305 118.841  1.00  0.00     0.023 A 
HETATM    5  C5  UNL     1      12.365  27.494 118.858  1.00  0.00     0.040 A 
HETATM    6  C6  UNL     1      12.344  26.214 118.335  1.00  0.00     0.096 A 
HETATM    7  C8  UNL     1      11.223  25.696 117.778  1.00  0.00     0.067 A 
HETATM    8  C30 UNL     1      10.089  26.535 117.761  1.00  0.00     0.040 A 
ENDROOT
BRANCH   7   9
HETATM    9  C9  UNL     1      11.069  24.333 117.244  1.00  0.00     0.259 C 
HETATM   10  O3  UNL     1      10.422  24.248 116.148  1.00  0.00    -0.267 OA
HETATM   11  N2  UNL     1      11.553  23.167 117.810  1.00  0.00    -0.323 N 
ATOM     12  H2  UNL     1      12.075  23.229 118.684  1.00  0.00     0.169 HD
BRANCH  11  13
HETATM   13  C10 UNL     1      11.351  21.866 117.216  1.00  0.00     0.035 A 
HETATM   14  C11 UNL     1      10.265  21.117 117.689  1.00  0.00     0.030 A 
HETATM   15  C12 UNL     1      10.034  19.894 117.119  1.00  0.00     0.010 A 
HETATM   16  C13 UNL     1      10.828  19.376 116.099  1.00  0.00    -0.045 A 
HETATM   17  C14 UNL     1      11.883  20.143 115.664  1.00  0.00     0.002 A 
HETATM   18  C29 UNL     1      10.431  18.057 115.612  1.00  0.00     0.045 A 
HETATM   19  C15 UNL     1      12.149  21.382 116.214  1.00  0.00     0.044 A 
HETATM   20  C16 UNL     1      12.727  19.598 114.587  1.00  0.00     0.075 A 
HETATM   21  C17 UNL     1      12.378  18.340 114.096  1.00  0.00     0.038 A 
HETATM   22  N4  UNL     1      13.790  20.049 113.948  1.00  0.00    -0.291 N 
HETATM   23  N3  UNL     1      13.277  18.056 113.136  1.00  0.00    -0.353 N 
HETATM   24  C28 UNL     1      11.264  17.508 114.538  1.00  0.00     0.064 A 
HETATM   25  C18 UNL     1      14.126  19.066 113.038  1.00  0.00     0.190 A 
ATOM     26  H3  UNL     1      13.300  17.204 112.577  1.00  0.00     0.166 HD
BRANCH  22  27
HETATM   27  C19 UNL     1      14.513  21.254 114.082  1.00  0.00     0.113 A 
HETATM   28  C20 UNL     1      15.048  21.625 115.328  1.00  0.00     0.051 A 
HETATM   29  C21 UNL     1      15.711  22.819 115.503  1.00  0.00     0.035 A 
HETATM   30  C22 UNL     1      15.877  23.707 114.449  1.00  0.00     0.059 A 
HETATM   31  N5  UNL     1      16.520  24.878 114.598  1.00  0.00    -0.363 N 
HETATM   32  C27 UNL     1      15.346  23.325 113.234  1.00  0.00     0.062 A 
HETATM   33  C23 UNL     1      16.683  25.743 113.572  1.00  0.00     0.111 A 
ATOM     34  H5  UNL     1      16.897  25.121 115.514  1.00  0.00     0.165 HD
HETATM   35  C24 UNL     1      16.169  25.408 112.335  1.00  0.00     0.062 A 
HETATM   36  C25 UNL     1      16.350  26.339 111.254  1.00  0.00     0.101 C 
HETATM   37  C26 UNL     1      15.511  24.210 112.183  1.00  0.00     0.056 A 
HETATM   38  N6  UNL     1      16.483  27.086 110.372  1.00  0.00    -0.191 NA
HETATM   39  N7  UNL     1      14.704  22.155 113.092  1.00  0.00    -0.340 N 
ATOM     40  H7  UNL     1      14.333  21.929 112.169  1.00  0.00     0.167 HD
ENDBRANCH  22  27
ENDBRANCH  11  13
ENDBRANCH   7   9
BRANCH   6  41
HETATM   41  O1  UNL     1      13.522  25.505 118.411  1.00  0.00    -0.263 OA
BRANCH  41  42
HETATM   42  C7  UNL     1      13.843  24.826 119.622  1.00  0.00     0.378 C 
HETATM   43  N1  UNL     1      13.833  23.422 119.598  1.00  0.00    -0.032 NA
HETATM   44  O2  UNL     1      14.105  25.540 120.598  1.00  0.00    -0.242 OA
ENDBRANCH  41  42
ENDBRANCH   6  41
TORSDOF 5
ENDMDL
MODEL 4
REMARK VINA RESULT: -9.267979989      3.449      5.735
REMARK  5 active torsions:
REMARK  status: ('A' for Active; 'I' for Inactive)
REMARK    1  A    between atoms: C6_6  and  O1_7 
REMARK    2  A    between atoms: O1_7  and  C7_8 
REMARK    3  A    between atoms: C8_11  and  C9_12 
REMARK       I    between atoms: C9_12  and  N2_14 
REMARK    4  A    between atoms: N2_14  and  C10_16 
REMARK    5  A    between atoms: N4_27  and  C19_28 
ROOT
HETATM    1  C1  UNL     1      12.112  19.293 114.399  1.00  0.00     0.018 C 
HETATM    2  C2  UNL     1      12.833  20.249 114.566  1.00  0.00    -0.078 C 
HETATM    3  C3  UNL     1      13.693  21.388 114.742  1.00  0.00     0.018 A 
HETATM    4  C4  UNL     1      14.979  21.338 114.296  1.00  0.00     0.023 A 
HETATM    5  C5  UNL     1      15.747  22.461 114.498  1.00  0.00     0.040 A 
HETATM    6  C6  UNL     1      15.243  23.589 115.121  1.00  0.00     0.096 A 
HETATM    7  C8  UNL     1      13.963  23.640 115.563  1.00  0.00     0.067 A 
HETATM    8  C30 UNL     1      13.183  22.483 115.354  1.00  0.00     0.040 A 
ENDROOT
BRANCH   7   9
HETATM    9  C9  UNL     1      13.305  24.801 116.184  1.00  0.00     0.259 C 
HETATM   10  O3  UNL     1      12.771  24.579 117.321  1.00  0.00    -0.267 OA
HETATM   11  N2  UNL     1      13.220  26.078 115.659  1.00  0.00    -0.323 N 
ATOM     12  H2  UNL     1      13.649  26.263 114.753  1.00  0.00     0.169 HD
BRANCH  11  13
HETATM   13  C10 UNL     1      12.549  27.161 116.340  1.00  0.00     0.035 A 
HETATM   14  C11 UNL     1      13.352  28.216 116.794  1.00  0.00     0.030 A 
HETATM   15  C12 UNL     1      12.736  29.270 117.414  1.00  0.00     0.010 A 
HETATM   16  C13 UNL     1      11.358  29.329 117.606  1.00  0.00    -0.045 A 
HETATM   17  C14 UNL     1      10.606  28.273 117.146  1.00  0.00     0.002 A 
HETATM   18  C29 UNL     1      10.877  30.530 118.286  1.00  0.00     0.045 A 
HETATM   19  C15 UNL     1      11.191  27.193 116.515  1.00  0.00     0.044 A 
HETATM   20  C16 UNL     1       9.149  28.332 117.348  1.00  0.00     0.075 A 
HETATM   21  C17 UNL     1       8.652  29.464 117.994  1.00  0.00     0.038 A 
HETATM   22  N4  UNL     1       8.155  27.518 117.043  1.00  0.00    -0.291 N 
HETATM   23  N3  UNL     1       7.319  29.294 118.064  1.00  0.00    -0.353 N 
HETATM   24  C28 UNL     1       9.426  30.597 118.490  1.00  0.00     0.064 A 
HETATM   25  C18 UNL     1       7.009  28.138 117.502  1.00  0.00     0.190 A 
ATOM     26  H3  UNL     1       6.658  29.949 118.481  1.00  0.00     0.166 HD
BRANCH  22  27
HETATM   27  C19 UNL     1       8.146  26.264 116.395  1.00  0.00     0.113 A 
HETATM   28  C20 UNL     1       7.513  26.114 115.149  1.00  0.00     0.051 A 
HETATM   29  C21 UNL     1       7.439  24.893 114.518  1.00  0.00     0.035 A 
HETATM   30  C22 UNL     1       7.991  23.756 115.093  1.00  0.00     0.059 A 
HETATM   31  N5  UNL     1       7.930  22.554 114.494  1.00  0.00    -0.363 N 
HETATM   32  C27 UNL     1       8.608  23.923 116.315  1.00  0.00     0.062 A 
HETATM   33  C23 UNL     1       8.468  21.447 115.052  1.00  0.00     0.111 A 
ATOM     34  H5  UNL     1       7.464  22.475 113.591  1.00  0.00     0.165 HD
HETATM   35  C24 UNL     1       9.098  21.560 116.276  1.00  0.00     0.062 A 
HETATM   36  C25 UNL     1       9.664  20.372 116.857  1.00  0.00     0.101 C 
HETATM   37  C26 UNL     1       9.159  22.790 116.888  1.00  0.00     0.056 A 
HETATM   38  N6  UNL     1      10.120  19.418 117.342  1.00  0.00    -0.191 NA
HETATM   39  N7  UNL     1       8.665  25.126 116.908  1.00  0.00    -0.340 N 
ATOM     40  H7  UNL     1       9.135  25.185 117.811  1.00  0.00     0.167 HD
ENDBRANCH  22  27
ENDBRANCH  11  13
ENDBRANCH   7   9
BRANCH   6  41
HETATM   41  O1  UNL     1      16.114  24.646 115.266  1.00  0.00    -0.263 OA
BRANCH  41  42
HETATM   42  C7  UNL     1      16.442  25.432 114.125  1.00  0.00     0.378 C 
HETATM   43  N1  UNL     1      15.425  26.231 113.576  1.00  0.00    -0.032 NA
HETATM   44  O2  UNL     1      17.606  25.344 113.714  1.00  0.00    -0.242 OA
ENDBRANCH  41  42
ENDBRANCH   6  41
TORSDOF 5
ENDMDL
MODEL 5
REMARK VINA RESULT: -9.264067280      2.674      7.993
REMARK  5 active torsions:
REMARK  status: ('A' for Active; 'I' for Inactive)
REMARK    1  A    between atoms: C6_6  and  O1_7 
REMARK    2  A    between atoms: O1_7  and  C7_8 
REMARK    3  A    between atoms: C8_11  and  C9_12 
REMARK       I    between atoms: C9_12  and  N2_14 
REMARK    4  A    between atoms: N2_14  and  C10_16 
REMARK    5  A    between atoms: N4_27  and  C19_28 
ROOT
HETATM    1  C1  UNL     1       9.381  31.062 118.587  1.00  0.00     0.018 C 
HETATM    2  C2  UNL     1      10.232  30.276 118.241  1.00  0.00    -0.078 C 
HETATM    3  C3  UNL     1      11.228  29.323 117.832  1.00  0.00     0.018 A 
HETATM    4  C4  UNL     1      11.613  28.339 118.692  1.00  0.00     0.023 A 
HETATM    5  C5  UNL     1      12.572  27.463 118.237  1.00  0.00     0.040 A 
HETATM    6  C6  UNL     1      13.120  27.571 116.972  1.00  0.00     0.096 A 
HETATM    7  C8  UNL     1      12.736  28.549 116.116  1.00  0.00     0.067 A 
HETATM    8  C30 UNL     1      11.754  29.444 116.590  1.00  0.00     0.040 A 
ENDROOT
BRANCH   7   9
HETATM    9  C9  UNL     1      13.206  28.725 114.733  1.00  0.00     0.259 C 
HETATM   10  O3  UNL     1      14.329  29.317 114.610  1.00  0.00    -0.267 OA
HETATM   11  N2  UNL     1      12.554  28.314 113.583  1.00  0.00    -0.323 N 
ATOM     12  H2  UNL     1      11.658  27.836 113.674  1.00  0.00     0.169 HD
BRANCH  11  13
HETATM   13  C10 UNL     1      13.090  28.532 112.260  1.00  0.00     0.035 A 
HETATM   14  C11 UNL     1      12.601  29.640 111.554  1.00  0.00     0.030 A 
HETATM   15  C12 UNL     1      13.117  29.887 110.311  1.00  0.00     0.010 A 
HETATM   16  C13 UNL     1      14.097  29.087 109.730  1.00  0.00    -0.045 A 
HETATM   17  C14 UNL     1      14.550  28.010 110.455  1.00  0.00     0.002 A 
HETATM   18  C29 UNL     1      14.529  29.503 108.397  1.00  0.00     0.045 A 
HETATM   19  C15 UNL     1      14.055  27.729 111.713  1.00  0.00     0.044 A 
HETATM   20  C16 UNL     1      15.586  27.161 109.843  1.00  0.00     0.075 A 
HETATM   21  C17 UNL     1      16.023  27.526 108.570  1.00  0.00     0.038 A 
HETATM   22  N4  UNL     1      16.228  26.079 110.243  1.00  0.00    -0.291 N 
HETATM   23  N3  UNL     1      16.953  26.618 108.224  1.00  0.00    -0.353 N 
HETATM   24  C28 UNL     1      15.562  28.664 107.781  1.00  0.00     0.064 A 
HETATM   25  C18 UNL     1      17.085  25.748 109.212  1.00  0.00     0.190 A 
ATOM     26  H3  UNL     1      17.472  26.603 107.346  1.00  0.00     0.166 HD
BRANCH  22  27
HETATM   27  C19 UNL     1      16.138  25.333 111.439  1.00  0.00     0.113 A 
HETATM   28  C20 UNL     1      16.809  25.766 112.596  1.00  0.00     0.051 A 
HETATM   29  C21 UNL     1      16.786  25.033 113.761  1.00  0.00     0.035 A 
HETATM   30  C22 UNL     1      16.095  23.832 113.837  1.00  0.00     0.059 A 
HETATM   31  N5  UNL     1      16.060  23.100 114.965  1.00  0.00    -0.363 N 
HETATM   32  C27 UNL     1      15.443  23.424 112.692  1.00  0.00     0.062 A 
HETATM   33  C23 UNL     1      15.387  21.930 115.040  1.00  0.00     0.111 A 
ATOM     34  H5  UNL     1      16.557  23.438 115.789  1.00  0.00     0.165 HD
HETATM   35  C24 UNL     1      14.717  21.477 113.921  1.00  0.00     0.062 A 
HETATM   36  C25 UNL     1      14.006  20.231 114.017  1.00  0.00     0.101 C 
HETATM   37  C26 UNL     1      14.753  22.226 112.768  1.00  0.00     0.056 A 
HETATM   38  N6  UNL     1      13.433  19.220 114.079  1.00  0.00    -0.191 NA
HETATM   39  N7  UNL     1      15.482  24.158 111.570  1.00  0.00    -0.340 N 
ATOM     40  H7  UNL     1      14.981  23.804 110.756  1.00  0.00     0.167 HD
ENDBRANCH  22  27
ENDBRANCH  11  13
ENDBRANCH   7   9
BRANCH   6  41
HETATM   41  O1  UNL     1      14.074  26.635 116.638  1.00  0.00    -0.263 OA
BRANCH  41  42
HETATM   42  C7  UNL     1      13.653  25.344 116.208  1.00  0.00     0.378 C 
HETATM   43  N1  UNL     1      13.018  25.254 114.959  1.00  0.00    -0.032 NA
HETATM   44  O2  UNL     1      13.888  24.405 116.980  1.00  0.00    -0.242 OA
ENDBRANCH  41  42
ENDBRANCH   6  41
TORSDOF 5
ENDMDL
