MODEL 1
REMARK VINA RESULT: -6.512409840      0.000      0.000
REMARK  9 active torsions:
REMARK  status: ('A' for Active; 'I' for Inactive)
REMARK       I    between atoms: C1_4  and  N3_6 
REMARK    1  A    between atoms: C5_10  and  N4_11 
REMARK       I    between atoms: N4_11  and  C6_13 
REMARK    2  A    between atoms: C6_13  and  C7_15 
REMARK    3  A    between atoms: C7_15  and  C8_17 
REMARK    4  A    between atoms: C8_17  and  C9_18 
REMARK    5  A    between atoms: C9_18  and  C10_19 
REMARK    6  A    between atoms: C10_19  and  N5_20 
REMARK    7  A    between atoms: C10_19  and  C11_24 
REMARK    8  A    between atoms: C11_24  and  N6_25 
REMARK    9  A    between atoms: N6_25  and  N7_26 
ROOT
HETATM    1  N4  UNL     1     -32.783  56.247  75.925  1.00  0.00    -0.332 N 
ATOM      2  H4  UNL     1     -33.560  55.586  75.931  1.00  0.00     0.165 HD
HETATM    3  C6  UNL     1     -31.519  55.796  75.484  1.00  0.00     0.288 C 
HETATM    4  O1  UNL     1     -30.588  56.630  75.490  1.00  0.00    -0.264 OA
ENDROOT
BRANCH   3   5
HETATM    5  C7  UNL     1     -31.253  54.446  75.036  1.00  0.00     0.216 C 
HETATM    6  O2  UNL     1     -31.066  53.598  75.988  1.00  0.00    -0.287 OA
BRANCH   5   7
HETATM    7  C8  UNL     1     -31.182  53.981  73.648  1.00  0.00     0.091 C 
BRANCH   7   8
HETATM    8  C9  UNL     1     -31.776  52.654  73.362  1.00  0.00     0.042 C 
BRANCH   8   9
HETATM    9  C10 UNL     1     -33.280  52.685  73.528  1.00  0.00     0.200 C 
BRANCH   9  10
HETATM   10  N5  UNL     1     -33.850  53.575  72.515  1.00  0.00    -0.074 N 
ATOM     11  H53 UNL     1     -33.565  54.546  72.644  1.00  0.00     0.274 HD
ATOM     12  H52 UNL     1     -33.439  53.428  71.592  1.00  0.00     0.274 HD
ATOM     13  H51 UNL     1     -34.864  53.464  72.511  1.00  0.00     0.274 HD
ENDBRANCH   9  10
BRANCH   9  14
HETATM   14  C11 UNL     1     -33.836  51.318  73.269  1.00  0.00     0.167 C 
BRANCH  14  15
HETATM   15  N6  UNL     1     -34.371  50.730  74.494  1.00  0.00    -0.146 NA
BRANCH  15  16
HETATM   16  N7  UNL     1     -35.528  51.463  74.803  1.00  0.00    -0.348 N 
ATOM     17  H72 UNL     1     -35.584  52.263  75.433  1.00  0.00     0.172 HD
ATOM     18  H71 UNL     1     -36.284  51.032  74.273  1.00  0.00     0.172 HD
ENDBRANCH  15  16
ENDBRANCH  14  15
ENDBRANCH   9  14
ENDBRANCH   8   9
ENDBRANCH   7   8
ENDBRANCH   5   7
ENDBRANCH   3   5
BRANCH   1  19
HETATM   19  C5  UNL     1     -33.030  57.604  76.371  1.00  0.00     0.200 C 
HETATM   20  C4  UNL     1     -33.414  58.423  75.197  1.00  0.00     0.050 C 
HETATM   21  C3  UNL     1     -34.121  59.725  75.547  1.00  0.00     0.026 C 
HETATM   22  C2  UNL     1     -35.381  59.264  76.299  1.00  0.00     0.152 C 
HETATM   23  N3  UNL     1     -34.872  58.606  77.486  1.00  0.00    -0.268 N 
HETATM   24  C1  UNL     1     -35.363  59.044  78.740  1.00  0.00     0.202 C 
HETATM   25  N8  UNL     1     -33.952  57.600  77.457  1.00  0.00    -0.309 N 
HETATM   26  N1  UNL     1     -36.110  58.335  79.509  1.00  0.00    -0.372 N 
HETATM   27  N2  UNL     1     -35.003  60.347  79.166  1.00  0.00    -0.062 NA
ATOM     28  H12 UNL     1     -36.465  58.650  80.413  1.00  0.00     0.158 HD
ATOM     29  H11 UNL     1     -36.370  57.397  79.202  1.00  0.00     0.158 HD
ATOM     30  H8  UNL     1     -33.926  56.878  78.178  1.00  0.00     0.182 HD
ENDBRANCH   1  19
TORSDOF 9
ENDMDL
MODEL 2
REMARK VINA RESULT: -6.460160717      2.888      7.131
REMARK  9 active torsions:
REMARK  status: ('A' for Active; 'I' for Inactive)
REMARK       I    between atoms: C1_4  and  N3_6 
REMARK    1  A    between atoms: C5_10  and  N4_11 
REMARK       I    between atoms: N4_11  and  C6_13 
REMARK    2  A    between atoms: C6_13  and  C7_15 
REMARK    3  A    between atoms: C7_15  and  C8_17 
REMARK    4  A    between atoms: C8_17  and  C9_18 
REMARK    5  A    between atoms: C9_18  and  C10_19 
REMARK    6  A    between atoms: C10_19  and  N5_20 
REMARK    7  A    between atoms: C10_19  and  C11_24 
REMARK    8  A    between atoms: C11_24  and  N6_25 
REMARK    9  A    between atoms: N6_25  and  N7_26 
ROOT
HETATM    1  N4  UNL     1     -34.476  57.970  74.778  1.00  0.00    -0.332 N 
ATOM      2  H4  UNL     1     -34.801  57.573  75.660  1.00  0.00     0.165 HD
HETATM    3  C6  UNL     1     -35.302  58.909  74.119  1.00  0.00     0.288 C 
HETATM    4  O1  UNL     1     -34.876  59.376  73.042  1.00  0.00    -0.264 OA
ENDROOT
BRANCH   3   5
HETATM    5  C7  UNL     1     -36.587  59.346  74.619  1.00  0.00     0.216 C 
HETATM    6  O2  UNL     1     -37.399  59.758  73.707  1.00  0.00    -0.287 OA
BRANCH   5   7
HETATM    7  C8  UNL     1     -37.026  59.360  76.017  1.00  0.00     0.091 C 
BRANCH   7   8
HETATM    8  C9  UNL     1     -36.259  60.223  76.945  1.00  0.00     0.042 C 
BRANCH   8   9
HETATM    9  C10 UNL     1     -35.438  59.389  77.907  1.00  0.00     0.200 C 
BRANCH   9  10
HETATM   10  N5  UNL     1     -34.021  59.696  77.707  1.00  0.00    -0.074 N 
ATOM     11  H53 UNL     1     -33.691  60.436  78.327  1.00  0.00     0.274 HD
ATOM     12  H52 UNL     1     -33.410  58.949  78.040  1.00  0.00     0.274 HD
ATOM     13  H51 UNL     1     -33.866  59.915  76.723  1.00  0.00     0.274 HD
ENDBRANCH   9  10
BRANCH   9  14
HETATM   14  C11 UNL     1     -35.773  59.782  79.313  1.00  0.00     0.167 C 
BRANCH  14  15
HETATM   15  N6  UNL     1     -36.323  58.651  80.055  1.00  0.00    -0.146 NA
BRANCH  15  16
HETATM   16  N7  UNL     1     -35.926  57.499  79.358  1.00  0.00    -0.348 N 
ATOM     17  H72 UNL     1     -34.995  57.083  79.363  1.00  0.00     0.172 HD
ATOM     18  H71 UNL     1     -36.752  57.175  78.856  1.00  0.00     0.172 HD
ENDBRANCH  15  16
ENDBRANCH  14  15
ENDBRANCH   9  14
ENDBRANCH   8   9
ENDBRANCH   7   8
ENDBRANCH   5   7
ENDBRANCH   3   5
BRANCH   1  19
HETATM   19  C5  UNL     1     -33.190  57.545  74.262  1.00  0.00     0.200 C 
HETATM   20  C4  UNL     1     -32.127  58.308  74.957  1.00  0.00     0.050 C 
HETATM   21  C3  UNL     1     -30.743  57.682  74.859  1.00  0.00     0.026 C 
HETATM   22  C2  UNL     1     -30.917  56.305  75.521  1.00  0.00     0.152 C 
HETATM   23  N3  UNL     1     -31.867  55.615  74.671  1.00  0.00    -0.268 N 
HETATM   24  C1  UNL     1     -31.498  54.342  74.174  1.00  0.00     0.202 C 
HETATM   25  N8  UNL     1     -33.085  56.125  74.329  1.00  0.00    -0.309 N 
HETATM   26  N1  UNL     1     -32.061  53.240  74.524  1.00  0.00    -0.372 N 
HETATM   27  N2  UNL     1     -30.441  54.288  73.232  1.00  0.00    -0.062 NA
ATOM     28  H12 UNL     1     -31.795  52.322  74.166  1.00  0.00     0.158 HD
ATOM     29  H11 UNL     1     -32.822  53.279  75.202  1.00  0.00     0.158 HD
ATOM     30  H8  UNL     1     -33.882  55.520  74.131  1.00  0.00     0.182 HD
ENDBRANCH   1  19
TORSDOF 9
ENDMDL
MODEL 3
REMARK VINA RESULT: -6.438589327      1.048      1.269
REMARK  9 active torsions:
REMARK  status: ('A' for Active; 'I' for Inactive)
REMARK       I    between atoms: C1_4  and  N3_6 
REMARK    1  A    between atoms: C5_10  and  N4_11 
REMARK       I    between atoms: N4_11  and  C6_13 
REMARK    2  A    between atoms: C6_13  and  C7_15 
REMARK    3  A    between atoms: C7_15  and  C8_17 
REMARK    4  A    between atoms: C8_17  and  C9_18 
REMARK    5  A    between atoms: C9_18  and  C10_19 
REMARK    6  A    between atoms: C10_19  and  N5_20 
REMARK    7  A    between atoms: C10_19  and  C11_24 
REMARK    8  A    between atoms: C11_24  and  N6_25 
REMARK    9  A    between atoms: N6_25  and  N7_26 
ROOT
HETATM    1  N4  UNL     1     -32.771  56.264  75.866  1.00  0.00    -0.332 N 
ATOM      2  H4  UNL     1     -33.547  55.601  75.869  1.00  0.00     0.165 HD
HETATM    3  C6  UNL     1     -31.511  55.823  75.403  1.00  0.00     0.288 C 
HETATM    4  O1  UNL     1     -30.582  56.659  75.412  1.00  0.00    -0.264 OA
ENDROOT
BRANCH   3   5
HETATM    5  C7  UNL     1     -31.248  54.481  74.929  1.00  0.00     0.216 C 
HETATM    6  O2  UNL     1     -31.043  53.619  75.865  1.00  0.00    -0.287 OA
BRANCH   5   7
HETATM    7  C8  UNL     1     -31.196  54.038  73.534  1.00  0.00     0.091 C 
BRANCH   7   8
HETATM    8  C9  UNL     1     -32.491  53.711  72.892  1.00  0.00     0.042 C 
BRANCH   8   9
HETATM    9  C10 UNL     1     -33.129  52.502  73.543  1.00  0.00     0.200 C 
BRANCH   9  10
HETATM   10  N5  UNL     1     -34.550  52.472  73.194  1.00  0.00    -0.074 N 
ATOM     11  H53 UNL     1     -34.763  51.767  72.487  1.00  0.00     0.274 HD
ATOM     12  H52 UNL     1     -35.129  52.098  73.946  1.00  0.00     0.274 HD
ATOM     13  H51 UNL     1     -34.840  53.408  72.910  1.00  0.00     0.274 HD
ENDBRANCH   9  10
BRANCH   9  14
HETATM   14  C11 UNL     1     -32.517  51.256  72.981  1.00  0.00     0.167 C 
BRANCH  14  15
HETATM   15  N6  UNL     1     -31.739  50.551  73.996  1.00  0.00    -0.146 NA
BRANCH  15  16
HETATM   16  N7  UNL     1     -31.769  49.195  73.636  1.00  0.00    -0.348 N 
ATOM     17  H72 UNL     1     -31.180  48.744  72.935  1.00  0.00     0.172 HD
ATOM     18  H71 UNL     1     -32.491  48.766  74.213  1.00  0.00     0.172 HD
ENDBRANCH  15  16
ENDBRANCH  14  15
ENDBRANCH   9  14
ENDBRANCH   8   9
ENDBRANCH   7   8
ENDBRANCH   5   7
ENDBRANCH   3   5
BRANCH   1  19
HETATM   19  C5  UNL     1     -33.015  57.613  76.336  1.00  0.00     0.200 C 
HETATM   20  C4  UNL     1     -33.389  58.457  75.177  1.00  0.00     0.050 C 
HETATM   21  C3  UNL     1     -34.094  59.754  75.549  1.00  0.00     0.026 C 
HETATM   22  C2  UNL     1     -35.360  59.282  76.284  1.00  0.00     0.152 C 
HETATM   23  N3  UNL     1     -34.860  58.600  77.461  1.00  0.00    -0.268 N 
HETATM   24  C1  UNL     1     -35.357  59.015  78.720  1.00  0.00     0.202 C 
HETATM   25  N8  UNL     1     -33.943  57.591  77.417  1.00  0.00    -0.309 N 
HETATM   26  N1  UNL     1     -36.111  58.294  79.471  1.00  0.00    -0.372 N 
HETATM   27  N2  UNL     1     -34.994  60.308  79.174  1.00  0.00    -0.062 NA
ATOM     28  H12 UNL     1     -36.469  58.592  80.378  1.00  0.00     0.158 HD
ATOM     29  H11 UNL     1     -36.372  57.363  79.144  1.00  0.00     0.158 HD
ATOM     30  H8  UNL     1     -33.924  56.855  78.123  1.00  0.00     0.182 HD
ENDBRANCH   1  19
TORSDOF 9
ENDMDL
MODEL 4
REMARK VINA RESULT: -6.435954391      1.546      2.346
REMARK  9 active torsions:
REMARK  status: ('A' for Active; 'I' for Inactive)
REMARK       I    between atoms: C1_4  and  N3_6 
REMARK    1  A    between atoms: C5_10  and  N4_11 
REMARK       I    between atoms: N4_11  and  C6_13 
REMARK    2  A    between atoms: C6_13  and  C7_15 
REMARK    3  A    between atoms: C7_15  and  C8_17 
REMARK    4  A    between atoms: C8_17  and  C9_18 
REMARK    5  A    between atoms: C9_18  and  C10_19 
REMARK    6  A    between atoms: C10_19  and  N5_20 
REMARK    7  A    between atoms: C10_19  and  C11_24 
REMARK    8  A    between atoms: C11_24  and  N6_25 
REMARK    9  A    between atoms: N6_25  and  N7_26 
ROOT
HETATM    1  N4  UNL     1     -32.736  56.323  75.816  1.00  0.00    -0.332 N 
ATOM      2  H4  UNL     1     -33.488  55.634  75.851  1.00  0.00     0.165 HD
HETATM    3  C6  UNL     1     -31.495  55.936  75.262  1.00  0.00     0.288 C 
HETATM    4  O1  UNL     1     -30.595  56.803  75.234  1.00  0.00    -0.264 OA
ENDROOT
BRANCH   3   5
HETATM    5  C7  UNL     1     -31.220  54.616  74.738  1.00  0.00     0.216 C 
HETATM    6  O2  UNL     1     -29.968  54.367  74.558  1.00  0.00    -0.287 OA
BRANCH   5   7
HETATM    7  C8  UNL     1     -32.203  53.581  74.408  1.00  0.00     0.091 C 
BRANCH   7   8
HETATM    8  C9  UNL     1     -31.885  52.708  73.253  1.00  0.00     0.042 C 
BRANCH   8   9
HETATM    9  C10 UNL     1     -32.661  53.132  72.023  1.00  0.00     0.200 C 
BRANCH   9  10
HETATM   10  N5  UNL     1     -33.801  53.949  72.442  1.00  0.00    -0.074 N 
ATOM     11  H53 UNL     1     -34.048  53.801  73.421  1.00  0.00     0.274 HD
ATOM     12  H52 UNL     1     -33.568  54.941  72.503  1.00  0.00     0.274 HD
ATOM     13  H51 UNL     1     -34.583  53.772  71.812  1.00  0.00     0.274 HD
ENDBRANCH   9  10
BRANCH   9  14
HETATM   14  C11 UNL     1     -31.794  54.001  71.165  1.00  0.00     0.167 C 
BRANCH  14  15
HETATM   15  N6  UNL     1     -30.389  53.620  71.285  1.00  0.00    -0.146 NA
BRANCH  15  16
HETATM   16  N7  UNL     1     -30.006  53.150  70.020  1.00  0.00    -0.348 N 
ATOM     17  H72 UNL     1     -29.988  53.691  69.155  1.00  0.00     0.172 HD
ATOM     18  H71 UNL     1     -29.753  52.170  70.148  1.00  0.00     0.172 HD
ENDBRANCH  15  16
ENDBRANCH  14  15
ENDBRANCH   9  14
ENDBRANCH   8   9
ENDBRANCH   7   8
ENDBRANCH   5   7
ENDBRANCH   3   5
BRANCH   1  19
HETATM   19  C5  UNL     1     -32.994  57.651  76.335  1.00  0.00     0.200 C 
HETATM   20  C4  UNL     1     -33.360  58.537  75.205  1.00  0.00     0.050 C 
HETATM   21  C3  UNL     1     -34.076  59.815  75.619  1.00  0.00     0.026 C 
HETATM   22  C2  UNL     1     -35.348  59.309  76.321  1.00  0.00     0.152 C 
HETATM   23  N3  UNL     1     -34.858  58.584  77.476  1.00  0.00    -0.268 N 
HETATM   24  C1  UNL     1     -35.371  58.946  78.744  1.00  0.00     0.202 C 
HETATM   25  N8  UNL     1     -33.935  57.581  77.403  1.00  0.00    -0.309 N 
HETATM   26  N1  UNL     1     -36.130  58.192  79.458  1.00  0.00    -0.372 N 
HETATM   27  N2  UNL     1     -35.021  60.222  79.253  1.00  0.00    -0.062 NA
ATOM     28  H12 UNL     1     -36.500  58.453  80.372  1.00  0.00     0.158 HD
ATOM     29  H11 UNL     1     -36.382  57.274  79.092  1.00  0.00     0.158 HD
ATOM     30  H8  UNL     1     -33.919  56.818  78.081  1.00  0.00     0.182 HD
ENDBRANCH   1  19
TORSDOF 9
ENDMDL
MODEL 5
REMARK VINA RESULT: -6.423978212      2.273      3.337
REMARK  9 active torsions:
REMARK  status: ('A' for Active; 'I' for Inactive)
REMARK       I    between atoms: C1_4  and  N3_6 
REMARK    1  A    between atoms: C5_10  and  N4_11 
REMARK       I    between atoms: N4_11  and  C6_13 
REMARK    2  A    between atoms: C6_13  and  C7_15 
REMARK    3  A    between atoms: C7_15  and  C8_17 
REMARK    4  A    between atoms: C8_17  and  C9_18 
REMARK    5  A    between atoms: C9_18  and  C10_19 
REMARK    6  A    between atoms: C10_19  and  N5_20 
REMARK    7  A    between atoms: C10_19  and  C11_24 
REMARK    8  A    between atoms: C11_24  and  N6_25 
REMARK    9  A    between atoms: N6_25  and  N7_26 
ROOT
HETATM    1  N4  UNL     1     -32.853  56.472  75.846  1.00  0.00    -0.332 N 
ATOM      2  H4  UNL     1     -33.652  55.846  75.745  1.00  0.00     0.165 HD
HETATM    3  C6  UNL     1     -31.591  56.031  75.390  1.00  0.00     0.288 C 
HETATM    4  O1  UNL     1     -30.633  56.821  75.528  1.00  0.00    -0.264 OA
ENDROOT
BRANCH   3   5
HETATM    5  C7  UNL     1     -31.357  54.738  74.784  1.00  0.00     0.216 C 
HETATM    6  O2  UNL     1     -31.075  53.801  75.623  1.00  0.00    -0.287 OA
BRANCH   5   7
HETATM    7  C8  UNL     1     -31.410  54.416  73.355  1.00  0.00     0.091 C 
BRANCH   7   8
HETATM    8  C9  UNL     1     -32.527  55.008  72.582  1.00  0.00     0.042 C 
BRANCH   8   9
HETATM    9  C10 UNL     1     -32.017  56.024  71.583  1.00  0.00     0.200 C 
BRANCH   9  10
HETATM   10  N5  UNL     1     -32.885  56.006  70.405  1.00  0.00    -0.074 N 
ATOM     11  H53 UNL     1     -32.358  55.950  69.533  1.00  0.00     0.274 HD
ATOM     12  H52 UNL     1     -33.402  55.131  70.315  1.00  0.00     0.274 HD
ATOM     13  H51 UNL     1     -33.500  56.820  70.436  1.00  0.00     0.274 HD
ENDBRANCH   9  10
BRANCH   9  14
HETATM   14  C11 UNL     1     -32.117  57.396  72.176  1.00  0.00     0.167 C 
BRANCH  14  15
HETATM   15  N6  UNL     1     -30.933  58.191  71.859  1.00  0.00    -0.146 NA
BRANCH  15  16
HETATM   16  N7  UNL     1     -30.587  58.861  73.043  1.00  0.00    -0.348 N 
ATOM     17  H72 UNL     1     -29.780  58.662  73.634  1.00  0.00     0.172 HD
ATOM     18  H71 UNL     1     -31.302  59.574  73.183  1.00  0.00     0.172 HD
ENDBRANCH  15  16
ENDBRANCH  14  15
ENDBRANCH   9  14
ENDBRANCH   8   9
ENDBRANCH   7   8
ENDBRANCH   5   7
ENDBRANCH   3   5
BRANCH   1  19
HETATM   19  C5  UNL     1     -33.068  57.772  76.450  1.00  0.00     0.200 C 
HETATM   20  C4  UNL     1     -33.380  58.745  75.377  1.00  0.00     0.050 C 
HETATM   21  C3  UNL     1     -34.053  60.020  75.866  1.00  0.00     0.026 C 
HETATM   22  C2  UNL     1     -35.356  59.519  76.512  1.00  0.00     0.152 C 
HETATM   23  N3  UNL     1     -34.914  58.699  77.623  1.00  0.00    -0.268 N 
HETATM   24  C1  UNL     1     -35.436  58.996  78.905  1.00  0.00     0.202 C 
HETATM   25  N8  UNL     1     -34.030  57.668  77.497  1.00  0.00    -0.309 N 
HETATM   26  N1  UNL     1     -36.235  58.227  79.554  1.00  0.00    -0.372 N 
HETATM   27  N2  UNL     1     -35.045  60.220  79.504  1.00  0.00    -0.062 NA
ATOM     28  H12 UNL     1     -36.611  58.441  80.478  1.00  0.00     0.158 HD
ATOM     29  H11 UNL     1     -36.516  57.346  79.124  1.00  0.00     0.158 HD
ATOM     30  H8  UNL     1     -34.055  56.862  78.121  1.00  0.00     0.182 HD
ENDBRANCH   1  19
TORSDOF 9
ENDMDL
