MODEL 1
REMARK VINA RESULT: -6.606285846      0.000      0.000
REMARK  9 active torsions:
REMARK  status: ('A' for Active; 'I' for Inactive)
REMARK    1  A    between atoms: C1_4  and  C2_6 
REMARK    2  A    between atoms: C2_6  and  C3_7 
REMARK    3  A    between atoms: C3_7  and  N3_8 
REMARK    4  A    between atoms: N3_8  and  C4_10 
REMARK    5  A    between atoms: C5_13  and  N5_14 
REMARK    6  A    between atoms: N6_17  and  C6_18 
REMARK    7  A    between atoms: C6_18  and  C7_19 
REMARK    8  A    between atoms: C7_19  and  S1_20 
REMARK    9  A    between atoms: S1_20  and  N7_21 
ROOT
HETATM    1  C4  UNL     1     -34.023  58.576  76.122  1.00  0.00     0.696 A 
HETATM    2  N4  UNL     1     -33.223  58.084  77.084  1.00  0.00    -0.022 N 
ATOM      3  H4  UNL     1     -33.329  58.416  78.043  1.00  0.00     0.203 HD
HETATM    4  C5  UNL     1     -32.281  57.157  76.803  1.00  0.00     0.696 A 
HETATM    5  N6  UNL     1     -32.100  56.685  75.553  1.00  0.00    -0.131 N 
HETATM    6  C8  UNL     1     -32.910  57.190  74.604  1.00  0.00     0.355 A 
HETATM    7  O3  UNL     1     -32.791  56.784  73.396  1.00  0.00    -0.245 OA
HETATM    8  N8  UNL     1     -33.845  58.109  74.878  1.00  0.00    -0.140 N 
ATOM      9  H8  UNL     1     -34.435  58.461  74.124  1.00  0.00     0.189 HD
ENDROOT
BRANCH   1  10
HETATM   10  N3  UNL     1     -34.930  59.472  76.400  1.00  0.00    -0.225 N 
ATOM     11  H3  UNL     1     -35.800  59.524  75.870  1.00  0.00     0.177 HD
BRANCH  10  12
HETATM   12  C3  UNL     1     -34.665  60.378  77.474  1.00  0.00     0.145 C 
BRANCH  12  13
HETATM   13  C2  UNL     1     -35.768  60.443  78.491  1.00  0.00     0.092 C 
BRANCH  13  14
HETATM   14  C1  UNL     1     -35.850  59.239  79.333  1.00  0.00     0.088 C 
HETATM   15  N1  UNL     1     -35.768  59.369  80.606  1.00  0.00    -0.391 N 
ATOM     16  H12 UNL     1     -35.826  58.534  81.190  1.00  0.00     0.157 HD
ATOM     17  H11 UNL     1     -35.647  60.306  80.990  1.00  0.00     0.157 HD
HETATM   18  N2  UNL     1     -36.018  57.939  78.800  1.00  0.00    -0.088 NA
ENDBRANCH  13  14
ENDBRANCH  12  13
ENDBRANCH  10  12
ENDBRANCH   1  10
BRANCH   4  19
HETATM   19  N5  UNL     1     -31.547  56.716  77.734  1.00  0.00    -0.234 N 
ATOM     20  H52 UNL     1     -31.984  56.414  78.605  1.00  0.00     0.174 HD
ATOM     21  H51 UNL     1     -30.537  56.673  77.598  1.00  0.00     0.174 HD
ENDBRANCH   4  19
BRANCH   5  22
HETATM   22  C6  UNL     1     -31.132  55.711  75.177  1.00  0.00     0.169 C 
BRANCH  22  23
HETATM   23  C7  UNL     1     -31.552  54.289  75.419  1.00  0.00     0.183 C 
BRANCH  23  24
HETATM   24  S1  UNL     1     -31.657  53.486  73.832  1.00  0.00     0.226 S 
HETATM   25  O1  UNL     1     -30.616  53.983  72.894  1.00  0.00    -0.206 OA
HETATM   26  O2  UNL     1     -31.461  52.010  74.073  1.00  0.00    -0.206 OA
BRANCH  24  27
HETATM   27  N7  UNL     1     -33.251  53.677  73.177  1.00  0.00    -0.328 N 
ATOM     28  H72 UNL     1     -34.109  53.574  73.718  1.00  0.00     0.168 HD
ATOM     29  H71 UNL     1     -33.194  53.905  72.184  1.00  0.00     0.168 HD
ENDBRANCH  24  27
ENDBRANCH  23  24
ENDBRANCH  22  23
ENDBRANCH   5  22
TORSDOF 9
ENDMDL
MODEL 2
REMARK VINA RESULT: -6.342937102      1.300      1.335
REMARK  9 active torsions:
REMARK  status: ('A' for Active; 'I' for Inactive)
REMARK    1  A    between atoms: C1_4  and  C2_6 
REMARK    2  A    between atoms: C2_6  and  C3_7 
REMARK    3  A    between atoms: C3_7  and  N3_8 
REMARK    4  A    between atoms: N3_8  and  C4_10 
REMARK    5  A    between atoms: C5_13  and  N5_14 
REMARK    6  A    between atoms: N6_17  and  C6_18 
REMARK    7  A    between atoms: C6_18  and  C7_19 
REMARK    8  A    between atoms: C7_19  and  S1_20 
REMARK    9  A    between atoms: S1_20  and  N7_21 
ROOT
HETATM    1  C4  UNL     1     -32.997  58.279  76.739  1.00  0.00     0.696 A 
HETATM    2  N4  UNL     1     -33.020  56.998  77.150  1.00  0.00    -0.022 N 
ATOM      3  H4  UNL     1     -33.542  56.751  77.990  1.00  0.00     0.203 HD
HETATM    4  C5  UNL     1     -32.364  56.034  76.468  1.00  0.00     0.696 A 
HETATM    5  N6  UNL     1     -31.660  56.308  75.351  1.00  0.00    -0.131 N 
HETATM    6  C8  UNL     1     -31.648  57.594  74.957  1.00  0.00     0.355 A 
HETATM    7  O3  UNL     1     -30.998  57.921  73.904  1.00  0.00    -0.245 OA
HETATM    8  N8  UNL     1     -32.297  58.553  75.629  1.00  0.00    -0.140 N 
ATOM      9  H8  UNL     1     -32.257  59.514  75.289  1.00  0.00     0.189 HD
ENDROOT
BRANCH   1  10
HETATM   10  N3  UNL     1     -33.632  59.206  77.402  1.00  0.00    -0.225 N 
ATOM     11  H3  UNL     1     -33.205  59.665  78.207  1.00  0.00     0.177 HD
BRANCH  10  12
HETATM   12  C3  UNL     1     -34.947  59.556  76.963  1.00  0.00     0.145 C 
BRANCH  12  13
HETATM   13  C2  UNL     1     -35.885  59.892  78.088  1.00  0.00     0.092 C 
BRANCH  13  14
HETATM   14  C1  UNL     1     -35.869  58.897  79.172  1.00  0.00     0.088 C 
HETATM   15  N1  UNL     1     -35.872  59.308  80.386  1.00  0.00    -0.391 N 
ATOM     16  H12 UNL     1     -35.860  58.619  81.138  1.00  0.00     0.157 HD
ATOM     17  H11 UNL     1     -35.884  60.314  80.557  1.00  0.00     0.157 HD
HETATM   18  N2  UNL     1     -35.851  57.503  78.934  1.00  0.00    -0.088 NA
ENDBRANCH  13  14
ENDBRANCH  12  13
ENDBRANCH  10  12
ENDBRANCH   1  10
BRANCH   4  19
HETATM   19  N5  UNL     1     -32.409  54.840  76.884  1.00  0.00    -0.234 N 
ATOM     20  H52 UNL     1     -33.317  54.429  77.103  1.00  0.00     0.174 HD
ATOM     21  H51 UNL     1     -31.541  54.314  76.993  1.00  0.00     0.174 HD
ENDBRANCH   4  19
BRANCH   5  22
HETATM   22  C6  UNL     1     -30.943  55.349  74.579  1.00  0.00     0.169 C 
BRANCH  22  23
HETATM   23  C7  UNL     1     -31.717  54.770  73.430  1.00  0.00     0.183 C 
BRANCH  23  24
HETATM   24  S1  UNL     1     -31.756  53.002  73.650  1.00  0.00     0.226 S 
HETATM   25  O1  UNL     1     -31.103  52.293  72.518  1.00  0.00    -0.206 OA
HETATM   26  O2  UNL     1     -31.019  52.703  74.931  1.00  0.00    -0.206 OA
BRANCH  24  27
HETATM   27  N7  UNL     1     -33.390  52.471  73.879  1.00  0.00    -0.328 N 
ATOM     28  H72 UNL     1     -33.828  52.341  74.790  1.00  0.00     0.168 HD
ATOM     29  H71 UNL     1     -33.834  52.312  72.974  1.00  0.00     0.168 HD
ENDBRANCH  24  27
ENDBRANCH  23  24
ENDBRANCH  22  23
ENDBRANCH   5  22
TORSDOF 9
ENDMDL
MODEL 3
REMARK VINA RESULT: -6.234619291      1.473      2.033
REMARK  9 active torsions:
REMARK  status: ('A' for Active; 'I' for Inactive)
REMARK    1  A    between atoms: C1_4  and  C2_6 
REMARK    2  A    between atoms: C2_6  and  C3_7 
REMARK    3  A    between atoms: C3_7  and  N3_8 
REMARK    4  A    between atoms: N3_8  and  C4_10 
REMARK    5  A    between atoms: C5_13  and  N5_14 
REMARK    6  A    between atoms: N6_17  and  C6_18 
REMARK    7  A    between atoms: C6_18  and  C7_19 
REMARK    8  A    between atoms: C7_19  and  S1_20 
REMARK    9  A    between atoms: S1_20  and  N7_21 
ROOT
HETATM    1  C4  UNL     1     -33.386  58.522  76.685  1.00  0.00     0.696 A 
HETATM    2  N4  UNL     1     -34.165  58.314  75.608  1.00  0.00    -0.022 N 
ATOM      3  H4  UNL     1     -35.111  58.697  75.592  1.00  0.00     0.203 HD
HETATM    4  C5  UNL     1     -33.717  57.608  74.548  1.00  0.00     0.696 A 
HETATM    5  N6  UNL     1     -32.476  57.081  74.519  1.00  0.00    -0.131 N 
HETATM    6  C8  UNL     1     -31.713  57.299  75.606  1.00  0.00     0.355 A 
HETATM    7  O3  UNL     1     -30.524  56.826  75.642  1.00  0.00    -0.245 OA
HETATM    8  N8  UNL     1     -32.153  57.999  76.659  1.00  0.00    -0.140 N 
ATOM      9  H8  UNL     1     -31.535  58.137  77.459  1.00  0.00     0.189 HD
ENDROOT
BRANCH   1  10
HETATM   10  N3  UNL     1     -33.826  59.205  77.706  1.00  0.00    -0.225 N 
ATOM     11  H3  UNL     1     -33.526  58.986  78.656  1.00  0.00     0.177 HD
BRANCH  10  12
HETATM   12  C3  UNL     1     -34.744  60.272  77.450  1.00  0.00     0.145 C 
BRANCH  12  13
HETATM   13  C2  UNL     1     -35.847  60.371  78.464  1.00  0.00     0.092 C 
BRANCH  13  14
HETATM   14  C1  UNL     1     -35.900  59.219  79.377  1.00  0.00     0.088 C 
HETATM   15  N1  UNL     1     -35.718  59.415  80.631  1.00  0.00    -0.391 N 
ATOM     16  H12 UNL     1     -35.755  58.617  81.265  1.00  0.00     0.157 HD
ATOM     17  H11 UNL     1     -35.542  60.368  80.951  1.00  0.00     0.157 HD
HETATM   18  N2  UNL     1     -36.144  57.898  78.934  1.00  0.00    -0.088 NA
ENDBRANCH  13  14
ENDBRANCH  12  13
ENDBRANCH  10  12
ENDBRANCH   1  10
BRANCH   4  19
HETATM   19  N5  UNL     1     -34.478  57.433  73.552  1.00  0.00    -0.234 N 
ATOM     20  H52 UNL     1     -35.299  58.030  73.449  1.00  0.00     0.174 HD
ATOM     21  H51 UNL     1     -34.257  56.703  72.875  1.00  0.00     0.174 HD
ENDBRANCH   4  19
BRANCH   5  22
HETATM   22  C6  UNL     1     -31.931  56.325  73.441  1.00  0.00     0.169 C 
BRANCH  22  23
HETATM   23  C7  UNL     1     -32.565  54.979  73.242  1.00  0.00     0.183 C 
BRANCH  23  24
HETATM   24  S1  UNL     1     -31.554  53.782  74.091  1.00  0.00     0.226 S 
HETATM   25  O1  UNL     1     -30.112  54.137  74.027  1.00  0.00    -0.206 OA
HETATM   26  O2  UNL     1     -32.009  53.763  75.528  1.00  0.00    -0.206 OA
BRANCH  24  27
HETATM   27  N7  UNL     1     -31.851  52.198  73.453  1.00  0.00    -0.328 N 
ATOM     28  H72 UNL     1     -32.262  51.432  73.987  1.00  0.00     0.168 HD
ATOM     29  H71 UNL     1     -31.555  52.155  72.478  1.00  0.00     0.168 HD
ENDBRANCH  24  27
ENDBRANCH  23  24
ENDBRANCH  22  23
ENDBRANCH   5  22
TORSDOF 9
ENDMDL
MODEL 4
REMARK VINA RESULT: -6.069778736      1.156      1.761
REMARK  9 active torsions:
REMARK  status: ('A' for Active; 'I' for Inactive)
REMARK    1  A    between atoms: C1_4  and  C2_6 
REMARK    2  A    between atoms: C2_6  and  C3_7 
REMARK    3  A    between atoms: C3_7  and  N3_8 
REMARK    4  A    between atoms: N3_8  and  C4_10 
REMARK    5  A    between atoms: C5_13  and  N5_14 
REMARK    6  A    between atoms: N6_17  and  C6_18 
REMARK    7  A    between atoms: C6_18  and  C7_19 
REMARK    8  A    between atoms: C7_19  and  S1_20 
REMARK    9  A    between atoms: S1_20  and  N7_21 
ROOT
HETATM    1  C4  UNL     1     -33.723  58.601  76.027  1.00  0.00     0.696 A 
HETATM    2  N4  UNL     1     -33.389  58.261  74.769  1.00  0.00    -0.022 N 
ATOM      3  H4  UNL     1     -33.795  58.773  73.987  1.00  0.00     0.203 HD
HETATM    4  C5  UNL     1     -32.525  57.252  74.524  1.00  0.00     0.696 A 
HETATM    5  N6  UNL     1     -31.960  56.543  75.523  1.00  0.00    -0.131 N 
HETATM    6  C8  UNL     1     -32.306  56.898  76.773  1.00  0.00     0.355 A 
HETATM    7  O3  UNL     1     -31.805  56.265  77.766  1.00  0.00    -0.245 OA
HETATM    8  N8  UNL     1     -33.162  57.897  77.021  1.00  0.00    -0.140 N 
ATOM      9  H8  UNL     1     -33.393  58.128  77.987  1.00  0.00     0.189 HD
ENDROOT
BRANCH   1  10
HETATM   10  N3  UNL     1     -34.558  59.576  76.257  1.00  0.00    -0.225 N 
ATOM     11  H3  UNL     1     -35.291  59.812  75.587  1.00  0.00     0.177 HD
BRANCH  10  12
HETATM   12  C3  UNL     1     -34.413  60.305  77.479  1.00  0.00     0.145 C 
BRANCH  12  13
HETATM   13  C2  UNL     1     -35.661  60.326  78.316  1.00  0.00     0.092 C 
BRANCH  13  14
HETATM   14  C1  UNL     1     -35.808  59.134  79.166  1.00  0.00     0.088 C 
HETATM   15  N1  UNL     1     -35.881  59.287  80.437  1.00  0.00    -0.391 N 
ATOM     16  H12 UNL     1     -35.984  58.461  81.026  1.00  0.00     0.157 HD
ATOM     17  H11 UNL     1     -35.832  60.234  80.814  1.00  0.00     0.157 HD
HETATM   18  N2  UNL     1     -35.875  57.821  78.642  1.00  0.00    -0.088 NA
ENDBRANCH  13  14
ENDBRANCH  12  13
ENDBRANCH  10  12
ENDBRANCH   1  10
BRANCH   4  19
HETATM   19  N5  UNL     1     -32.234  56.960  73.328  1.00  0.00    -0.234 N 
ATOM     20  H52 UNL     1     -31.307  56.587  73.124  1.00  0.00     0.174 HD
ATOM     21  H51 UNL     1     -32.928  57.105  72.594  1.00  0.00     0.174 HD
ENDBRANCH   4  19
BRANCH   5  22
HETATM   22  C6  UNL     1     -31.042  55.467  75.347  1.00  0.00     0.169 C 
BRANCH  22  23
HETATM   23  C7  UNL     1     -31.659  54.101  75.441  1.00  0.00     0.183 C 
BRANCH  23  24
HETATM   24  S1  UNL     1     -31.721  53.429  73.792  1.00  0.00     0.226 S 
HETATM   25  O1  UNL     1     -30.729  54.078  72.895  1.00  0.00    -0.206 OA
HETATM   26  O2  UNL     1     -31.416  51.957  73.905  1.00  0.00    -0.206 OA
BRANCH  24  27
HETATM   27  N7  UNL     1     -33.331  53.558  73.161  1.00  0.00    -0.328 N 
ATOM     28  H72 UNL     1     -34.176  53.496  73.729  1.00  0.00     0.168 HD
ATOM     29  H71 UNL     1     -33.299  53.703  72.152  1.00  0.00     0.168 HD
ENDBRANCH  24  27
ENDBRANCH  23  24
ENDBRANCH  22  23
ENDBRANCH   5  22
TORSDOF 9
ENDMDL
MODEL 5
REMARK VINA RESULT: -6.066108739      4.209      6.637
REMARK  9 active torsions:
REMARK  status: ('A' for Active; 'I' for Inactive)
REMARK    1  A    between atoms: C1_4  and  C2_6 
REMARK    2  A    between atoms: C2_6  and  C3_7 
REMARK    3  A    between atoms: C3_7  and  N3_8 
REMARK    4  A    between atoms: N3_8  and  C4_10 
REMARK    5  A    between atoms: C5_13  and  N5_14 
REMARK    6  A    between atoms: N6_17  and  C6_18 
REMARK    7  A    between atoms: C6_18  and  C7_19 
REMARK    8  A    between atoms: C7_19  and  S1_20 
REMARK    9  A    between atoms: S1_20  and  N7_21 
ROOT
HETATM    1  C4  UNL     1     -31.166  59.087  71.772  1.00  0.00     0.696 A 
HETATM    2  N4  UNL     1     -30.586  59.244  72.976  1.00  0.00    -0.022 N 
ATOM      3  H4  UNL     1     -29.916  60.000  73.114  1.00  0.00     0.203 HD
HETATM    4  C5  UNL     1     -30.875  58.418  74.004  1.00  0.00     0.696 A 
HETATM    5  N6  UNL     1     -31.754  57.403  73.874  1.00  0.00    -0.131 N 
HETATM    6  C8  UNL     1     -32.323  57.262  72.663  1.00  0.00     0.355 A 
HETATM    7  O3  UNL     1     -33.166  56.318  72.473  1.00  0.00    -0.245 OA
HETATM    8  N8  UNL     1     -32.039  58.078  71.640  1.00  0.00    -0.140 N 
ATOM      9  H8  UNL     1     -32.498  57.930  70.741  1.00  0.00     0.189 HD
ENDROOT
BRANCH   1  10
HETATM   10  N3  UNL     1     -30.881  59.888  70.783  1.00  0.00    -0.225 N 
ATOM     11  H3  UNL     1     -30.361  60.751  70.936  1.00  0.00     0.177 HD
BRANCH  10  12
HETATM   12  C3  UNL     1     -31.324  59.515  69.475  1.00  0.00     0.145 C 
BRANCH  12  13
HETATM   13  C2  UNL     1     -30.238  59.562  68.438  1.00  0.00     0.092 C 
BRANCH  13  14
HETATM   14  C1  UNL     1     -29.402  58.352  68.420  1.00  0.00     0.088 C 
HETATM   15  N1  UNL     1     -28.421  58.291  67.597  1.00  0.00    -0.391 N 
ATOM     16  H12 UNL     1     -27.841  57.452  67.584  1.00  0.00     0.157 HD
ATOM     17  H11 UNL     1     -28.256  59.088  66.981  1.00  0.00     0.157 HD
HETATM   18  N2  UNL     1     -29.631  57.247  69.273  1.00  0.00    -0.088 NA
ENDBRANCH  13  14
ENDBRANCH  12  13
ENDBRANCH  10  12
ENDBRANCH   1  10
BRANCH   4  19
HETATM   19  N5  UNL     1     -30.310  58.597  75.122  1.00  0.00    -0.234 N 
ATOM     20  H52 UNL     1     -29.845  59.487  75.302  1.00  0.00     0.174 HD
ATOM     21  H51 UNL     1     -30.330  57.851  75.818  1.00  0.00     0.174 HD
ENDBRANCH   4  19
BRANCH   5  22
HETATM   22  C6  UNL     1     -32.111  56.491  74.908  1.00  0.00     0.169 C 
BRANCH  22  23
HETATM   23  C7  UNL     1     -31.018  55.541  75.306  1.00  0.00     0.183 C 
BRANCH  23  24
HETATM   24  S1  UNL     1     -31.239  54.047  74.360  1.00  0.00     0.226 S 
HETATM   25  O1  UNL     1     -30.612  54.149  73.016  1.00  0.00    -0.206 OA
HETATM   26  O2  UNL     1     -30.588  52.933  75.141  1.00  0.00    -0.206 OA
BRANCH  24  27
HETATM   27  N7  UNL     1     -32.925  53.660  74.252  1.00  0.00    -0.328 N 
ATOM     28  H72 UNL     1     -33.588  53.760  75.021  1.00  0.00     0.168 HD
ATOM     29  H71 UNL     1     -33.145  53.322  73.314  1.00  0.00     0.168 HD
ENDBRANCH  24  27
ENDBRANCH  23  24
ENDBRANCH  22  23
ENDBRANCH   5  22
TORSDOF 9
ENDMDL
