MODEL 1
REMARK VINA RESULT: -6.874887768      0.000      0.000
REMARK  10 active torsions:
REMARK  status: ('A' for Active; 'I' for Inactive)
REMARK    1  A    between atoms: N2_4  and  N3_6 
REMARK       I    between atoms: N3_6  and  C1_8 
REMARK    2  A    between atoms: N5_10  and  C2_12 
REMARK    3  A    between atoms: C2_12  and  C3_13 
REMARK    4  A    between atoms: C4_16  and  N7_17 
REMARK    5  A    between atoms: N9_23  and  C6_25 
REMARK    6  A    between atoms: C6_25  and  O1_26 
REMARK    7  A    between atoms: C6_25  and  C7_28 
REMARK    8  A    between atoms: C7_28  and  C8_29 
REMARK    9  A    between atoms: C8_29  and  C9_30 
REMARK   10  A    between atoms: C9_30  and  N10_31 
ROOT
HETATM    1  C3  UNL     1     -33.093  57.044  73.408  1.00  0.00     0.131 A 
HETATM    2  N6  UNL     1     -32.257  58.053  73.109  1.00  0.00    -0.176 N 
ATOM      3  H6  UNL     1     -31.508  57.900  72.434  1.00  0.00     0.185 HD
HETATM    4  C4  UNL     1     -32.392  59.253  73.683  1.00  0.00     0.722 A 
HETATM    5  N8  UNL     1     -33.400  59.429  74.578  1.00  0.00    -0.020 N 
ATOM      6  H8  UNL     1     -33.504  60.345  75.016  1.00  0.00     0.203 HD
HETATM    7  C5  UNL     1     -34.253  58.475  74.911  1.00  0.00     0.696 A 
HETATM    8  N9  UNL     1     -35.203  58.639  75.755  1.00  0.00    -0.199 N 
ATOM      9  H9  UNL     1     -35.832  57.868  75.976  1.00  0.00     0.180 HD
HETATM   10  N11 UNL     1     -34.075  57.264  74.299  1.00  0.00    -0.178 N 
ATOM     11  H11 UNL     1     -34.710  56.500  74.528  1.00  0.00     0.185 HD
ENDROOT
BRANCH   1  12
HETATM   12  C2  UNL     1     -32.904  55.729  72.745  1.00  0.00     0.199 C 
BRANCH  12  13
HETATM   13  N5  UNL     1     -31.593  55.188  73.080  1.00  0.00    -0.356 N 
HETATM   14  C1  UNL     1     -31.406  54.484  74.132  1.00  0.00     0.204 C 
HETATM   15  N3  UNL     1     -32.497  54.221  74.997  1.00  0.00    -0.260 N 
HETATM   16  N4  UNL     1     -30.109  53.984  74.409  1.00  0.00    -0.062 NA
ATOM     17  H3  UNL     1     -33.290  53.686  74.644  1.00  0.00     0.191 HD
ATOM     18  H5  UNL     1     -30.804  55.376  72.460  1.00  0.00     0.162 HD
BRANCH  15  19
HETATM   19  N2  UNL     1     -32.517  54.669  76.314  1.00  0.00    -0.247 N 
HETATM   20  N1  UNL     1     -31.869  55.691  76.691  1.00  0.00    -0.331 N 
ATOM     21  H12 UNL     1     -31.319  56.191  75.992  1.00  0.00     0.178 HD
ATOM     22  H11 UNL     1     -31.884  56.020  77.656  1.00  0.00     0.178 HD
ATOM     23  H2  UNL     1     -33.073  54.157  77.000  1.00  0.00     0.207 HD
ENDBRANCH  15  19
ENDBRANCH  12  13
ENDBRANCH   1  12
BRANCH   4  24
HETATM   24  N7  UNL     1     -31.585  60.197  73.382  1.00  0.00    -0.053 N 
HETATM   25  F1  UNL     1     -31.521  60.613  72.105  1.00  0.00    -0.086 F 
ATOM     26  H7  UNL     1     -31.000  60.627  74.098  1.00  0.00     0.218 HD
ENDBRANCH   4  24
BRANCH   8  27
HETATM   27  C6  UNL     1     -35.376  59.918  76.390  1.00  0.00     0.235 C 
BRANCH  27  28
HETATM   28  O1  UNL     1     -36.757  60.169  76.531  1.00  0.00    -0.376 OA
ATOM     29  H1  UNL     1     -37.169  60.093  75.679  1.00  0.00     0.212 HD
ENDBRANCH  27  28
BRANCH  27  30
HETATM   30  C7  UNL     1     -34.733  59.961  77.763  1.00  0.00     0.056 C 
BRANCH  30  31
HETATM   31  C8  UNL     1     -35.712  60.393  78.825  1.00  0.00     0.031 C 
BRANCH  31  32
HETATM   32  C9  UNL     1     -35.885  59.332  79.889  1.00  0.00     0.230 C 
BRANCH  32  33
HETATM   33  N10 UNL     1     -35.908  58.017  79.298  1.00  0.00    -0.079 N 
ATOM     34 3H10 UNL     1     -36.189  58.047  78.318  1.00  0.00     0.274 HD
ATOM     35 2H10 UNL     1     -34.967  57.642  79.175  1.00  0.00     0.274 HD
ATOM     36 1H10 UNL     1     -36.498  57.388  79.842  1.00  0.00     0.274 HD
ENDBRANCH  32  33
ENDBRANCH  31  32
ENDBRANCH  30  31
ENDBRANCH  27  30
ENDBRANCH   8  27
TORSDOF 10
ENDMDL
MODEL 2
REMARK VINA RESULT: -6.698430852      1.690      2.263
REMARK  10 active torsions:
REMARK  status: ('A' for Active; 'I' for Inactive)
REMARK    1  A    between atoms: N2_4  and  N3_6 
REMARK       I    between atoms: N3_6  and  C1_8 
REMARK    2  A    between atoms: N5_10  and  C2_12 
REMARK    3  A    between atoms: C2_12  and  C3_13 
REMARK    4  A    between atoms: C4_16  and  N7_17 
REMARK    5  A    between atoms: N9_23  and  C6_25 
REMARK    6  A    between atoms: C6_25  and  O1_26 
REMARK    7  A    between atoms: C6_25  and  C7_28 
REMARK    8  A    between atoms: C7_28  and  C8_29 
REMARK    9  A    between atoms: C8_29  and  C9_30 
REMARK   10  A    between atoms: C9_30  and  N10_31 
ROOT
HETATM    1  C3  UNL     1     -31.868  55.902  75.808  1.00  0.00     0.131 A 
HETATM    2  N6  UNL     1     -31.004  56.712  75.173  1.00  0.00    -0.176 N 
ATOM      3  H6  UNL     1     -30.112  56.339  74.849  1.00  0.00     0.185 HD
HETATM    4  C4  UNL     1     -31.297  57.999  74.959  1.00  0.00     0.722 A 
HETATM    5  N8  UNL     1     -32.494  58.469  75.399  1.00  0.00    -0.020 N 
ATOM      6  H8  UNL     1     -32.718  59.451  75.235  1.00  0.00     0.203 HD
HETATM    7  C5  UNL     1     -33.383  57.720  76.028  1.00  0.00     0.696 A 
HETATM    8  N9  UNL     1     -34.512  58.162  76.444  1.00  0.00    -0.199 N 
ATOM      9  H9  UNL     1     -35.161  57.540  76.925  1.00  0.00     0.180 HD
HETATM   10  N11 UNL     1     -33.039  56.410  76.226  1.00  0.00    -0.178 N 
ATOM     11  H11 UNL     1     -33.697  55.798  76.709  1.00  0.00     0.185 HD
ENDROOT
BRANCH   1  12
HETATM   12  C2  UNL     1     -31.500  54.479  76.024  1.00  0.00     0.199 C 
BRANCH  12  13
HETATM   13  N5  UNL     1     -30.926  53.925  74.803  1.00  0.00    -0.356 N 
HETATM   14  C1  UNL     1     -31.662  53.412  73.891  1.00  0.00     0.204 C 
HETATM   15  N3  UNL     1     -33.067  53.378  74.063  1.00  0.00    -0.260 N 
HETATM   16  N4  UNL     1     -31.051  52.886  72.724  1.00  0.00    -0.062 NA
ATOM     17  H3  UNL     1     -33.578  54.258  74.137  1.00  0.00     0.191 HD
ATOM     18  H5  UNL     1     -29.914  53.946  74.674  1.00  0.00     0.162 HD
BRANCH  15  19
HETATM   19  N2  UNL     1     -33.772  52.181  74.136  1.00  0.00    -0.247 N 
HETATM   20  N1  UNL     1     -35.019  52.115  73.919  1.00  0.00    -0.331 N 
ATOM     21  H12 UNL     1     -35.507  52.979  73.684  1.00  0.00     0.178 HD
ATOM     22  H11 UNL     1     -35.536  51.237  73.972  1.00  0.00     0.178 HD
ATOM     23  H2  UNL     1     -33.267  51.326  74.372  1.00  0.00     0.207 HD
ENDBRANCH  15  19
ENDBRANCH  12  13
ENDBRANCH   1  12
BRANCH   4  24
HETATM   24  N7  UNL     1     -30.459  58.750  74.352  1.00  0.00    -0.053 N 
HETATM   25  F1  UNL     1     -30.921  59.784  73.628  1.00  0.00    -0.086 F 
ATOM     26  H7  UNL     1     -29.458  58.567  74.416  1.00  0.00     0.218 HD
ENDBRANCH   4  24
BRANCH   8  27
HETATM   27  C6  UNL     1     -34.857  59.542  76.229  1.00  0.00     0.235 C 
BRANCH  27  28
HETATM   28  O1  UNL     1     -36.225  59.617  75.894  1.00  0.00    -0.376 OA
ATOM     29  H1  UNL     1     -36.711  59.902  76.660  1.00  0.00     0.212 HD
ENDBRANCH  27  28
BRANCH  27  30
HETATM   30  C7  UNL     1     -34.615  60.386  77.466  1.00  0.00     0.056 C 
BRANCH  30  31
HETATM   31  C8  UNL     1     -35.835  60.448  78.348  1.00  0.00     0.031 C 
BRANCH  31  32
HETATM   32  C9  UNL     1     -35.627  59.692  79.641  1.00  0.00     0.230 C 
BRANCH  32  33
HETATM   33  N10 UNL     1     -36.062  58.324  79.506  1.00  0.00    -0.079 N 
ATOM     34 3H10 UNL     1     -37.074  58.237  79.603  1.00  0.00     0.274 HD
ATOM     35 2H10 UNL     1     -35.971  57.992  78.546  1.00  0.00     0.274 HD
ATOM     36 1H10 UNL     1     -35.567  57.722  80.164  1.00  0.00     0.274 HD
ENDBRANCH  32  33
ENDBRANCH  31  32
ENDBRANCH  30  31
ENDBRANCH  27  30
ENDBRANCH   8  27
TORSDOF 10
ENDMDL
MODEL 3
REMARK VINA RESULT: -6.657344441      3.462      4.892
REMARK  10 active torsions:
REMARK  status: ('A' for Active; 'I' for Inactive)
REMARK    1  A    between atoms: N2_4  and  N3_6 
REMARK       I    between atoms: N3_6  and  C1_8 
REMARK    2  A    between atoms: N5_10  and  C2_12 
REMARK    3  A    between atoms: C2_12  and  C3_13 
REMARK    4  A    between atoms: C4_16  and  N7_17 
REMARK    5  A    between atoms: N9_23  and  C6_25 
REMARK    6  A    between atoms: C6_25  and  O1_26 
REMARK    7  A    between atoms: C6_25  and  C7_28 
REMARK    8  A    between atoms: C7_28  and  C8_29 
REMARK    9  A    between atoms: C8_29  and  C9_30 
REMARK   10  A    between atoms: C9_30  and  N10_31 
ROOT
HETATM    1  C3  UNL     1     -34.125  58.137  76.336  1.00  0.00     0.131 A 
HETATM    2  N6  UNL     1     -34.608  59.060  77.185  1.00  0.00    -0.176 N 
ATOM      3  H6  UNL     1     -34.120  59.239  78.063  1.00  0.00     0.185 HD
HETATM    4  C4  UNL     1     -35.718  59.747  76.897  1.00  0.00     0.722 A 
HETATM    5  N8  UNL     1     -36.348  59.489  75.720  1.00  0.00    -0.020 N 
ATOM      6  H8  UNL     1     -37.195  60.013  75.499  1.00  0.00     0.203 HD
HETATM    7  C5  UNL     1     -35.919  58.594  74.847  1.00  0.00     0.696 A 
HETATM    8  N9  UNL     1     -36.512  58.350  73.737  1.00  0.00    -0.199 N 
ATOM      9  H9  UNL     1     -36.138  57.648  73.099  1.00  0.00     0.180 HD
HETATM   10  N11 UNL     1     -34.781  57.915  75.185  1.00  0.00    -0.178 N 
ATOM     11  H11 UNL     1     -34.416  57.215  74.539  1.00  0.00     0.185 HD
ENDROOT
BRANCH   1  12
HETATM   12  C2  UNL     1     -32.888  57.399  76.699  1.00  0.00     0.199 C 
BRANCH  12  13
HETATM   13  N5  UNL     1     -32.478  56.543  75.592  1.00  0.00    -0.356 N 
HETATM   14  C1  UNL     1     -31.376  56.733  74.971  1.00  0.00     0.204 C 
HETATM   15  N3  UNL     1     -30.529  57.799  75.361  1.00  0.00    -0.260 N 
HETATM   16  N4  UNL     1     -31.027  55.870  73.901  1.00  0.00    -0.062 NA
ATOM     17  H3  UNL     1     -30.129  57.795  76.299  1.00  0.00     0.191 HD
ATOM     18  H5  UNL     1     -33.085  55.774  75.307  1.00  0.00     0.162 HD
BRANCH  15  19
HETATM   19  N2  UNL     1     -30.227  58.852  74.504  1.00  0.00    -0.247 N 
HETATM   20  N1  UNL     1     -30.633  58.885  73.303  1.00  0.00    -0.331 N 
ATOM     21  H12 UNL     1     -31.200  58.105  72.971  1.00  0.00     0.178 HD
ATOM     22  H11 UNL     1     -30.412  59.657  72.674  1.00  0.00     0.178 HD
ATOM     23  H2  UNL     1     -29.659  59.624  74.853  1.00  0.00     0.207 HD
ENDBRANCH  15  19
ENDBRANCH  12  13
ENDBRANCH   1  12
BRANCH   4  24
HETATM   24  N7  UNL     1     -36.159  60.619  77.720  1.00  0.00    -0.053 N 
HETATM   25  F1  UNL     1     -35.322  61.576  78.161  1.00  0.00    -0.086 F 
ATOM     26  H7  UNL     1     -37.127  60.591  78.038  1.00  0.00     0.218 HD
ENDBRANCH   4  24
BRANCH   8  27
HETATM   27  C6  UNL     1     -37.709  59.072  73.397  1.00  0.00     0.235 C 
BRANCH  27  28
HETATM   28  O1  UNL     1     -37.343  60.300  72.807  1.00  0.00    -0.376 OA
ATOM     29  H1  UNL     1     -36.757  60.125  72.080  1.00  0.00     0.212 HD
ENDBRANCH  27  28
BRANCH  27  30
HETATM   30  C7  UNL     1     -38.575  58.304  72.416  1.00  0.00     0.056 C 
BRANCH  30  31
HETATM   31  C8  UNL     1     -38.566  56.825  72.702  1.00  0.00     0.031 C 
BRANCH  31  32
HETATM   32  C9  UNL     1     -39.959  56.299  72.963  1.00  0.00     0.230 C 
BRANCH  32  33
HETATM   33  N10 UNL     1     -40.067  55.783  74.305  1.00  0.00    -0.079 N 
ATOM     34 3H10 UNL     1     -39.677  54.843  74.381  1.00  0.00     0.274 HD
ATOM     35 2H10 UNL     1     -39.435  56.263  74.945  1.00  0.00     0.274 HD
ATOM     36 1H10 UNL     1     -41.033  55.818  74.628  1.00  0.00     0.274 HD
ENDBRANCH  32  33
ENDBRANCH  31  32
ENDBRANCH  30  31
ENDBRANCH  27  30
ENDBRANCH   8  27
TORSDOF 10
ENDMDL
MODEL 4
REMARK VINA RESULT: -6.537299776      1.615      2.058
REMARK  10 active torsions:
REMARK  status: ('A' for Active; 'I' for Inactive)
REMARK    1  A    between atoms: N2_4  and  N3_6 
REMARK       I    between atoms: N3_6  and  C1_8 
REMARK    2  A    between atoms: N5_10  and  C2_12 
REMARK    3  A    between atoms: C2_12  and  C3_13 
REMARK    4  A    between atoms: C4_16  and  N7_17 
REMARK    5  A    between atoms: N9_23  and  C6_25 
REMARK    6  A    between atoms: C6_25  and  O1_26 
REMARK    7  A    between atoms: C6_25  and  C7_28 
REMARK    8  A    between atoms: C7_28  and  C8_29 
REMARK    9  A    between atoms: C8_29  and  C9_30 
REMARK   10  A    between atoms: C9_30  and  N10_31 
ROOT
HETATM    1  C3  UNL     1     -32.656  57.709  74.068  1.00  0.00     0.131 A 
HETATM    2  N6  UNL     1     -33.289  58.082  72.942  1.00  0.00    -0.176 N 
ATOM      3  H6  UNL     1     -32.915  57.794  72.038  1.00  0.00     0.185 HD
HETATM    4  C4  UNL     1     -34.401  58.824  72.990  1.00  0.00     0.722 A 
HETATM    5  N8  UNL     1     -34.878  59.191  74.209  1.00  0.00    -0.020 N 
ATOM      6  H8  UNL     1     -35.726  59.756  74.246  1.00  0.00     0.203 HD
HETATM    7  C5  UNL     1     -34.299  58.854  75.348  1.00  0.00     0.696 A 
HETATM    8  N9  UNL     1     -34.747  59.200  76.498  1.00  0.00    -0.199 N 
ATOM      9  H9  UNL     1     -34.260  58.913  77.347  1.00  0.00     0.180 HD
HETATM   10  N11 UNL     1     -33.164  58.096  75.250  1.00  0.00    -0.178 N 
ATOM     11  H11 UNL     1     -32.686  57.815  76.106  1.00  0.00     0.185 HD
ENDROOT
BRANCH   1  12
HETATM   12  C2  UNL     1     -31.425  56.885  73.965  1.00  0.00     0.199 C 
BRANCH  12  13
HETATM   13  N5  UNL     1     -31.361  55.947  75.079  1.00  0.00    -0.356 N 
HETATM   14  C1  UNL     1     -31.613  54.703  74.922  1.00  0.00     0.204 C 
HETATM   15  N3  UNL     1     -31.963  54.218  73.638  1.00  0.00    -0.260 N 
HETATM   16  N4  UNL     1     -31.536  53.835  76.041  1.00  0.00    -0.062 NA
ATOM     17  H3  UNL     1     -31.285  54.291  72.879  1.00  0.00     0.191 HD
ATOM     18  H5  UNL     1     -31.110  56.292  76.006  1.00  0.00     0.162 HD
BRANCH  15  19
HETATM   19  N2  UNL     1     -33.204  53.645  73.381  1.00  0.00    -0.247 N 
HETATM   20  N1  UNL     1     -33.667  52.692  74.077  1.00  0.00    -0.331 N 
ATOM     21  H12 UNL     1     -33.097  52.345  74.848  1.00  0.00     0.178 HD
ATOM     22  H11 UNL     1     -34.578  52.272  73.888  1.00  0.00     0.178 HD
ATOM     23  H2  UNL     1     -33.761  54.004  72.605  1.00  0.00     0.207 HD
ENDBRANCH  15  19
ENDBRANCH  12  13
ENDBRANCH   1  12
BRANCH   4  24
HETATM   24  N7  UNL     1     -34.985  59.166  71.906  1.00  0.00    -0.053 N 
HETATM   25  F1  UNL     1     -35.327  60.454  71.732  1.00  0.00    -0.086 F 
ATOM     26  H7  UNL     1     -35.188  58.473  71.185  1.00  0.00     0.218 HD
ENDBRANCH   4  24
BRANCH   8  27
HETATM   27  C6  UNL     1     -35.941  59.998  76.584  1.00  0.00     0.235 C 
BRANCH  27  28
HETATM   28  O1  UNL     1     -37.061  59.143  76.516  1.00  0.00    -0.376 OA
ATOM     29  H1  UNL     1     -37.717  59.451  77.130  1.00  0.00     0.212 HD
ENDBRANCH  27  28
BRANCH  27  30
HETATM   30  C7  UNL     1     -36.008  60.779  77.883  1.00  0.00     0.056 C 
BRANCH  30  31
HETATM   31  C8  UNL     1     -35.144  60.162  78.951  1.00  0.00     0.031 C 
BRANCH  31  32
HETATM   32  C9  UNL     1     -35.954  59.305  79.898  1.00  0.00     0.230 C 
BRANCH  32  33
HETATM   33  N10 UNL     1     -35.987  57.937  79.444  1.00  0.00    -0.079 N 
ATOM     34 3H10 UNL     1     -36.788  57.432  79.824  1.00  0.00     0.274 HD
ATOM     35 2H10 UNL     1     -36.222  57.874  78.454  1.00  0.00     0.274 HD
ATOM     36 1H10 UNL     1     -35.108  57.466  79.657  1.00  0.00     0.274 HD
ENDBRANCH  32  33
ENDBRANCH  31  32
ENDBRANCH  30  31
ENDBRANCH  27  30
ENDBRANCH   8  27
TORSDOF 10
ENDMDL
MODEL 5
REMARK VINA RESULT: -6.518097275      3.729      5.183
REMARK  10 active torsions:
REMARK  status: ('A' for Active; 'I' for Inactive)
REMARK    1  A    between atoms: N2_4  and  N3_6 
REMARK       I    between atoms: N3_6  and  C1_8 
REMARK    2  A    between atoms: N5_10  and  C2_12 
REMARK    3  A    between atoms: C2_12  and  C3_13 
REMARK    4  A    between atoms: C4_16  and  N7_17 
REMARK    5  A    between atoms: N9_23  and  C6_25 
REMARK    6  A    between atoms: C6_25  and  O1_26 
REMARK    7  A    between atoms: C6_25  and  C7_28 
REMARK    8  A    between atoms: C7_28  and  C8_29 
REMARK    9  A    between atoms: C8_29  and  C9_30 
REMARK   10  A    between atoms: C9_30  and  N10_31 
ROOT
HETATM    1  C3  UNL     1     -34.268  58.076  76.228  1.00  0.00     0.131 A 
HETATM    2  N6  UNL     1     -34.759  58.994  77.078  1.00  0.00    -0.176 N 
ATOM      3  H6  UNL     1     -34.283  59.163  77.965  1.00  0.00     0.185 HD
HETATM    4  C4  UNL     1     -35.861  59.690  76.779  1.00  0.00     0.722 A 
HETATM    5  N8  UNL     1     -36.474  59.446  75.590  1.00  0.00    -0.020 N 
ATOM      6  H8  UNL     1     -37.314  59.978  75.361  1.00  0.00     0.203 HD
HETATM    7  C5  UNL     1     -36.037  58.557  74.716  1.00  0.00     0.696 A 
HETATM    8  N9  UNL     1     -36.614  58.325  73.595  1.00  0.00    -0.199 N 
ATOM      9  H9  UNL     1     -36.234  57.627  72.957  1.00  0.00     0.180 HD
HETATM   10  N11 UNL     1     -34.908  57.868  75.065  1.00  0.00    -0.178 N 
ATOM     11  H11 UNL     1     -34.537  57.171  74.419  1.00  0.00     0.185 HD
ENDROOT
BRANCH   1  12
HETATM   12  C2  UNL     1     -33.042  57.327  76.604  1.00  0.00     0.199 C 
BRANCH  12  13
HETATM   13  N5  UNL     1     -32.607  56.495  75.489  1.00  0.00    -0.356 N 
HETATM   14  C1  UNL     1     -31.467  56.661  74.933  1.00  0.00     0.204 C 
HETATM   15  N3  UNL     1     -30.602  57.677  75.406  1.00  0.00    -0.260 N 
HETATM   16  N4  UNL     1     -31.096  55.823  73.851  1.00  0.00    -0.062 NA
ATOM     17  H3  UNL     1     -30.252  57.623  76.363  1.00  0.00     0.191 HD
ATOM     18  H5  UNL     1     -33.228  55.762  75.143  1.00  0.00     0.162 HD
BRANCH  15  19
HETATM   19  N2  UNL     1     -30.213  58.747  74.606  1.00  0.00    -0.247 N 
HETATM   20  N1  UNL     1     -30.645  58.898  73.424  1.00  0.00    -0.331 N 
ATOM     21  H12 UNL     1     -31.298  58.204  73.062  1.00  0.00     0.178 HD
ATOM     22  H11 UNL     1     -30.360  59.683  72.836  1.00  0.00     0.178 HD
ATOM     23  H2  UNL     1     -29.559  59.432  74.984  1.00  0.00     0.207 HD
ENDBRANCH  15  19
ENDBRANCH  12  13
ENDBRANCH   1  12
BRANCH   4  24
HETATM   24  N7  UNL     1     -36.308  60.559  77.603  1.00  0.00    -0.053 N 
HETATM   25  F1  UNL     1     -35.445  61.417  78.174  1.00  0.00    -0.086 F 
ATOM     26  H7  UNL     1     -37.303  60.600  77.823  1.00  0.00     0.218 HD
ENDBRANCH   4  24
BRANCH   8  27
HETATM   27  C6  UNL     1     -37.801  59.058  73.242  1.00  0.00     0.235 C 
BRANCH  27  28
HETATM   28  O1  UNL     1     -37.423  60.338  72.786  1.00  0.00    -0.376 OA
ATOM     29  H1  UNL     1     -37.769  60.989  73.385  1.00  0.00     0.212 HD
ENDBRANCH  27  28
BRANCH  27  30
HETATM   30  C7  UNL     1     -38.588  58.367  72.145  1.00  0.00     0.056 C 
BRANCH  30  31
HETATM   31  C8  UNL     1     -40.074  58.522  72.341  1.00  0.00     0.031 C 
BRANCH  31  32
HETATM   32  C9  UNL     1     -40.649  59.580  71.426  1.00  0.00     0.230 C 
BRANCH  32  33
HETATM   33  N10 UNL     1     -40.511  60.890  72.010  1.00  0.00    -0.079 N 
ATOM     34 3H10 UNL     1     -39.645  60.977  72.544  1.00  0.00     0.274 HD
ATOM     35 2H10 UNL     1     -40.326  61.602  71.303  1.00  0.00     0.274 HD
ATOM     36 1H10 UNL     1     -41.327  61.121  72.576  1.00  0.00     0.274 HD
ENDBRANCH  32  33
ENDBRANCH  31  32
ENDBRANCH  30  31
ENDBRANCH  27  30
ENDBRANCH   8  27
TORSDOF 10
ENDMDL
