MODEL 1
REMARK VINA RESULT: -8.835021500      0.000      0.000
REMARK  7 active torsions:
REMARK  status: ('A' for Active; 'I' for Inactive)
REMARK    1  A    between atoms: C3_3  and  N1_4 
REMARK    2  A    between atoms: C3_3  and  C11_18 
REMARK    3  A    between atoms: N1_4  and  C4_6 
REMARK    4  A    between atoms: C4_6  and  C5_7 
REMARK       I    between atoms: C5_7  and  N2_9 
REMARK       I    between atoms: C6_11  and  N4_13 
REMARK    5  A    between atoms: C13_20  and  N5_21 
REMARK    6  A    between atoms: C15_26  and  N8_27 
REMARK    7  A    between atoms: C17_32  and  N11_33 
ROOT
HETATM    1  C1  UNL     1      46.606  19.148  35.695  1.00  0.00     0.014 C 
HETATM    2  C2  UNL     1      45.756  19.565  36.449  1.00  0.00    -0.092 C 
HETATM    3  C3  UNL     1      44.784  20.110  37.345  1.00  0.00     0.164 C 
ENDROOT
BRANCH   3   4
HETATM    4  N1  UNL     1      43.533  19.518  37.499  1.00  0.00    -0.379 N 
ATOM      5  H1  UNL     1      42.823  19.647  36.779  1.00  0.00     0.160 HD
BRANCH   4   6
HETATM    6  C4  UNL     1      43.241  18.758  38.615  1.00  0.00     0.159 C 
BRANCH   6   7
HETATM    7  C5  UNL     1      44.259  18.055  39.374  1.00  0.00     0.262 C 
HETATM    8  O1  UNL     1      45.015  18.705  40.176  1.00  0.00    -0.267 OA
HETATM    9  N2  UNL     1      44.445  16.681  39.260  1.00  0.00    -0.296 N 
HETATM   10  C6  UNL     1      43.916  15.790  38.548  1.00  0.00     0.193 C 
ATOM     11  H2  UNL     1      45.164  16.320  39.886  1.00  0.00     0.171 HD
HETATM   12  N3  UNL     1      42.898  16.081  37.611  1.00  0.00    -0.063 NA
HETATM   13  N4  UNL     1      44.372  14.417  38.705  1.00  0.00    -0.355 N 
HETATM   14  C7  UNL     1      44.576  13.831  40.010  1.00  0.00     0.125 C 
HETATM   15  C10 UNL     1      44.679  13.446  37.690  1.00  0.00     0.125 C 
HETATM   16  C8  UNL     1      44.910  12.396  39.788  1.00  0.00     0.021 C 
HETATM   17  C9  UNL     1      44.441  12.110  38.376  1.00  0.00     0.021 C 
ENDBRANCH   6   7
ENDBRANCH   4   6
ENDBRANCH   3   4
BRANCH   3  18
HETATM   18  C11 UNL     1      44.670  21.633  37.122  1.00  0.00     0.024 C 
HETATM   19  C12 UNL     1      45.360  22.074  35.867  1.00  0.00     0.035 C 
HETATM   20  C13 UNL     1      44.999  23.525  35.644  1.00  0.00     0.109 C 
HETATM   21  C15 UNL     1      44.481  24.201  36.861  1.00  0.00     0.129 C 
HETATM   22  C17 UNL     1      45.225  23.823  38.135  1.00  0.00     0.109 C 
HETATM   23  C19 UNL     1      45.347  22.337  38.283  1.00  0.00     0.035 C 
BRANCH  20  24
HETATM   24  N5  UNL     1      46.034  24.306  35.047  1.00  0.00    -0.360 N 
HETATM   25  C14 UNL     1      46.565  24.195  33.916  1.00  0.00     0.197 C 
HETATM   26  N6  UNL     1      46.161  23.186  33.014  1.00  0.00    -0.067 NA
HETATM   27  N7  UNL     1      47.586  25.088  33.521  1.00  0.00    -0.067 NA
ATOM     28  H5  UNL     1      46.394  25.066  35.625  1.00  0.00     0.162 HD
ENDBRANCH  20  24
BRANCH  21  29
HETATM   29  N8  UNL     1      44.566  25.641  36.732  1.00  0.00    -0.358 N 
HETATM   30  C16 UNL     1      43.557  26.414  36.987  1.00  0.00     0.197 C 
HETATM   31  N9  UNL     1      43.695  27.812  36.845  1.00  0.00    -0.067 NA
HETATM   32  N10 UNL     1      42.341  25.808  37.403  1.00  0.00    -0.067 NA
ATOM     33  H8  UNL     1      45.446  26.060  36.432  1.00  0.00     0.162 HD
ENDBRANCH  21  29
BRANCH  22  34
HETATM   34  N11 UNL     1      46.355  24.602  38.389  1.00  0.00    -0.360 N 
HETATM   35  C18 UNL     1      47.552  24.641  38.096  1.00  0.00     0.197 C 
HETATM   36  N12 UNL     1      48.322  25.728  38.667  1.00  0.00    -0.067 NA
HETATM   37  N13 UNL     1      48.311  23.778  37.267  1.00  0.00    -0.067 NA
ATOM     38  H11 UNL     1      46.118  25.377  39.007  1.00  0.00     0.162 HD
ENDBRANCH  22  34
ENDBRANCH   3  18
TORSDOF 7
ENDMDL
MODEL 2
REMARK VINA RESULT: -8.742812529      2.344      3.990
REMARK  7 active torsions:
REMARK  status: ('A' for Active; 'I' for Inactive)
REMARK    1  A    between atoms: C3_3  and  N1_4 
REMARK    2  A    between atoms: C3_3  and  C11_18 
REMARK    3  A    between atoms: N1_4  and  C4_6 
REMARK    4  A    between atoms: C4_6  and  C5_7 
REMARK       I    between atoms: C5_7  and  N2_9 
REMARK       I    between atoms: C6_11  and  N4_13 
REMARK    5  A    between atoms: C13_20  and  N5_21 
REMARK    6  A    between atoms: C15_26  and  N8_27 
REMARK    7  A    between atoms: C17_32  and  N11_33 
ROOT
HETATM    1  C1  UNL     1      45.439  22.974  38.387  1.00  0.00     0.014 C 
HETATM    2  C2  UNL     1      45.075  22.176  37.553  1.00  0.00    -0.092 C 
HETATM    3  C3  UNL     1      44.646  21.280  36.525  1.00  0.00     0.164 C 
ENDROOT
BRANCH   3   4
HETATM    4  N1  UNL     1      44.665  19.900  36.717  1.00  0.00    -0.379 N 
ATOM      5  H1  UNL     1      44.287  19.287  35.995  1.00  0.00     0.160 HD
BRANCH   4   6
HETATM    6  C4  UNL     1      45.188  19.352  37.872  1.00  0.00     0.159 C 
BRANCH   6   7
HETATM    7  C5  UNL     1      44.389  18.583  38.807  1.00  0.00     0.262 C 
HETATM    8  O1  UNL     1      43.837  19.170  39.802  1.00  0.00    -0.267 OA
HETATM    9  N2  UNL     1      44.197  17.213  38.661  1.00  0.00    -0.296 N 
HETATM   10  C6  UNL     1      44.627  16.359  37.844  1.00  0.00     0.193 C 
ATOM     11  H2  UNL     1      43.576  16.817  39.366  1.00  0.00     0.171 HD
HETATM   12  N3  UNL     1      45.503  16.702  36.789  1.00  0.00    -0.063 NA
HETATM   13  N4  UNL     1      44.199  14.977  37.998  1.00  0.00    -0.355 N 
HETATM   14  C7  UNL     1      42.819  14.635  38.260  1.00  0.00     0.125 C 
HETATM   15  C10 UNL     1      44.984  13.775  37.923  1.00  0.00     0.125 C 
HETATM   16  C8  UNL     1      42.732  13.148  38.226  1.00  0.00     0.021 C 
HETATM   17  C9  UNL     1      43.987  12.710  37.498  1.00  0.00     0.021 C 
ENDBRANCH   6   7
ENDBRANCH   4   6
ENDBRANCH   3   4
BRANCH   3  18
HETATM   18  C11 UNL     1      45.300  21.677  35.184  1.00  0.00     0.024 C 
HETATM   19  C12 UNL     1      46.679  21.110  35.038  1.00  0.00     0.035 C 
HETATM   20  C13 UNL     1      47.126  21.378  33.619  1.00  0.00     0.109 C 
HETATM   21  C15 UNL     1      46.341  22.443  32.941  1.00  0.00     0.129 C 
HETATM   22  C17 UNL     1      46.016  23.629  33.839  1.00  0.00     0.109 C 
HETATM   23  C19 UNL     1      45.424  23.189  35.144  1.00  0.00     0.035 C 
BRANCH  20  24
HETATM   24  N5  UNL     1      48.524  21.628  33.476  1.00  0.00    -0.360 N 
HETATM   25  C14 UNL     1      49.344  21.130  32.668  1.00  0.00     0.197 C 
HETATM   26  N6  UNL     1      48.940  20.170  31.714  1.00  0.00    -0.067 NA
HETATM   27  N7  UNL     1      50.700  21.525  32.699  1.00  0.00    -0.067 NA
ATOM     28  H5  UNL     1      48.912  22.313  34.126  1.00  0.00     0.162 HD
ENDBRANCH  20  24
BRANCH  21  29
HETATM   29  N8  UNL     1      47.053  22.963  31.793  1.00  0.00    -0.358 N 
HETATM   30  C16 UNL     1      46.497  23.059  30.626  1.00  0.00     0.197 C 
HETATM   31  N9  UNL     1      47.238  23.574  29.539  1.00  0.00    -0.067 NA
HETATM   32  N10 UNL     1      45.147  22.635  30.493  1.00  0.00    -0.067 NA
ATOM     33  H8  UNL     1      48.022  23.263  31.905  1.00  0.00     0.162 HD
ENDBRANCH  21  29
BRANCH  22  34
HETATM   34  N11 UNL     1      47.006  24.612  33.867  1.00  0.00    -0.360 N 
HETATM   35  C18 UNL     1      48.059  24.866  34.457  1.00  0.00     0.197 C 
HETATM   36  N12 UNL     1      48.731  26.094  34.079  1.00  0.00    -0.067 NA
HETATM   37  N13 UNL     1      48.735  24.131  35.462  1.00  0.00    -0.067 NA
ATOM     38  H11 UNL     1      46.794  25.347  33.192  1.00  0.00     0.162 HD
ENDBRANCH  22  34
ENDBRANCH   3  18
TORSDOF 7
ENDMDL
MODEL 3
REMARK VINA RESULT: -8.612780209      2.420      4.051
REMARK  7 active torsions:
REMARK  status: ('A' for Active; 'I' for Inactive)
REMARK    1  A    between atoms: C3_3  and  N1_4 
REMARK    2  A    between atoms: C3_3  and  C11_18 
REMARK    3  A    between atoms: N1_4  and  C4_6 
REMARK    4  A    between atoms: C4_6  and  C5_7 
REMARK       I    between atoms: C5_7  and  N2_9 
REMARK       I    between atoms: C6_11  and  N4_13 
REMARK    5  A    between atoms: C13_20  and  N5_21 
REMARK    6  A    between atoms: C15_26  and  N8_27 
REMARK    7  A    between atoms: C17_32  and  N11_33 
ROOT
HETATM    1  C1  UNL     1      45.771  22.862  38.467  1.00  0.00     0.014 C 
HETATM    2  C2  UNL     1      45.161  22.327  37.569  1.00  0.00    -0.092 C 
HETATM    3  C3  UNL     1      44.454  21.742  36.472  1.00  0.00     0.164 C 
ENDROOT
BRANCH   3   4
HETATM    4  N1  UNL     1      44.051  20.409  36.502  1.00  0.00    -0.379 N 
ATOM      5  H1  UNL     1      43.335  20.086  35.851  1.00  0.00     0.160 HD
BRANCH   4   6
HETATM    6  C4  UNL     1      44.608  19.520  37.399  1.00  0.00     0.159 C 
BRANCH   6   7
HETATM    7  C5  UNL     1      45.301  18.315  36.983  1.00  0.00     0.262 C 
HETATM    8  O1  UNL     1      46.393  18.408  36.322  1.00  0.00    -0.267 OA
HETATM    9  N2  UNL     1      44.815  17.046  37.280  1.00  0.00    -0.296 N 
HETATM   10  C6  UNL     1      43.779  16.625  37.854  1.00  0.00     0.193 C 
ATOM     11  H2  UNL     1      45.431  16.296  36.964  1.00  0.00     0.171 HD
HETATM   12  N3  UNL     1      42.795  17.502  38.366  1.00  0.00    -0.063 NA
HETATM   13  N4  UNL     1      43.599  15.188  37.994  1.00  0.00    -0.355 N 
HETATM   14  C7  UNL     1      44.680  14.327  38.418  1.00  0.00     0.125 C 
HETATM   15  C10 UNL     1      42.418  14.400  37.768  1.00  0.00     0.125 C 
HETATM   16  C8  UNL     1      44.104  12.961  38.574  1.00  0.00     0.021 C 
HETATM   17  C9  UNL     1      42.608  13.188  38.666  1.00  0.00     0.021 C 
ENDBRANCH   6   7
ENDBRANCH   4   6
ENDBRANCH   3   4
BRANCH   3  18
HETATM   18  C11 UNL     1      45.170  22.092  35.149  1.00  0.00     0.024 C 
HETATM   19  C12 UNL     1      46.489  21.395  35.019  1.00  0.00     0.035 C 
HETATM   20  C13 UNL     1      46.987  21.637  33.613  1.00  0.00     0.109 C 
HETATM   21  C15 UNL     1      46.322  22.782  32.938  1.00  0.00     0.129 C 
HETATM   22  C17 UNL     1      46.098  23.982  33.848  1.00  0.00     0.109 C 
HETATM   23  C19 UNL     1      45.441  23.585  35.135  1.00  0.00     0.035 C 
BRANCH  20  24
HETATM   24  N5  UNL     1      48.405  21.751  33.499  1.00  0.00    -0.360 N 
HETATM   25  C14 UNL     1      49.191  21.163  32.718  1.00  0.00     0.197 C 
HETATM   26  N6  UNL     1      48.719  20.228  31.770  1.00  0.00    -0.067 NA
HETATM   27  N7  UNL     1      50.578  21.428  32.775  1.00  0.00    -0.067 NA
ATOM     28  H5  UNL     1      48.843  22.407  34.146  1.00  0.00     0.162 HD
ENDBRANCH  20  24
BRANCH  21  29
HETATM   29  N8  UNL     1      47.105  23.246  31.810  1.00  0.00    -0.358 N 
HETATM   30  C16 UNL     1      46.661  23.180  30.594  1.00  0.00     0.197 C 
HETATM   31  N9  UNL     1      47.465  23.647  29.531  1.00  0.00    -0.067 NA
HETATM   32  N10 UNL     1      45.367  22.632  30.385  1.00  0.00    -0.067 NA
ATOM     33  H8  UNL     1      48.032  23.636  31.978  1.00  0.00     0.162 HD
ENDBRANCH  21  29
BRANCH  22  34
HETATM   34  N11 UNL     1      47.179  24.863  33.909  1.00  0.00    -0.360 N 
HETATM   35  C18 UNL     1      48.244  25.001  34.515  1.00  0.00     0.197 C 
HETATM   36  N12 UNL     1      49.036  26.165  34.173  1.00  0.00    -0.067 NA
HETATM   37  N13 UNL     1      48.832  24.182  35.511  1.00  0.00    -0.067 NA
ATOM     38  H11 UNL     1      47.048  25.629  33.248  1.00  0.00     0.162 HD
ENDBRANCH  22  34
ENDBRANCH   3  18
TORSDOF 7
ENDMDL
MODEL 4
REMARK VINA RESULT: -8.610537159      3.927      9.417
REMARK  7 active torsions:
REMARK  status: ('A' for Active; 'I' for Inactive)
REMARK    1  A    between atoms: C3_3  and  N1_4 
REMARK    2  A    between atoms: C3_3  and  C11_18 
REMARK    3  A    between atoms: N1_4  and  C4_6 
REMARK    4  A    between atoms: C4_6  and  C5_7 
REMARK       I    between atoms: C5_7  and  N2_9 
REMARK       I    between atoms: C6_11  and  N4_13 
REMARK    5  A    between atoms: C13_20  and  N5_21 
REMARK    6  A    between atoms: C15_26  and  N8_27 
REMARK    7  A    between atoms: C17_32  and  N11_33 
ROOT
HETATM    1  C1  UNL     1      42.822  25.459  37.547  1.00  0.00     0.014 C 
HETATM    2  C2  UNL     1      43.908  25.057  37.899  1.00  0.00    -0.092 C 
HETATM    3  C3  UNL     1      45.167  24.524  38.319  1.00  0.00     0.164 C 
ENDROOT
BRANCH   3   4
HETATM    4  N1  UNL     1      46.343  25.259  38.183  1.00  0.00    -0.379 N 
ATOM      5  H1  UNL     1      46.819  25.285  37.282  1.00  0.00     0.160 HD
BRANCH   4   6
HETATM    6  C4  UNL     1      46.872  25.953  39.254  1.00  0.00     0.159 C 
BRANCH   6   7
HETATM    7  C5  UNL     1      46.989  27.398  39.271  1.00  0.00     0.262 C 
HETATM    8  O1  UNL     1      47.666  27.991  38.362  1.00  0.00    -0.267 OA
HETATM    9  N2  UNL     1      46.383  28.175  40.253  1.00  0.00    -0.296 N 
HETATM   10  C6  UNL     1      45.709  27.905  41.280  1.00  0.00     0.193 C 
ATOM     11  H2  UNL     1      46.513  29.177  40.111  1.00  0.00     0.171 HD
HETATM   12  N3  UNL     1      45.416  26.575  41.659  1.00  0.00    -0.063 NA
HETATM   13  N4  UNL     1      45.218  29.006  42.096  1.00  0.00    -0.355 N 
HETATM   14  C7  UNL     1      44.610  30.176  41.502  1.00  0.00     0.125 C 
HETATM   15  C10 UNL     1      45.228  29.145  43.526  1.00  0.00     0.125 C 
HETATM   16  C8  UNL     1      44.116  31.019  42.627  1.00  0.00     0.021 C 
HETATM   17  C9  UNL     1      44.063  30.077  43.813  1.00  0.00     0.021 C 
ENDBRANCH   6   7
ENDBRANCH   4   6
ENDBRANCH   3   4
BRANCH   3  18
HETATM   18  C11 UNL     1      45.328  23.087  37.779  1.00  0.00     0.024 C 
HETATM   19  C12 UNL     1      46.767  22.704  37.611  1.00  0.00     0.035 C 
HETATM   20  C13 UNL     1      46.803  21.228  37.292  1.00  0.00     0.109 C 
HETATM   21  C15 UNL     1      45.502  20.691  36.814  1.00  0.00     0.129 C 
HETATM   22  C17 UNL     1      44.769  21.625  35.860  1.00  0.00     0.109 C 
HETATM   23  C19 UNL     1      44.677  23.016  36.411  1.00  0.00     0.035 C 
BRANCH  20  24
HETATM   24  N5  UNL     1      47.853  20.840  36.405  1.00  0.00    -0.360 N 
HETATM   25  C14 UNL     1      48.753  19.981  36.563  1.00  0.00     0.197 C 
HETATM   26  N6  UNL     1      48.843  19.226  37.754  1.00  0.00    -0.067 NA
HETATM   27  N7  UNL     1      49.704  19.753  35.543  1.00  0.00    -0.067 NA
ATOM     28  H5  UNL     1      47.873  21.333  35.512  1.00  0.00     0.162 HD
ENDBRANCH  20  24
BRANCH  21  29
HETATM   29  N8  UNL     1      45.681  19.432  36.121  1.00  0.00    -0.358 N 
HETATM   30  C16 UNL     1      45.481  18.293  36.705  1.00  0.00     0.197 C 
HETATM   31  N9  UNL     1      45.670  17.094  35.982  1.00  0.00    -0.067 NA
HETATM   32  N10 UNL     1      45.075  18.304  38.067  1.00  0.00    -0.067 NA
ATOM     33  H8  UNL     1      45.974  19.443  35.144  1.00  0.00     0.162 HD
ENDBRANCH  21  29
BRANCH  22  34
HETATM   34  N11 UNL     1      45.131  21.473  34.521  1.00  0.00    -0.360 N 
HETATM   35  C18 UNL     1      45.995  21.864  33.733  1.00  0.00     0.197 C 
HETATM   36  N12 UNL     1      45.900  21.369  32.374  1.00  0.00    -0.067 NA
HETATM   37  N13 UNL     1      47.091  22.736  33.948  1.00  0.00    -0.067 NA
ATOM     38  H11 UNL     1      44.482  20.844  34.049  1.00  0.00     0.162 HD
ENDBRANCH  22  34
ENDBRANCH   3  18
TORSDOF 7
ENDMDL
MODEL 5
REMARK VINA RESULT: -8.597015676      3.217      9.452
REMARK  7 active torsions:
REMARK  status: ('A' for Active; 'I' for Inactive)
REMARK    1  A    between atoms: C3_3  and  N1_4 
REMARK    2  A    between atoms: C3_3  and  C11_18 
REMARK    3  A    between atoms: N1_4  and  C4_6 
REMARK    4  A    between atoms: C4_6  and  C5_7 
REMARK       I    between atoms: C5_7  and  N2_9 
REMARK       I    between atoms: C6_11  and  N4_13 
REMARK    5  A    between atoms: C13_20  and  N5_21 
REMARK    6  A    between atoms: C15_26  and  N8_27 
REMARK    7  A    between atoms: C17_32  and  N11_33 
ROOT
HETATM    1  C1  UNL     1      42.720  25.516  37.441  1.00  0.00     0.014 C 
HETATM    2  C2  UNL     1      43.770  25.105  37.880  1.00  0.00    -0.092 C 
HETATM    3  C3  UNL     1      44.986  24.562  38.400  1.00  0.00     0.164 C 
ENDROOT
BRANCH   3   4
HETATM    4  N1  UNL     1      46.169  25.297  38.387  1.00  0.00    -0.379 N 
ATOM      5  H1  UNL     1      46.795  25.228  37.584  1.00  0.00     0.160 HD
BRANCH   4   6
HETATM    6  C4  UNL     1      46.506  26.117  39.445  1.00  0.00     0.159 C 
BRANCH   6   7
HETATM    7  C5  UNL     1      45.516  26.714  40.321  1.00  0.00     0.262 C 
HETATM    8  O1  UNL     1      45.288  26.196  41.469  1.00  0.00    -0.267 OA
HETATM    9  N2  UNL     1      44.795  27.846  39.954  1.00  0.00    -0.296 N 
HETATM   10  C6  UNL     1      44.749  28.546  38.911  1.00  0.00     0.193 C 
ATOM     11  H2  UNL     1      44.169  28.179  40.688  1.00  0.00     0.171 HD
HETATM   12  N3  UNL     1      45.538  28.253  37.775  1.00  0.00    -0.063 NA
HETATM   13  N4  UNL     1      43.854  29.693  38.884  1.00  0.00    -0.355 N 
HETATM   14  C7  UNL     1      43.767  30.611  39.997  1.00  0.00     0.125 C 
HETATM   15  C10 UNL     1      42.960  30.117  37.842  1.00  0.00     0.125 C 
HETATM   16  C8  UNL     1      42.864  31.717  39.570  1.00  0.00     0.021 C 
HETATM   17  C9  UNL     1      42.826  31.615  38.059  1.00  0.00     0.021 C 
ENDBRANCH   6   7
ENDBRANCH   4   6
ENDBRANCH   3   4
BRANCH   3  18
HETATM   18  C11 UNL     1      45.195  23.136  37.847  1.00  0.00     0.024 C 
HETATM   19  C12 UNL     1      46.645  22.810  37.657  1.00  0.00     0.035 C 
HETATM   20  C13 UNL     1      46.734  21.338  37.326  1.00  0.00     0.109 C 
HETATM   21  C15 UNL     1      45.448  20.756  36.861  1.00  0.00     0.129 C 
HETATM   22  C17 UNL     1      44.667  21.668  35.924  1.00  0.00     0.109 C 
HETATM   23  C19 UNL     1      44.529  23.050  36.486  1.00  0.00     0.035 C 
BRANCH  20  24
HETATM   24  N5  UNL     1      47.786  20.998  36.423  1.00  0.00    -0.360 N 
HETATM   25  C14 UNL     1      48.694  20.140  36.543  1.00  0.00     0.197 C 
HETATM   26  N6  UNL     1      48.789  19.334  37.699  1.00  0.00    -0.067 NA
HETATM   27  N7  UNL     1      49.645  19.964  35.513  1.00  0.00    -0.067 NA
ATOM     28  H5  UNL     1      47.801  21.530  35.552  1.00  0.00     0.162 HD
ENDBRANCH  20  24
BRANCH  21  29
HETATM   29  N8  UNL     1      45.667  19.510  36.155  1.00  0.00    -0.358 N 
HETATM   30  C16 UNL     1      45.464  18.360  36.716  1.00  0.00     0.197 C 
HETATM   31  N9  UNL     1      45.692  17.175  35.982  1.00  0.00    -0.067 NA
HETATM   32  N10 UNL     1      45.014  18.344  38.064  1.00  0.00    -0.067 NA
ATOM     33  H8  UNL     1      45.990  19.539  35.188  1.00  0.00     0.162 HD
ENDBRANCH  21  29
BRANCH  22  34
HETATM   34  N11 UNL     1      45.017  21.540  34.579  1.00  0.00    -0.360 N 
HETATM   35  C18 UNL     1      45.850  21.976  33.781  1.00  0.00     0.197 C 
HETATM   36  N12 UNL     1      45.761  21.483  32.421  1.00  0.00    -0.067 NA
HETATM   37  N13 UNL     1      46.907  22.897  33.987  1.00  0.00    -0.067 NA
ATOM     38  H11 UNL     1      44.392  20.883  34.112  1.00  0.00     0.162 HD
ENDBRANCH  22  34
ENDBRANCH   3  18
TORSDOF 7
ENDMDL
