MODEL 1
REMARK VINA RESULT: -5.550528666      0.000      0.000
REMARK  4 active torsions:
REMARK  status: ('A' for Active; 'I' for Inactive)
REMARK    1  A    between atoms: N1_1  and  N2_4 
REMARK       I    between atoms: N2_4  and  C1_6 
REMARK    2  A    between atoms: C1_6  and  C2_8 
REMARK    3  A    between atoms: C4_10  and  C5_11 
REMARK       I    between atoms: C5_11  and  N3_13 
REMARK    4  A    between atoms: N3_13  and  N4_14 
ROOT
HETATM    1  C2  UNL     1      51.511  53.052  67.044  1.00  0.00     0.105 A 
HETATM    2  C3  UNL     1      50.727  54.115  67.403  1.00  0.00     0.072 A 
HETATM    3  C4  UNL     1      50.684  55.237  66.609  1.00  0.00     0.120 A 
HETATM    4  N5  UNL     1      51.417  55.272  65.487  1.00  0.00    -0.347 N 
ATOM      5  H5  UNL     1      51.387  56.102  64.896  1.00  0.00     0.167 HD
HETATM    6  C6  UNL     1      52.192  54.234  65.127  1.00  0.00     0.181 A 
HETATM    7  N6  UNL     1      52.224  53.140  65.912  1.00  0.00    -0.348 N 
ATOM      8  H6  UNL     1      52.810  52.352  65.636  1.00  0.00     0.167 HD
ENDROOT
BRANCH   1   9
HETATM    9  C1  UNL     1      51.599  51.875  67.885  1.00  0.00     0.286 C 
HETATM   10  N2  UNL     1      50.630  51.629  68.874  1.00  0.00    -0.271 N 
ATOM     11  H2  UNL     1      49.856  52.279  69.012  1.00  0.00     0.189 HD
HETATM   12  O1  UNL     1      52.550  51.079  67.718  1.00  0.00    -0.264 OA
BRANCH  10  13
HETATM   13  N1  UNL     1      50.745  50.472  69.673  1.00  0.00    -0.342 N 
ATOM     14  H12 UNL     1      51.336  49.703  69.360  1.00  0.00     0.176 HD
ATOM     15  H11 UNL     1      50.232  50.425  70.555  1.00  0.00     0.176 HD
ENDBRANCH  10  13
ENDBRANCH   1   9
BRANCH   3  16
HETATM   16  C5  UNL     1      49.814  56.385  67.015  1.00  0.00     0.361 C 
HETATM   17  O2  UNL     1      50.328  57.503  66.913  1.00  0.00    -0.247 OA
HETATM   18  N3  UNL     1      48.528  56.053  67.456  1.00  0.00    -0.287 NA
BRANCH  18  19
HETATM   19  N4  UNL     1      47.370  55.755  67.853  1.00  0.00    -0.276 N 
ATOM     20  H42 UNL     1      48.281  56.013  67.471  1.00  0.00     0.191 HD
ATOM     21  H41 UNL     1      46.433  55.515  68.175  1.00  0.00     0.191 HD
ENDBRANCH  18  19
ENDBRANCH   3  16
TORSDOF 4
ENDMDL
MODEL 2
REMARK VINA RESULT: -5.494917702      1.344      1.501
REMARK  4 active torsions:
REMARK  status: ('A' for Active; 'I' for Inactive)
REMARK    1  A    between atoms: N1_1  and  N2_4 
REMARK       I    between atoms: N2_4  and  C1_6 
REMARK    2  A    between atoms: C1_6  and  C2_8 
REMARK    3  A    between atoms: C4_10  and  C5_11 
REMARK       I    between atoms: C5_11  and  N3_13 
REMARK    4  A    between atoms: N3_13  and  N4_14 
ROOT
HETATM    1  C2  UNL     1      51.405  52.598  67.463  1.00  0.00     0.105 A 
HETATM    2  C3  UNL     1      50.493  53.554  67.822  1.00  0.00     0.072 A 
HETATM    3  C4  UNL     1      50.345  54.685  67.055  1.00  0.00     0.120 A 
HETATM    4  N5  UNL     1      51.101  54.835  65.959  1.00  0.00    -0.347 N 
ATOM      5  H5  UNL     1      50.993  55.673  65.387  1.00  0.00     0.167 HD
HETATM    6  C6  UNL     1      52.000  53.904  65.598  1.00  0.00     0.181 A 
HETATM    7  N6  UNL     1      52.135  52.799  66.357  1.00  0.00    -0.348 N 
ATOM      8  H6  UNL     1      52.816  52.091  66.080  1.00  0.00     0.167 HD
ENDROOT
BRANCH   1   9
HETATM    9  C1  UNL     1      51.603  51.416  68.276  1.00  0.00     0.286 C 
HETATM   10  N2  UNL     1      50.683  51.079  69.285  1.00  0.00    -0.271 N 
ATOM     11  H2  UNL     1      49.866  51.666  69.456  1.00  0.00     0.189 HD
HETATM   12  O1  UNL     1      52.606  50.697  68.069  1.00  0.00    -0.264 OA
BRANCH  10  13
HETATM   13  N1  UNL     1      50.905  49.920  70.057  1.00  0.00    -0.342 N 
ATOM     14  H12 UNL     1      51.155  49.047  69.592  1.00  0.00     0.176 HD
ATOM     15  H11 UNL     1      50.813  49.974  71.072  1.00  0.00     0.176 HD
ENDBRANCH  10  13
ENDBRANCH   1   9
BRANCH   3  16
HETATM   16  C5  UNL     1      49.337  55.714  67.461  1.00  0.00     0.361 C 
HETATM   17  O2  UNL     1      48.156  55.368  67.364  1.00  0.00    -0.247 OA
HETATM   18  N3  UNL     1      49.854  56.938  67.902  1.00  0.00    -0.287 NA
BRANCH  18  19
HETATM   19  N4  UNL     1      50.318  58.039  68.300  1.00  0.00    -0.276 N 
ATOM     20  H42 UNL     1      49.903  57.146  68.034  1.00  0.00     0.191 HD
ATOM     21  H41 UNL     1      50.694  58.931  68.621  1.00  0.00     0.191 HD
ENDBRANCH  18  19
ENDBRANCH   3  16
TORSDOF 4
ENDMDL
MODEL 3
REMARK VINA RESULT: -5.439261306      1.062      1.062
REMARK  4 active torsions:
REMARK  status: ('A' for Active; 'I' for Inactive)
REMARK    1  A    between atoms: N1_1  and  N2_4 
REMARK       I    between atoms: N2_4  and  C1_6 
REMARK    2  A    between atoms: C1_6  and  C2_8 
REMARK    3  A    between atoms: C4_10  and  C5_11 
REMARK       I    between atoms: C5_11  and  N3_13 
REMARK    4  A    between atoms: N3_13  and  N4_14 
ROOT
HETATM    1  C2  UNL     1      51.480  53.048  67.081  1.00  0.00     0.105 A 
HETATM    2  C3  UNL     1      50.699  54.118  67.427  1.00  0.00     0.072 A 
HETATM    3  C4  UNL     1      50.670  55.237  66.629  1.00  0.00     0.120 A 
HETATM    4  N5  UNL     1      51.413  55.262  65.514  1.00  0.00    -0.347 N 
ATOM      5  H5  UNL     1      51.393  56.091  64.918  1.00  0.00     0.167 HD
HETATM    6  C6  UNL     1      52.185  54.219  65.165  1.00  0.00     0.181 A 
HETATM    7  N6  UNL     1      52.203  53.128  65.955  1.00  0.00    -0.348 N 
ATOM      8  H6  UNL     1      52.787  52.336  65.687  1.00  0.00     0.167 HD
ENDROOT
BRANCH   1   9
HETATM    9  C1  UNL     1      51.553  51.875  67.926  1.00  0.00     0.286 C 
HETATM   10  N2  UNL     1      52.613  50.961  67.791  1.00  0.00    -0.271 N 
ATOM     11  H2  UNL     1      53.342  51.115  67.094  1.00  0.00     0.189 HD
HETATM   12  O1  UNL     1      50.659  51.685  68.781  1.00  0.00    -0.264 OA
BRANCH  10  13
HETATM   13  N1  UNL     1      52.656  49.830  68.633  1.00  0.00    -0.342 N 
ATOM     14  H12 UNL     1      51.995  49.755  69.407  1.00  0.00     0.176 HD
ATOM     15  H11 UNL     1      53.349  49.104  68.454  1.00  0.00     0.176 HD
ENDBRANCH  10  13
ENDBRANCH   1   9
BRANCH   3  16
HETATM   16  C5  UNL     1      49.803  56.391  67.022  1.00  0.00     0.361 C 
HETATM   17  O2  UNL     1      50.324  57.506  66.918  1.00  0.00    -0.247 OA
HETATM   18  N3  UNL     1      48.511  56.068  67.455  1.00  0.00    -0.287 NA
BRANCH  18  19
HETATM   19  N4  UNL     1      47.349  55.779  67.844  1.00  0.00    -0.276 N 
ATOM     20  H42 UNL     1      48.301  56.044  67.589  1.00  0.00     0.191 HD
ATOM     21  H41 UNL     1      46.407  55.544  68.158  1.00  0.00     0.191 HD
ENDBRANCH  18  19
ENDBRANCH   3  16
TORSDOF 4
ENDMDL
MODEL 4
REMARK VINA RESULT: -5.357623800      2.028      3.104
REMARK  4 active torsions:
REMARK  status: ('A' for Active; 'I' for Inactive)
REMARK    1  A    between atoms: N1_1  and  N2_4 
REMARK       I    between atoms: N2_4  and  C1_6 
REMARK    2  A    between atoms: C1_6  and  C2_8 
REMARK    3  A    between atoms: C4_10  and  C5_11 
REMARK       I    between atoms: C5_11  and  N3_13 
REMARK    4  A    between atoms: N3_13  and  N4_14 
ROOT
HETATM    1  C2  UNL     1      50.911  53.980  67.553  1.00  0.00     0.105 A 
HETATM    2  C3  UNL     1      51.397  55.250  67.395  1.00  0.00     0.072 A 
HETATM    3  C4  UNL     1      50.616  56.331  67.727  1.00  0.00     0.120 A 
HETATM    4  N5  UNL     1      49.381  56.123  68.206  1.00  0.00    -0.347 N 
ATOM      5  H5  UNL     1      48.800  56.924  68.455  1.00  0.00     0.167 HD
HETATM    6  C6  UNL     1      48.894  54.881  68.363  1.00  0.00     0.181 A 
HETATM    7  N6  UNL     1      49.669  53.829  68.036  1.00  0.00    -0.348 N 
ATOM      8  H6  UNL     1      49.298  52.887  68.158  1.00  0.00     0.167 HD
ENDROOT
BRANCH   1   9
HETATM    9  C1  UNL     1      51.702  52.827  67.175  1.00  0.00     0.286 C 
HETATM   10  N2  UNL     1      52.622  52.909  66.114  1.00  0.00    -0.271 N 
ATOM     11  H2  UNL     1      52.741  53.781  65.599  1.00  0.00     0.189 HD
HETATM   12  O1  UNL     1      51.556  51.756  67.805  1.00  0.00    -0.264 OA
BRANCH  10  13
HETATM   13  N1  UNL     1      53.379  51.768  65.774  1.00  0.00    -0.342 N 
ATOM     14  H12 UNL     1      54.359  51.714  66.052  1.00  0.00     0.176 HD
ATOM     15  H11 UNL     1      52.932  51.014  65.252  1.00  0.00     0.176 HD
ENDBRANCH  10  13
ENDBRANCH   1   9
BRANCH   3  16
HETATM   16  C5  UNL     1      51.170  57.711  67.554  1.00  0.00     0.361 C 
HETATM   17  O2  UNL     1      52.012  57.836  66.660  1.00  0.00    -0.247 OA
HETATM   18  N3  UNL     1      50.664  58.687  68.421  1.00  0.00    -0.287 NA
BRANCH  18  19
HETATM   19  N4  UNL     1      50.210  59.566  69.199  1.00  0.00    -0.276 N 
ATOM     20  H42 UNL     1      50.624  58.900  68.547  1.00  0.00     0.191 HD
ATOM     21  H41 UNL     1      49.842  60.278  69.831  1.00  0.00     0.191 HD
ENDBRANCH  18  19
ENDBRANCH   3  16
TORSDOF 4
ENDMDL
MODEL 5
REMARK VINA RESULT: -5.340637951      1.719      1.844
REMARK  4 active torsions:
REMARK  status: ('A' for Active; 'I' for Inactive)
REMARK    1  A    between atoms: N1_1  and  N2_4 
REMARK       I    between atoms: N2_4  and  C1_6 
REMARK    2  A    between atoms: C1_6  and  C2_8 
REMARK    3  A    between atoms: C4_10  and  C5_11 
REMARK       I    between atoms: C5_11  and  N3_13 
REMARK    4  A    between atoms: N3_13  and  N4_14 
ROOT
HETATM    1  C2  UNL     1      51.426  52.643  67.406  1.00  0.00     0.105 A 
HETATM    2  C3  UNL     1      50.515  53.593  67.785  1.00  0.00     0.072 A 
HETATM    3  C4  UNL     1      50.349  54.728  67.027  1.00  0.00     0.120 A 
HETATM    4  N5  UNL     1      51.089  54.888  65.920  1.00  0.00    -0.347 N 
ATOM      5  H5  UNL     1      50.967  55.729  65.355  1.00  0.00     0.167 HD
HETATM    6  C6  UNL     1      51.987  53.964  65.541  1.00  0.00     0.181 A 
HETATM    7  N6  UNL     1      52.139  52.855  66.291  1.00  0.00    -0.348 N 
ATOM      8  H6  UNL     1      52.820  52.153  66.000  1.00  0.00     0.167 HD
ENDROOT
BRANCH   1   9
HETATM    9  C1  UNL     1      51.643  51.458  68.210  1.00  0.00     0.286 C 
HETATM   10  N2  UNL     1      52.763  50.638  67.986  1.00  0.00    -0.271 N 
ATOM     11  H2  UNL     1      53.434  50.868  67.254  1.00  0.00     0.189 HD
HETATM   12  O1  UNL     1      50.819  51.173  69.107  1.00  0.00    -0.264 OA
BRANCH  10  13
HETATM   13  N1  UNL     1      52.946  49.492  68.789  1.00  0.00    -0.342 N 
ATOM     14  H12 UNL     1      53.752  48.889  68.627  1.00  0.00     0.176 HD
ATOM     15  H11 UNL     1      52.265  49.285  69.521  1.00  0.00     0.176 HD
ENDBRANCH  10  13
ENDBRANCH   1   9
BRANCH   3  16
HETATM   16  C5  UNL     1      49.342  55.749  67.454  1.00  0.00     0.361 C 
HETATM   17  O2  UNL     1      48.161  55.401  67.359  1.00  0.00    -0.247 OA
HETATM   18  N3  UNL     1      49.859  56.967  67.909  1.00  0.00    -0.287 NA
BRANCH  18  19
HETATM   19  N4  UNL     1      50.323  58.063  68.320  1.00  0.00    -0.276 N 
ATOM     20  H42 UNL     1      49.885  57.199  68.002  1.00  0.00     0.191 HD
ATOM     21  H41 UNL     1      50.700  58.951  68.652  1.00  0.00     0.191 HD
ENDBRANCH  18  19
ENDBRANCH   3  16
TORSDOF 4
ENDMDL
