MODEL 1
REMARK VINA RESULT: -6.244147131      0.000      0.000
REMARK  17 active torsions:
REMARK  status: ('A' for Active; 'I' for Inactive)
REMARK    1  A    between atoms: C3_4  and  O2_5 
REMARK    2  A    between atoms: O2_5  and  C4_6 
REMARK    3  A    between atoms: C5_7  and  N1_8 
REMARK    4  A    between atoms: C7_13  and  N2_14 
REMARK    5  A    between atoms: C8_18  and  O3_19 
REMARK    6  A    between atoms: O3_19  and  C9_20 
REMARK    7  A    between atoms: C10_22  and  C11_23 
REMARK    8  A    between atoms: C11_23  and  N3_24 
REMARK    9  A    between atoms: C12_28  and  O5_29 
REMARK   10  A    between atoms: C13_31  and  O6_32 
REMARK   11  A    between atoms: C14_34  and  N4_35 
REMARK   12  A    between atoms: C15_39  and  O7_40 
REMARK   13  A    between atoms: C16_42  and  O8_43 
REMARK   14  A    between atoms: O8_43  and  C17_44 
REMARK   15  A    between atoms: C19_49  and  C20_50 
REMARK   16  A    between atoms: C20_50  and  N6_51 
REMARK   17  A    between atoms: C21_56  and  O10_57 
ROOT
HETATM    1  C4  UNL     1     -34.506 -16.899  -0.235  1.00  0.00     0.186 C 
HETATM    2  C5  UNL     1     -35.597 -17.572   0.522  1.00  0.00     0.217 C 
HETATM    3  C6  UNL     1     -35.565 -17.236   1.983  1.00  0.00     0.071 C 
HETATM    4  C7  UNL     1     -35.599 -15.770   2.281  1.00  0.00     0.217 C 
HETATM    5  C8  UNL     1     -35.082 -14.895   1.191  1.00  0.00     0.186 C 
HETATM    6  C15 UNL     1     -34.065 -15.575   0.306  1.00  0.00     0.180 C 
ENDROOT
BRANCH   1   7
HETATM    7  O2  UNL     1     -33.442 -17.759  -0.366  1.00  0.00    -0.349 OA
BRANCH   7   8
HETATM    8  C3  UNL     1     -33.635 -18.997   0.194  1.00  0.00     0.292 C 
HETATM    9  O1  UNL     1     -33.339 -19.939  -0.822  1.00  0.00    -0.351 OA
HETATM   10  C2  UNL     1     -31.985 -19.658  -1.035  1.00  0.00     0.152 C 
HETATM   11  C1  UNL     1     -31.286 -20.771  -1.783  1.00  0.00     0.042 C 
HETATM   12  C21 UNL     1     -31.356 -19.516   0.337  1.00  0.00     0.180 C 
HETATM   13  C16 UNL     1     -32.585 -19.385   1.214  1.00  0.00     0.212 C 
BRANCH  12  14
HETATM   14  O10 UNL     1     -30.537 -18.407   0.419  1.00  0.00    -0.390 OA
ATOM     15  H10 UNL     1     -29.661 -18.632   0.708  1.00  0.00     0.210 HD
ENDBRANCH  12  14
BRANCH  13  16
HETATM   16  O8  UNL     1     -32.441 -18.489   2.240  1.00  0.00    -0.326 OA
BRANCH  16  17
HETATM   17  C17 UNL     1     -32.829 -19.136   3.428  1.00  0.00     0.470 C 
HETATM   18  N5  UNL     1     -32.552 -20.548   3.229  1.00  0.00    -0.022 N 
HETATM   19  C18 UNL     1     -32.554 -21.052   4.603  1.00  0.00     0.272 C 
ATOM     20  H52 UNL     1     -33.187 -21.027   2.590  1.00  0.00     0.283 HD
ATOM     21  H51 UNL     1     -31.708 -20.752   2.694  1.00  0.00     0.283 HD
HETATM   22  C19 UNL     1     -31.911 -19.876   5.329  1.00  0.00     0.177 C 
HETATM   23  O9  UNL     1     -32.041 -18.784   4.494  1.00  0.00    -0.330 OA
BRANCH  22  24
HETATM   24  C20 UNL     1     -30.418 -20.194   5.405  1.00  0.00     0.263 C 
BRANCH  24  25
HETATM   25  N6  UNL     1     -29.660 -19.076   4.874  1.00  0.00    -0.077 N 
ATOM     26  H63 UNL     1     -29.820 -18.941   3.875  1.00  0.00     0.274 HD
ATOM     27  H62 UNL     1     -30.016 -18.178   5.201  1.00  0.00     0.274 HD
ATOM     28  H61 UNL     1     -28.671 -19.203   5.092  1.00  0.00     0.274 HD
ENDBRANCH  24  25
ENDBRANCH  22  24
ENDBRANCH  16  17
ENDBRANCH  13  16
ENDBRANCH   7   8
ENDBRANCH   1   7
BRANCH   2  29
HETATM   29  N1  UNL     1     -36.917 -17.344  -0.062  1.00  0.00    -0.072 N 
ATOM     30  H13 UNL     1     -37.507 -16.804   0.570  1.00  0.00     0.274 HD
ATOM     31  H12 UNL     1     -36.862 -16.686  -0.840  1.00  0.00     0.274 HD
ATOM     32  H11 UNL     1     -37.379 -18.207  -0.345  1.00  0.00     0.274 HD
ENDBRANCH   2  29
BRANCH   6  33
HETATM   33  O7  UNL     1     -32.861 -15.779   1.006  1.00  0.00    -0.390 OA
ATOM     34  H7  UNL     1     -33.034 -15.630   1.929  1.00  0.00     0.210 HD
ENDBRANCH   6  33
BRANCH   5  35
HETATM   35  O3  UNL     1     -36.122 -14.477   0.411  1.00  0.00    -0.349 OA
BRANCH  35  36
HETATM   36  C9  UNL     1     -36.250 -13.165   0.148  1.00  0.00     0.294 C 
HETATM   37  O4  UNL     1     -35.476 -12.432   1.048  1.00  0.00    -0.349 OA
HETATM   38  C10 UNL     1     -35.234 -11.145   0.653  1.00  0.00     0.181 C 
HETATM   39  C12 UNL     1     -36.408 -10.385   0.164  1.00  0.00     0.179 C 
HETATM   40  C13 UNL     1     -37.491 -11.191  -0.453  1.00  0.00     0.184 C 
HETATM   41  C14 UNL     1     -37.623 -12.576   0.196  1.00  0.00     0.269 C 
BRANCH  38  42
HETATM   42  C11 UNL     1     -34.682 -10.404   1.880  1.00  0.00     0.264 C 
BRANCH  42  43
HETATM   43  N3  UNL     1     -33.832  -9.300   1.491  1.00  0.00    -0.077 N 
ATOM     44  H33 UNL     1     -32.877  -9.609   1.310  1.00  0.00     0.274 HD
ATOM     45  H32 UNL     1     -34.067  -8.959   0.559  1.00  0.00     0.274 HD
ATOM     46  H31 UNL     1     -33.859  -8.549   2.181  1.00  0.00     0.274 HD
ENDBRANCH  42  43
ENDBRANCH  38  42
BRANCH  39  47
HETATM   47  O5  UNL     1     -35.947  -9.434  -0.773  1.00  0.00    -0.390 OA
ATOM     48  H5  UNL     1     -36.446  -8.635  -0.646  1.00  0.00     0.210 HD
ENDBRANCH  39  47
BRANCH  40  49
HETATM   49  O6  UNL     1     -38.731 -10.587  -0.414  1.00  0.00    -0.391 OA
ATOM     50  H6  UNL     1     -38.920 -10.042  -1.170  1.00  0.00     0.210 HD
ENDBRANCH  40  49
BRANCH  41  51
HETATM   51  N4  UNL     1     -37.981 -12.345   1.567  1.00  0.00    -0.068 N 
ATOM     52  H43 UNL     1     -38.373 -11.416   1.715  1.00  0.00     0.275 HD
ATOM     53  H42 UNL     1     -38.795 -12.890   1.854  1.00  0.00     0.275 HD
ATOM     54  H41 UNL     1     -37.167 -12.523   2.155  1.00  0.00     0.275 HD
ENDBRANCH  41  51
ENDBRANCH  35  36
ENDBRANCH   5  35
BRANCH   4  55
HETATM   55  N2  UNL     1     -36.989 -15.404   2.522  1.00  0.00    -0.072 N 
ATOM     56  H23 UNL     1     -37.609 -15.679   1.761  1.00  0.00     0.274 HD
ATOM     57  H22 UNL     1     -37.425 -15.961   3.257  1.00  0.00     0.274 HD
ATOM     58  H21 UNL     1     -37.013 -14.403   2.714  1.00  0.00     0.274 HD
ENDBRANCH   4  55
TORSDOF 17
ENDMDL
MODEL 2
REMARK VINA RESULT: -6.172367120      1.023      1.287
REMARK  17 active torsions:
REMARK  status: ('A' for Active; 'I' for Inactive)
REMARK    1  A    between atoms: C3_4  and  O2_5 
REMARK    2  A    between atoms: O2_5  and  C4_6 
REMARK    3  A    between atoms: C5_7  and  N1_8 
REMARK    4  A    between atoms: C7_13  and  N2_14 
REMARK    5  A    between atoms: C8_18  and  O3_19 
REMARK    6  A    between atoms: O3_19  and  C9_20 
REMARK    7  A    between atoms: C10_22  and  C11_23 
REMARK    8  A    between atoms: C11_23  and  N3_24 
REMARK    9  A    between atoms: C12_28  and  O5_29 
REMARK   10  A    between atoms: C13_31  and  O6_32 
REMARK   11  A    between atoms: C14_34  and  N4_35 
REMARK   12  A    between atoms: C15_39  and  O7_40 
REMARK   13  A    between atoms: C16_42  and  O8_43 
REMARK   14  A    between atoms: O8_43  and  C17_44 
REMARK   15  A    between atoms: C19_49  and  C20_50 
REMARK   16  A    between atoms: C20_50  and  N6_51 
REMARK   17  A    between atoms: C21_56  and  O10_57 
ROOT
HETATM    1  C4  UNL     1     -34.218 -17.192   0.008  1.00  0.00     0.186 C 
HETATM    2  C5  UNL     1     -35.221 -17.801   0.924  1.00  0.00     0.217 C 
HETATM    3  C6  UNL     1     -35.070 -17.315   2.334  1.00  0.00     0.071 C 
HETATM    4  C7  UNL     1     -35.117 -15.826   2.483  1.00  0.00     0.217 C 
HETATM    5  C8  UNL     1     -34.720 -15.061   1.267  1.00  0.00     0.186 C 
HETATM    6  C15 UNL     1     -33.766 -15.811   0.370  1.00  0.00     0.180 C 
ENDROOT
BRANCH   1   7
HETATM    7  O2  UNL     1     -33.147 -18.042  -0.130  1.00  0.00    -0.349 OA
BRANCH   7   8
HETATM    8  C3  UNL     1     -33.402 -19.344   0.222  1.00  0.00     0.292 C 
HETATM    9  O1  UNL     1     -33.130 -20.123  -0.931  1.00  0.00    -0.351 OA
HETATM   10  C2  UNL     1     -31.761 -19.872  -1.083  1.00  0.00     0.152 C 
HETATM   11  C1  UNL     1     -31.099 -20.881  -1.994  1.00  0.00     0.042 C 
HETATM   12  C21 UNL     1     -31.150 -19.982   0.301  1.00  0.00     0.180 C 
HETATM   13  C16 UNL     1     -32.387 -19.939   1.176  1.00  0.00     0.212 C 
BRANCH  12  14
HETATM   14  O10 UNL     1     -30.286 -18.939   0.568  1.00  0.00    -0.390 OA
ATOM     15  H10 UNL     1     -30.747 -18.117   0.689  1.00  0.00     0.210 HD
ENDBRANCH  12  14
BRANCH  13  16
HETATM   16  O8  UNL     1     -32.222 -19.227   2.334  1.00  0.00    -0.326 OA
BRANCH  16  17
HETATM   17  C17 UNL     1     -31.778 -20.123   3.324  1.00  0.00     0.470 C 
HETATM   18  N5  UNL     1     -31.212 -19.307   4.383  1.00  0.00    -0.022 N 
HETATM   19  C18 UNL     1     -31.197 -20.243   5.509  1.00  0.00     0.272 C 
ATOM     20  H52 UNL     1     -30.312 -18.879   4.165  1.00  0.00     0.283 HD
ATOM     21  H51 UNL     1     -31.696 -18.427   4.558  1.00  0.00     0.283 HD
HETATM   22  C19 UNL     1     -32.494 -21.003   5.253  1.00  0.00     0.177 C 
HETATM   23  O9  UNL     1     -32.816 -20.788   3.926  1.00  0.00    -0.330 OA
BRANCH  22  24
HETATM   24  C20 UNL     1     -33.566 -20.299   6.084  1.00  0.00     0.263 C 
BRANCH  24  25
HETATM   25  N6  UNL     1     -33.929 -21.137   7.212  1.00  0.00    -0.077 N 
ATOM     26  H63 UNL     1     -33.208 -21.825   7.430  1.00  0.00     0.274 HD
ATOM     27  H62 UNL     1     -33.912 -20.625   8.094  1.00  0.00     0.274 HD
ATOM     28  H61 UNL     1     -34.836 -21.570   7.034  1.00  0.00     0.274 HD
ENDBRANCH  24  25
ENDBRANCH  22  24
ENDBRANCH  16  17
ENDBRANCH  13  16
ENDBRANCH   7   8
ENDBRANCH   1   7
BRANCH   2  29
HETATM   29  N1  UNL     1     -36.591 -17.658   0.440  1.00  0.00    -0.072 N 
ATOM     30  H13 UNL     1     -37.240 -17.526   1.215  1.00  0.00     0.274 HD
ATOM     31  H12 UNL     1     -36.718 -16.765  -0.037  1.00  0.00     0.274 HD
ATOM     32  H11 UNL     1     -36.885 -18.433  -0.154  1.00  0.00     0.274 HD
ENDBRANCH   2  29
BRANCH   6  33
HETATM   33  O7  UNL     1     -32.501 -15.921   0.976  1.00  0.00    -0.390 OA
ATOM     34  H7  UNL     1     -32.588 -16.503   1.722  1.00  0.00     0.210 HD
ENDBRANCH   6  33
BRANCH   5  35
HETATM   35  O3  UNL     1     -35.835 -14.744   0.545  1.00  0.00    -0.349 OA
BRANCH  35  36
HETATM   36  C9  UNL     1     -36.063 -13.456   0.234  1.00  0.00     0.294 C 
HETATM   37  O4  UNL     1     -35.414 -12.633   1.155  1.00  0.00    -0.349 OA
HETATM   38  C10 UNL     1     -35.263 -11.340   0.734  1.00  0.00     0.181 C 
HETATM   39  C12 UNL     1     -36.468 -10.702   0.153  1.00  0.00     0.179 C 
HETATM   40  C13 UNL     1     -37.434 -11.620  -0.502  1.00  0.00     0.184 C 
HETATM   41  C14 UNL     1     -37.483 -12.994   0.182  1.00  0.00     0.269 C 
BRANCH  38  42
HETATM   42  C11 UNL     1     -34.857 -10.520   1.968  1.00  0.00     0.264 C 
BRANCH  42  43
HETATM   43  N3  UNL     1     -33.997  -9.414   1.606  1.00  0.00    -0.077 N 
ATOM     44  H33 UNL     1     -33.091  -9.740   1.270  1.00  0.00     0.274 HD
ATOM     45  H32 UNL     1     -34.323  -8.951   0.758  1.00  0.00     0.274 HD
ATOM     46  H31 UNL     1     -33.896  -8.754   2.378  1.00  0.00     0.274 HD
ENDBRANCH  42  43
ENDBRANCH  38  42
BRANCH  39  47
HETATM   47  O5  UNL     1     -36.037  -9.738  -0.785  1.00  0.00    -0.390 OA
ATOM     48  H5  UNL     1     -36.809  -9.376  -1.204  1.00  0.00     0.210 HD
ENDBRANCH  39  47
BRANCH  40  49
HETATM   49  O6  UNL     1     -38.724 -11.130  -0.555  1.00  0.00    -0.391 OA
ATOM     50  H6  UNL     1     -39.162 -11.103   0.288  1.00  0.00     0.210 HD
ENDBRANCH  40  49
BRANCH  41  51
HETATM   51  N4  UNL     1     -37.944 -12.761   1.521  1.00  0.00    -0.068 N 
ATOM     52  H43 UNL     1     -37.919 -13.605   2.093  1.00  0.00     0.275 HD
ATOM     53  H42 UNL     1     -37.289 -12.200   2.067  1.00  0.00     0.275 HD
ATOM     54  H41 UNL     1     -38.874 -12.344   1.482  1.00  0.00     0.275 HD
ENDBRANCH  41  51
ENDBRANCH  35  36
ENDBRANCH   5  35
BRANCH   4  55
HETATM   55  N2  UNL     1     -36.489 -15.462   2.808  1.00  0.00    -0.072 N 
ATOM     56  H23 UNL     1     -36.906 -16.071   3.512  1.00  0.00     0.274 HD
ATOM     57  H22 UNL     1     -36.556 -14.588   3.331  1.00  0.00     0.274 HD
ATOM     58  H21 UNL     1     -37.017 -15.444   1.935  1.00  0.00     0.274 HD
ENDBRANCH   4  55
TORSDOF 17
ENDMDL
MODEL 3
REMARK VINA RESULT: -6.143002057      3.825      5.728
REMARK  17 active torsions:
REMARK  status: ('A' for Active; 'I' for Inactive)
REMARK    1  A    between atoms: C3_4  and  O2_5 
REMARK    2  A    between atoms: O2_5  and  C4_6 
REMARK    3  A    between atoms: C5_7  and  N1_8 
REMARK    4  A    between atoms: C7_13  and  N2_14 
REMARK    5  A    between atoms: C8_18  and  O3_19 
REMARK    6  A    between atoms: O3_19  and  C9_20 
REMARK    7  A    between atoms: C10_22  and  C11_23 
REMARK    8  A    between atoms: C11_23  and  N3_24 
REMARK    9  A    between atoms: C12_28  and  O5_29 
REMARK   10  A    between atoms: C13_31  and  O6_32 
REMARK   11  A    between atoms: C14_34  and  N4_35 
REMARK   12  A    between atoms: C15_39  and  O7_40 
REMARK   13  A    between atoms: C16_42  and  O8_43 
REMARK   14  A    between atoms: O8_43  and  C17_44 
REMARK   15  A    between atoms: C19_49  and  C20_50 
REMARK   16  A    between atoms: C20_50  and  N6_51 
REMARK   17  A    between atoms: C21_56  and  O10_57 
ROOT
HETATM    1  C4  UNL     1     -32.996 -18.100   0.456  1.00  0.00     0.186 C 
HETATM    2  C5  UNL     1     -34.430 -18.489   0.540  1.00  0.00     0.217 C 
HETATM    3  C6  UNL     1     -35.344 -17.301   0.491  1.00  0.00     0.071 C 
HETATM    4  C7  UNL     1     -35.149 -16.422  -0.704  1.00  0.00     0.217 C 
HETATM    5  C8  UNL     1     -33.791 -16.481  -1.313  1.00  0.00     0.186 C 
HETATM    6  C15 UNL     1     -32.708 -16.859  -0.331  1.00  0.00     0.180 C 
ENDROOT
BRANCH   1   7
HETATM    7  O2  UNL     1     -32.468 -18.016   1.721  1.00  0.00    -0.349 OA
BRANCH   7   8
HETATM    8  C3  UNL     1     -32.109 -19.221   2.272  1.00  0.00     0.292 C 
HETATM    9  O1  UNL     1     -32.146 -20.163   1.214  1.00  0.00    -0.351 OA
HETATM   10  C2  UNL     1     -31.148 -19.642   0.382  1.00  0.00     0.152 C 
HETATM   11  C1  UNL     1     -30.677 -20.652  -0.639  1.00  0.00     0.042 C 
HETATM   12  C21 UNL     1     -29.986 -19.276   1.285  1.00  0.00     0.180 C 
HETATM   13  C16 UNL     1     -30.646 -19.318   2.649  1.00  0.00     0.212 C 
BRANCH  12  14
HETATM   14  O10 UNL     1     -29.478 -18.026   0.991  1.00  0.00    -0.390 OA
ATOM     15  H10 UNL     1     -28.529 -18.007   1.040  1.00  0.00     0.210 HD
ENDBRANCH  12  14
BRANCH  13  16
HETATM   16  O8  UNL     1     -30.219 -18.335   3.502  1.00  0.00    -0.326 OA
BRANCH  16  17
HETATM   17  C17 UNL     1     -29.925 -18.942   4.737  1.00  0.00     0.470 C 
HETATM   18  N5  UNL     1     -29.207 -20.165   4.427  1.00  0.00    -0.022 N 
HETATM   19  C18 UNL     1     -28.574 -20.476   5.709  1.00  0.00     0.272 C 
ATOM     20  H52 UNL     1     -29.778 -20.913   4.032  1.00  0.00     0.283 HD
ATOM     21  H51 UNL     1     -28.570 -20.103   3.633  1.00  0.00     0.283 HD
HETATM   22  C19 UNL     1     -28.235 -19.073   6.198  1.00  0.00     0.177 C 
HETATM   23  O9  UNL     1     -29.036 -18.206   5.479  1.00  0.00    -0.330 OA
BRANCH  22  24
HETATM   24  C20 UNL     1     -26.796 -18.809   5.755  1.00  0.00     0.263 C 
BRANCH  24  25
HETATM   25  N6  UNL     1     -26.692 -17.456   5.239  1.00  0.00    -0.077 N 
ATOM     26  H63 UNL     1     -27.570 -17.127   4.837  1.00  0.00     0.274 HD
ATOM     27  H62 UNL     1     -26.605 -16.764   5.984  1.00  0.00     0.274 HD
ATOM     28  H61 UNL     1     -25.919 -17.407   4.574  1.00  0.00     0.274 HD
ENDBRANCH  24  25
ENDBRANCH  22  24
ENDBRANCH  16  17
ENDBRANCH  13  16
ENDBRANCH   7   8
ENDBRANCH   1   7
BRANCH   2  29
HETATM   29  N1  UNL     1     -34.801 -19.506  -0.441  1.00  0.00    -0.072 N 
ATOM     30  H13 UNL     1     -33.972 -19.926  -0.861  1.00  0.00     0.274 HD
ATOM     31  H12 UNL     1     -35.190 -20.329   0.017  1.00  0.00     0.274 HD
ATOM     32  H11 UNL     1     -35.434 -19.152  -1.158  1.00  0.00     0.274 HD
ENDBRANCH   2  29
BRANCH   6  33
HETATM   33  O7  UNL     1     -32.487 -15.814   0.585  1.00  0.00    -0.390 OA
ATOM     34  H7  UNL     1     -32.341 -15.018   0.086  1.00  0.00     0.210 HD
ENDBRANCH   6  33
BRANCH   5  35
HETATM   35  O3  UNL     1     -33.788 -17.391  -2.332  1.00  0.00    -0.349 OA
BRANCH  35  36
HETATM   36  C9  UNL     1     -32.718 -17.453  -3.144  1.00  0.00     0.294 C 
HETATM   37  O4  UNL     1     -32.424 -16.177  -3.624  1.00  0.00    -0.349 OA
HETATM   38  C10 UNL     1     -31.165 -16.055  -4.144  1.00  0.00     0.181 C 
HETATM   39  C12 UNL     1     -30.744 -17.124  -5.079  1.00  0.00     0.179 C 
HETATM   40  C13 UNL     1     -31.365 -18.455  -4.864  1.00  0.00     0.184 C 
HETATM   41  C14 UNL     1     -32.805 -18.344  -4.341  1.00  0.00     0.269 C 
BRANCH  38  42
HETATM   42  C11 UNL     1     -31.133 -14.728  -4.916  1.00  0.00     0.264 C 
BRANCH  42  43
HETATM   43  N3  UNL     1     -30.194 -14.779  -6.015  1.00  0.00    -0.077 N 
ATOM     44  H33 UNL     1     -29.731 -15.686  -6.069  1.00  0.00     0.274 HD
ATOM     45  H32 UNL     1     -30.673 -14.794  -6.915  1.00  0.00     0.274 HD
ATOM     46  H31 UNL     1     -29.519 -14.016  -5.964  1.00  0.00     0.274 HD
ENDBRANCH  42  43
ENDBRANCH  38  42
BRANCH  39  47
HETATM   47  O5  UNL     1     -29.339 -17.250  -4.989  1.00  0.00    -0.390 OA
ATOM     48  H5  UNL     1     -28.980 -17.129  -5.860  1.00  0.00     0.210 HD
ENDBRANCH  39  47
BRANCH  40  49
HETATM   49  O6  UNL     1     -31.388 -19.252  -5.992  1.00  0.00    -0.391 OA
ATOM     50  H6  UNL     1     -32.262 -19.492  -6.278  1.00  0.00     0.210 HD
ENDBRANCH  40  49
BRANCH  41  51
HETATM   51  N4  UNL     1     -33.555 -17.675  -5.365  1.00  0.00    -0.068 N 
ATOM     52  H43 UNL     1     -34.344 -18.230  -5.694  1.00  0.00     0.275 HD
ATOM     53  H42 UNL     1     -34.082 -16.879  -5.004  1.00  0.00     0.275 HD
ATOM     54  H41 UNL     1     -32.921 -17.412  -6.120  1.00  0.00     0.275 HD
ENDBRANCH  41  51
ENDBRANCH  35  36
ENDBRANCH   5  35
BRANCH   4  55
HETATM   55  N2  UNL     1     -36.109 -16.841  -1.718  1.00  0.00    -0.072 N 
ATOM     56  H23 UNL     1     -36.376 -17.821  -1.630  1.00  0.00     0.274 HD
ATOM     57  H22 UNL     1     -37.035 -16.437  -1.580  1.00  0.00     0.274 HD
ATOM     58  H21 UNL     1     -35.709 -16.617  -2.629  1.00  0.00     0.274 HD
ENDBRANCH   4  55
TORSDOF 17
ENDMDL
MODEL 4
REMARK VINA RESULT: -6.058935467      3.163      4.432
REMARK  17 active torsions:
REMARK  status: ('A' for Active; 'I' for Inactive)
REMARK    1  A    between atoms: C3_4  and  O2_5 
REMARK    2  A    between atoms: O2_5  and  C4_6 
REMARK    3  A    between atoms: C5_7  and  N1_8 
REMARK    4  A    between atoms: C7_13  and  N2_14 
REMARK    5  A    between atoms: C8_18  and  O3_19 
REMARK    6  A    between atoms: O3_19  and  C9_20 
REMARK    7  A    between atoms: C10_22  and  C11_23 
REMARK    8  A    between atoms: C11_23  and  N3_24 
REMARK    9  A    between atoms: C12_28  and  O5_29 
REMARK   10  A    between atoms: C13_31  and  O6_32 
REMARK   11  A    between atoms: C14_34  and  N4_35 
REMARK   12  A    between atoms: C15_39  and  O7_40 
REMARK   13  A    between atoms: C16_42  and  O8_43 
REMARK   14  A    between atoms: O8_43  and  C17_44 
REMARK   15  A    between atoms: C19_49  and  C20_50 
REMARK   16  A    between atoms: C20_50  and  N6_51 
REMARK   17  A    between atoms: C21_56  and  O10_57 
ROOT
HETATM    1  C4  UNL     1     -33.842 -17.770   1.380  1.00  0.00     0.186 C 
HETATM    2  C5  UNL     1     -34.643 -18.091   2.593  1.00  0.00     0.217 C 
HETATM    3  C6  UNL     1     -34.992 -16.866   3.383  1.00  0.00     0.071 C 
HETATM    4  C7  UNL     1     -35.701 -15.807   2.599  1.00  0.00     0.217 C 
HETATM    5  C8  UNL     1     -35.444 -15.833   1.132  1.00  0.00     0.186 C 
HETATM    6  C15 UNL     1     -34.107 -16.431   0.767  1.00  0.00     0.180 C 
ENDROOT
BRANCH   1   7
HETATM    7  O2  UNL     1     -32.506 -17.932   1.656  1.00  0.00    -0.349 OA
BRANCH   7   8
HETATM    8  C3  UNL     1     -32.182 -19.140   2.222  1.00  0.00     0.292 C 
HETATM    9  O1  UNL     1     -32.333 -20.108   1.197  1.00  0.00    -0.351 OA
HETATM   10  C2  UNL     1     -31.360 -19.666   0.293  1.00  0.00     0.152 C 
HETATM   11  C1  UNL     1     -31.007 -20.729  -0.723  1.00  0.00     0.042 C 
HETATM   12  C21 UNL     1     -30.128 -19.342   1.115  1.00  0.00     0.180 C 
HETATM   13  C16 UNL     1     -30.706 -19.310   2.516  1.00  0.00     0.212 C 
BRANCH  12  14
HETATM   14  O10 UNL     1     -29.570 -18.131   0.754  1.00  0.00    -0.390 OA
ATOM     15  H10 UNL     1     -28.624 -18.182   0.680  1.00  0.00     0.210 HD
ENDBRANCH  12  14
BRANCH  13  16
HETATM   16  O8  UNL     1     -30.176 -18.329   3.311  1.00  0.00    -0.326 OA
BRANCH  16  17
HETATM   17  C17 UNL     1     -29.954 -18.888   4.584  1.00  0.00     0.470 C 
HETATM   18  N5  UNL     1     -29.263 -20.145   4.359  1.00  0.00    -0.022 N 
HETATM   19  C18 UNL     1     -28.695 -20.416   5.681  1.00  0.00     0.272 C 
ATOM     20  H52 UNL     1     -29.839 -20.892   3.973  1.00  0.00     0.283 HD
ATOM     21  H51 UNL     1     -28.590 -20.137   3.592  1.00  0.00     0.283 HD
HETATM   22  C19 UNL     1     -28.333 -19.003   6.122  1.00  0.00     0.177 C 
HETATM   23  O9  UNL     1     -29.075 -18.146   5.331  1.00  0.00    -0.330 OA
BRANCH  22  24
HETATM   24  C20 UNL     1     -26.868 -18.802   5.732  1.00  0.00     0.263 C 
BRANCH  24  25
HETATM   25  N6  UNL     1     -26.688 -17.457   5.216  1.00  0.00    -0.077 N 
ATOM     26  H63 UNL     1     -26.982 -17.375   4.242  1.00  0.00     0.274 HD
ATOM     27  H62 UNL     1     -27.348 -16.796   5.624  1.00  0.00     0.274 HD
ATOM     28  H61 UNL     1     -25.718 -17.170   5.353  1.00  0.00     0.274 HD
ENDBRANCH  24  25
ENDBRANCH  22  24
ENDBRANCH  16  17
ENDBRANCH  13  16
ENDBRANCH   7   8
ENDBRANCH   1   7
BRANCH   2  29
HETATM   29  N1  UNL     1     -35.820 -18.905   2.297  1.00  0.00    -0.072 N 
ATOM     30  H13 UNL     1     -36.065 -18.846   1.308  1.00  0.00     0.274 HD
ATOM     31  H12 UNL     1     -35.600 -19.899   2.354  1.00  0.00     0.274 HD
ATOM     32  H11 UNL     1     -36.620 -18.672   2.885  1.00  0.00     0.274 HD
ENDBRANCH   2  29
BRANCH   6  33
HETATM   33  O7  UNL     1     -33.061 -15.571   1.151  1.00  0.00    -0.390 OA
ATOM     34  H7  UNL     1     -33.094 -14.806   0.588  1.00  0.00     0.210 HD
ENDBRANCH   6  33
BRANCH   5  35
HETATM   35  O3  UNL     1     -36.424 -16.555   0.511  1.00  0.00    -0.349 OA
BRANCH  35  36
HETATM   36  C9  UNL     1     -36.343 -16.753  -0.816  1.00  0.00     0.294 C 
HETATM   37  O4  UNL     1     -37.150 -15.826  -1.475  1.00  0.00    -0.349 OA
HETATM   38  C10 UNL     1     -36.864 -15.688  -2.806  1.00  0.00     0.181 C 
HETATM   39  C12 UNL     1     -36.706 -16.947  -3.570  1.00  0.00     0.179 C 
HETATM   40  C13 UNL     1     -36.227 -18.119  -2.795  1.00  0.00     0.184 C 
HETATM   41  C14 UNL     1     -36.728 -18.097  -1.343  1.00  0.00     0.269 C 
BRANCH  38  42
HETATM   42  C11 UNL     1     -38.034 -14.912  -3.430  1.00  0.00     0.264 C 
BRANCH  42  43
HETATM   43  N3  UNL     1     -38.731 -15.711  -4.414  1.00  0.00    -0.077 N 
ATOM     44  H33 UNL     1     -38.113 -15.987  -5.177  1.00  0.00     0.274 HD
ATOM     45  H32 UNL     1     -38.956 -16.638  -4.051  1.00  0.00     0.274 HD
ATOM     46  H31 UNL     1     -39.563 -15.233  -4.759  1.00  0.00     0.274 HD
ENDBRANCH  42  43
ENDBRANCH  38  42
BRANCH  39  47
HETATM   47  O5  UNL     1     -35.811 -16.699  -4.634  1.00  0.00    -0.390 OA
ATOM     48  H5  UNL     1     -35.728 -15.757  -4.730  1.00  0.00     0.210 HD
ENDBRANCH  39  47
BRANCH  40  49
HETATM   49  O6  UNL     1     -36.579 -19.336  -3.344  1.00  0.00    -0.391 OA
ATOM     50  H6  UNL     1     -36.107 -20.076  -2.977  1.00  0.00     0.210 HD
ENDBRANCH  40  49
BRANCH  41  51
HETATM   51  N4  UNL     1     -38.159 -18.177  -1.411  1.00  0.00    -0.068 N 
ATOM     52  H43 UNL     1     -38.548 -17.580  -2.140  1.00  0.00     0.275 HD
ATOM     53  H42 UNL     1     -38.483 -19.074  -1.774  1.00  0.00     0.275 HD
ATOM     54  H41 UNL     1     -38.545 -17.968  -0.489  1.00  0.00     0.275 HD
ENDBRANCH  41  51
ENDBRANCH  35  36
ENDBRANCH   5  35
BRANCH   4  55
HETATM   55  N2  UNL     1     -37.132 -15.995   2.803  1.00  0.00    -0.072 N 
ATOM     56  H23 UNL     1     -37.619 -16.285   1.956  1.00  0.00     0.274 HD
ATOM     57  H22 UNL     1     -37.348 -16.816   3.369  1.00  0.00     0.274 HD
ATOM     58  H21 UNL     1     -37.501 -15.131   3.199  1.00  0.00     0.274 HD
ENDBRANCH   4  55
TORSDOF 17
ENDMDL
MODEL 5
REMARK VINA RESULT: -5.989176084      1.204      1.269
REMARK  17 active torsions:
REMARK  status: ('A' for Active; 'I' for Inactive)
REMARK    1  A    between atoms: C3_4  and  O2_5 
REMARK    2  A    between atoms: O2_5  and  C4_6 
REMARK    3  A    between atoms: C5_7  and  N1_8 
REMARK    4  A    between atoms: C7_13  and  N2_14 
REMARK    5  A    between atoms: C8_18  and  O3_19 
REMARK    6  A    between atoms: O3_19  and  C9_20 
REMARK    7  A    between atoms: C10_22  and  C11_23 
REMARK    8  A    between atoms: C11_23  and  N3_24 
REMARK    9  A    between atoms: C12_28  and  O5_29 
REMARK   10  A    between atoms: C13_31  and  O6_32 
REMARK   11  A    between atoms: C14_34  and  N4_35 
REMARK   12  A    between atoms: C15_39  and  O7_40 
REMARK   13  A    between atoms: C16_42  and  O8_43 
REMARK   14  A    between atoms: O8_43  and  C17_44 
REMARK   15  A    between atoms: C19_49  and  C20_50 
REMARK   16  A    between atoms: C20_50  and  N6_51 
REMARK   17  A    between atoms: C21_56  and  O10_57 
ROOT
HETATM    1  C4  UNL     1     -34.362 -16.932  -0.226  1.00  0.00     0.186 C 
HETATM    2  C5  UNL     1     -35.473 -17.547   0.551  1.00  0.00     0.217 C 
HETATM    3  C6  UNL     1     -35.444 -17.148   1.996  1.00  0.00     0.071 C 
HETATM    4  C7  UNL     1     -35.449 -15.670   2.229  1.00  0.00     0.217 C 
HETATM    5  C8  UNL     1     -34.905 -14.856   1.106  1.00  0.00     0.186 C 
HETATM    6  C15 UNL     1     -33.897 -15.595   0.261  1.00  0.00     0.180 C 
ENDROOT
BRANCH   1   7
HETATM    7  O2  UNL     1     -33.316 -17.819  -0.310  1.00  0.00    -0.349 OA
BRANCH   7   8
HETATM    8  C3  UNL     1     -33.556 -19.042   0.265  1.00  0.00     0.292 C 
HETATM    9  O1  UNL     1     -33.291 -20.008  -0.739  1.00  0.00    -0.351 OA
HETATM   10  C2  UNL     1     -31.927 -19.778  -0.951  1.00  0.00     0.152 C 
HETATM   11  C1  UNL     1     -31.267 -20.925  -1.682  1.00  0.00     0.042 C 
HETATM   12  C21 UNL     1     -31.297 -19.643   0.422  1.00  0.00     0.180 C 
HETATM   13  C16 UNL     1     -32.524 -19.456   1.294  1.00  0.00     0.212 C 
BRANCH  12  14
HETATM   14  O10 UNL     1     -30.439 -18.563   0.493  1.00  0.00    -0.390 OA
ATOM     15  H10 UNL     1     -30.699 -17.946   1.167  1.00  0.00     0.210 HD
ENDBRANCH  12  14
BRANCH  13  16
HETATM   16  O8  UNL     1     -32.350 -18.553   2.308  1.00  0.00    -0.326 OA
BRANCH  16  17
HETATM   17  C17 UNL     1     -32.776 -19.167   3.501  1.00  0.00     0.470 C 
HETATM   18  N5  UNL     1     -32.546 -20.590   3.328  1.00  0.00    -0.022 N 
HETATM   19  C18 UNL     1     -32.584 -21.071   4.710  1.00  0.00     0.272 C 
ATOM     20  H52 UNL     1     -33.188 -21.058   2.689  1.00  0.00     0.283 HD
ATOM     21  H51 UNL     1     -31.702 -20.832   2.809  1.00  0.00     0.283 HD
HETATM   22  C19 UNL     1     -31.910 -19.907   5.427  1.00  0.00     0.177 C 
HETATM   23  O9  UNL     1     -31.991 -18.824   4.572  1.00  0.00    -0.330 OA
BRANCH  22  24
HETATM   24  C20 UNL     1     -30.430 -20.275   5.529  1.00  0.00     0.263 C 
BRANCH  24  25
HETATM   25  N6  UNL     1     -29.625 -19.179   5.019  1.00  0.00    -0.077 N 
ATOM     26  H63 UNL     1     -28.976 -18.818   5.719  1.00  0.00     0.274 HD
ATOM     27  H62 UNL     1     -28.939 -19.491   4.332  1.00  0.00     0.274 HD
ATOM     28  H61 UNL     1     -30.239 -18.452   4.650  1.00  0.00     0.274 HD
ENDBRANCH  24  25
ENDBRANCH  22  24
ENDBRANCH  16  17
ENDBRANCH  13  16
ENDBRANCH   7   8
ENDBRANCH   1   7
BRANCH   2  29
HETATM   29  N1  UNL     1     -36.783 -17.318  -0.054  1.00  0.00    -0.072 N 
ATOM     30  H13 UNL     1     -36.797 -16.437  -0.569  1.00  0.00     0.274 HD
ATOM     31  H12 UNL     1     -36.947 -17.964  -0.825  1.00  0.00     0.274 HD
ATOM     32  H11 UNL     1     -37.544 -17.356   0.624  1.00  0.00     0.274 HD
ENDBRANCH   2  29
BRANCH   6  33
HETATM   33  O7  UNL     1     -32.702 -15.794   0.979  1.00  0.00    -0.390 OA
ATOM     34  H7  UNL     1     -32.347 -14.938   1.189  1.00  0.00     0.210 HD
ENDBRANCH   6  33
BRANCH   5  35
HETATM   35  O3  UNL     1     -35.931 -14.450   0.299  1.00  0.00    -0.349 OA
BRANCH  35  36
HETATM   36  C9  UNL     1     -36.013 -13.153  -0.043  1.00  0.00     0.294 C 
HETATM   37  O4  UNL     1     -36.730 -12.459   0.933  1.00  0.00    -0.349 OA
HETATM   38  C10 UNL     1     -36.560 -11.102   0.886  1.00  0.00     0.181 C 
HETATM   39  C12 UNL     1     -36.675 -10.479  -0.453  1.00  0.00     0.179 C 
HETATM   40  C13 UNL     1     -36.306 -11.343  -1.603  1.00  0.00     0.184 C 
HETATM   41  C14 UNL     1     -36.651 -12.818  -1.352  1.00  0.00     0.269 C 
BRANCH  38  42
HETATM   42  C11 UNL     1     -37.653 -10.491   1.775  1.00  0.00     0.264 C 
BRANCH  42  43
HETATM   43  N3  UNL     1     -38.562  -9.671   1.005  1.00  0.00    -0.077 N 
ATOM     44  H33 UNL     1     -38.826 -10.126   0.131  1.00  0.00     0.274 HD
ATOM     45  H32 UNL     1     -39.483  -9.623   1.441  1.00  0.00     0.274 HD
ATOM     46  H31 UNL     1     -38.177  -8.741   0.842  1.00  0.00     0.274 HD
ENDBRANCH  42  43
ENDBRANCH  38  42
BRANCH  39  47
HETATM   47  O5  UNL     1     -35.862  -9.324  -0.463  1.00  0.00    -0.390 OA
ATOM     48  H5  UNL     1     -34.969  -9.598  -0.636  1.00  0.00     0.210 HD
ENDBRANCH  39  47
BRANCH  40  49
HETATM   49  O6  UNL     1     -36.894 -10.970  -2.795  1.00  0.00    -0.391 OA
ATOM     50  H6  UNL     1     -36.769 -10.054  -3.017  1.00  0.00     0.210 HD
ENDBRANCH  40  49
BRANCH  41  51
HETATM   51  N4  UNL     1     -38.077 -12.879  -1.203  1.00  0.00    -0.068 N 
ATOM     52  H43 UNL     1     -38.452 -12.064  -0.718  1.00  0.00     0.275 HD
ATOM     53  H42 UNL     1     -38.567 -12.754  -2.089  1.00  0.00     0.275 HD
ATOM     54  H41 UNL     1     -38.324 -13.754  -0.742  1.00  0.00     0.275 HD
ENDBRANCH  41  51
ENDBRANCH  35  36
ENDBRANCH   5  35
BRANCH   4  55
HETATM   55  N2  UNL     1     -36.832 -15.265   2.442  1.00  0.00    -0.072 N 
ATOM     56  H23 UNL     1     -37.401 -15.335   1.598  1.00  0.00     0.274 HD
ATOM     57  H22 UNL     1     -37.358 -15.928   3.012  1.00  0.00     0.274 HD
ATOM     58  H21 UNL     1     -36.819 -14.325   2.837  1.00  0.00     0.274 HD
ENDBRANCH   4  55
TORSDOF 17
ENDMDL
