MODEL 1
REMARK VINA RESULT: -7.212460988      0.000      0.000
REMARK  16 active torsions:
REMARK  status: ('A' for Active; 'I' for Inactive)
REMARK    1  A    between atoms: N1_1  and  C1_5 
REMARK    2  A    between atoms: C1_5  and  C2_6 
REMARK    3  A    between atoms: C3_8  and  O2_9 
REMARK    4  A    between atoms: O2_9  and  C4_10 
REMARK    5  A    between atoms: C5_11  and  O3_12 
REMARK    6  A    between atoms: C6_14  and  N2_15 
REMARK    7  A    between atoms: N2_15  and  O4_16 
REMARK    8  A    between atoms: O4_16  and  C7_17 
REMARK    9  A    between atoms: C10_25  and  C11_26 
REMARK   10  A    between atoms: C11_26  and  O7_27 
REMARK   11  A    between atoms: C12_29  and  O8_30 
REMARK   12  A    between atoms: O8_30  and  C13_31 
REMARK   13  A    between atoms: C17_38  and  N5_39 
REMARK   14  A    between atoms: C18_43  and  O9_44 
REMARK   15  A    between atoms: C19_46  and  O10_47 
REMARK   16  A    between atoms: C20_49  and  O11_50 
ROOT
HETATM    1  C4  UNL     1     -33.265 -18.709   0.814  1.00  0.00     0.189 C 
HETATM    2  C5  UNL     1     -33.334 -19.653  -0.403  1.00  0.00     0.196 C 
HETATM    3  C6  UNL     1     -33.059 -18.825  -1.663  1.00  0.00     0.273 C 
HETATM    4  O6  UNL     1     -32.138 -17.856  -1.287  1.00  0.00    -0.355 OA
HETATM    5  C10 UNL     1     -32.807 -16.828  -0.625  1.00  0.00     0.179 C 
HETATM    6  C12 UNL     1     -33.864 -17.405   0.330  1.00  0.00     0.184 C 
ENDROOT
BRANCH   1   7
HETATM    7  O2  UNL     1     -33.921 -19.247   1.839  1.00  0.00    -0.348 OA
BRANCH   7   8
HETATM    8  C3  UNL     1     -33.208 -19.871   2.840  1.00  0.00     0.292 C 
HETATM    9  O1  UNL     1     -31.844 -19.788   2.731  1.00  0.00    -0.349 OA
HETATM   10  C2  UNL     1     -31.202 -19.103   3.730  1.00  0.00     0.181 C 
HETATM   11  C20 UNL     1     -31.487 -19.617   5.112  1.00  0.00     0.180 C 
HETATM   12  C19 UNL     1     -32.808 -20.357   5.185  1.00  0.00     0.183 C 
HETATM   13  C18 UNL     1     -33.739 -19.627   4.219  1.00  0.00     0.204 C 
BRANCH  10  14
HETATM   14  C1  UNL     1     -29.714 -19.182   3.459  1.00  0.00     0.264 C 
BRANCH  14  15
HETATM   15  N1  UNL     1     -28.982 -18.074   4.015  1.00  0.00    -0.077 N 
ATOM     16  H13 UNL     1     -28.966 -17.286   3.368  1.00  0.00     0.274 HD
ATOM     17  H12 UNL     1     -29.497 -17.646   4.785  1.00  0.00     0.274 HD
ATOM     18  H11 UNL     1     -28.037 -18.326   4.305  1.00  0.00     0.274 HD
ENDBRANCH  14  15
ENDBRANCH  10  14
BRANCH  11  19
HETATM   19  O11 UNL     1     -30.506 -20.467   5.596  1.00  0.00    -0.390 OA
ATOM     20  H11 UNL     1     -30.496 -20.531   6.543  1.00  0.00     0.210 HD
ENDBRANCH  11  19
BRANCH  12  21
HETATM   21  O10 UNL     1     -32.626 -21.675   4.833  1.00  0.00    -0.390 OA
ATOM     22  H10 UNL     1     -32.909 -22.271   5.516  1.00  0.00     0.210 HD
ENDBRANCH  12  21
BRANCH  13  23
HETATM   23  O9  UNL     1     -33.718 -18.298   4.608  1.00  0.00    -0.388 OA
ATOM     24  H9  UNL     1     -34.490 -17.806   4.354  1.00  0.00     0.210 HD
ENDBRANCH  13  23
ENDBRANCH   7   8
ENDBRANCH   1   7
BRANCH   2  25
HETATM   25  O3  UNL     1     -32.318 -20.599  -0.289  1.00  0.00    -0.389 OA
ATOM     26  H3  UNL     1     -31.487 -20.173  -0.468  1.00  0.00     0.210 HD
ENDBRANCH   2  25
BRANCH   6  27
HETATM   27  O8  UNL     1     -34.041 -16.586   1.405  1.00  0.00    -0.371 OA
BRANCH  27  28
HETATM   28  C13 UNL     1     -35.236 -15.963   1.544  1.00  0.00     0.178 C 
HETATM   29  C14 UNL     1     -36.030 -16.287   2.783  1.00  0.00     0.266 C 
HETATM   30  N4  UNL     1     -37.391 -15.839   2.631  1.00  0.00    -0.073 N 
HETATM   31  C15 UNL     1     -37.614 -15.014   1.477  1.00  0.00     0.234 C 
ATOM     32  H42 UNL     1     -38.030 -16.633   2.631  1.00  0.00     0.277 HD
ATOM     33  H41 UNL     1     -37.706 -15.363   3.477  1.00  0.00     0.277 HD
HETATM   34  C16 UNL     1     -36.581 -13.950   1.301  1.00  0.00     0.063 C 
HETATM   35  C17 UNL     1     -35.163 -14.447   1.508  1.00  0.00     0.215 C 
BRANCH  35  36
HETATM   36  N5  UNL     1     -34.749 -13.933   2.825  1.00  0.00    -0.072 N 
ATOM     37  H53 UNL     1     -34.977 -14.582   3.579  1.00  0.00     0.274 HD
ATOM     38  H52 UNL     1     -33.734 -13.930   2.934  1.00  0.00     0.274 HD
ATOM     39  H51 UNL     1     -35.153 -13.009   2.981  1.00  0.00     0.274 HD
ENDBRANCH  35  36
ENDBRANCH  27  28
ENDBRANCH   6  27
BRANCH   3  40
HETATM   40  N2  UNL     1     -32.573 -19.720  -2.678  1.00  0.00    -0.061 NA
BRANCH  40  41
HETATM   41  O4  UNL     1     -31.310 -19.511  -3.037  1.00  0.00    -0.223 OA
BRANCH  41  42
HETATM   42  C7  UNL     1     -31.150 -19.073  -4.334  1.00  0.00     0.488 C 
HETATM   43  N3  UNL     1     -31.668 -17.729  -4.436  1.00  0.00    -0.021 N 
HETATM   44  C8  UNL     1     -30.938 -17.136  -5.535  1.00  0.00     0.264 C 
ATOM     45  H32 UNL     1     -32.682 -17.682  -4.538  1.00  0.00     0.283 HD
ATOM     46  H31 UNL     1     -31.616 -17.196  -3.567  1.00  0.00     0.283 HD
HETATM   47  C9  UNL     1     -29.708 -17.971  -5.628  1.00  0.00     0.200 C 
HETATM   48  O5  UNL     1     -29.814 -19.010  -4.711  1.00  0.00    -0.336 OA
ENDBRANCH  41  42
ENDBRANCH  40  41
ENDBRANCH   3  40
BRANCH   5  49
HETATM   49  C11 UNL     1     -33.400 -15.943  -1.672  1.00  0.00     0.198 C 
BRANCH  49  50
HETATM   50  O7  UNL     1     -32.353 -15.527  -2.531  1.00  0.00    -0.398 OA
ATOM     51  H7  UNL     1     -32.500 -14.614  -2.745  1.00  0.00     0.209 HD
ENDBRANCH  49  50
ENDBRANCH   5  49
TORSDOF 16
ENDMDL
MODEL 2
REMARK VINA RESULT: -6.979815681      2.217      6.876
REMARK  16 active torsions:
REMARK  status: ('A' for Active; 'I' for Inactive)
REMARK    1  A    between atoms: N1_1  and  C1_5 
REMARK    2  A    between atoms: C1_5  and  C2_6 
REMARK    3  A    between atoms: C3_8  and  O2_9 
REMARK    4  A    between atoms: O2_9  and  C4_10 
REMARK    5  A    between atoms: C5_11  and  O3_12 
REMARK    6  A    between atoms: C6_14  and  N2_15 
REMARK    7  A    between atoms: N2_15  and  O4_16 
REMARK    8  A    between atoms: O4_16  and  C7_17 
REMARK    9  A    between atoms: C10_25  and  C11_26 
REMARK   10  A    between atoms: C11_26  and  O7_27 
REMARK   11  A    between atoms: C12_29  and  O8_30 
REMARK   12  A    between atoms: O8_30  and  C13_31 
REMARK   13  A    between atoms: C17_38  and  N5_39 
REMARK   14  A    between atoms: C18_43  and  O9_44 
REMARK   15  A    between atoms: C19_46  and  O10_47 
REMARK   16  A    between atoms: C20_49  and  O11_50 
ROOT
HETATM    1  C4  UNL     1     -32.398 -19.987   0.868  1.00  0.00     0.189 C 
HETATM    2  C5  UNL     1     -31.161 -19.080   1.029  1.00  0.00     0.196 C 
HETATM    3  C6  UNL     1     -30.888 -18.911   2.528  1.00  0.00     0.273 C 
HETATM    4  O6  UNL     1     -31.241 -20.118   3.117  1.00  0.00    -0.355 OA
HETATM    5  C10 UNL     1     -32.627 -20.162   3.263  1.00  0.00     0.179 C 
HETATM    6  C12 UNL     1     -33.316 -19.599   2.009  1.00  0.00     0.184 C 
ENDROOT
BRANCH   1   7
HETATM    7  O2  UNL     1     -32.938 -19.801  -0.334  1.00  0.00    -0.348 OA
BRANCH   7   8
HETATM    8  C3  UNL     1     -32.479 -18.771  -1.125  1.00  0.00     0.292 C 
HETATM    9  O1  UNL     1     -31.733 -19.149  -2.211  1.00  0.00    -0.349 OA
HETATM   10  C2  UNL     1     -32.267 -18.854  -3.439  1.00  0.00     0.181 C 
HETATM   11  C20 UNL     1     -32.596 -17.402  -3.635  1.00  0.00     0.180 C 
HETATM   12  C19 UNL     1     -32.824 -16.685  -2.319  1.00  0.00     0.183 C 
HETATM   13  C18 UNL     1     -33.497 -17.710  -1.408  1.00  0.00     0.204 C 
BRANCH  10  14
HETATM   14  C1  UNL     1     -31.270 -19.293  -4.492  1.00  0.00     0.264 C 
BRANCH  14  15
HETATM   15  N1  UNL     1     -31.810 -19.259  -5.826  1.00  0.00    -0.077 N 
ATOM     16  H13 UNL     1     -31.107 -19.536  -6.511  1.00  0.00     0.274 HD
ATOM     17  H12 UNL     1     -32.484 -20.012  -5.966  1.00  0.00     0.274 HD
ATOM     18  H11 UNL     1     -32.218 -18.355  -6.067  1.00  0.00     0.274 HD
ENDBRANCH  14  15
ENDBRANCH  10  14
BRANCH  11  19
HETATM   19  O11 UNL     1     -31.618 -16.705  -4.325  1.00  0.00    -0.390 OA
ATOM     20  H11 UNL     1     -30.738 -17.022  -4.156  1.00  0.00     0.210 HD
ENDBRANCH  11  19
BRANCH  12  21
HETATM   21  O10 UNL     1     -31.622 -16.249  -1.810  1.00  0.00    -0.390 OA
ATOM     22  H10 UNL     1     -31.604 -15.306  -1.692  1.00  0.00     0.210 HD
ENDBRANCH  12  21
BRANCH  13  23
HETATM   23  O9  UNL     1     -34.608 -18.159  -2.102  1.00  0.00    -0.388 OA
ATOM     24  H9  UNL     1     -35.247 -18.610  -1.564  1.00  0.00     0.210 HD
ENDBRANCH  13  23
ENDBRANCH   7   8
ENDBRANCH   1   7
BRANCH   2  25
HETATM   25  O3  UNL     1     -30.062 -19.728   0.470  1.00  0.00    -0.389 OA
ATOM     26  H3  UNL     1     -30.186 -19.775  -0.471  1.00  0.00     0.210 HD
ENDBRANCH   2  25
BRANCH   6  27
HETATM   27  O8  UNL     1     -34.524 -20.197   1.813  1.00  0.00    -0.371 OA
BRANCH  27  28
HETATM   28  C13 UNL     1     -35.590 -19.410   1.534  1.00  0.00     0.178 C 
HETATM   29  C14 UNL     1     -36.933 -20.089   1.455  1.00  0.00     0.266 C 
HETATM   30  N4  UNL     1     -37.893 -19.220   0.823  1.00  0.00    -0.073 N 
HETATM   31  C15 UNL     1     -37.430 -17.874   0.628  1.00  0.00     0.234 C 
ATOM     32  H42 UNL     1     -38.208 -19.620  -0.060  1.00  0.00     0.277 HD
ATOM     33  H41 UNL     1     -38.772 -19.224   1.340  1.00  0.00     0.277 HD
HETATM   34  C16 UNL     1     -36.761 -17.298   1.834  1.00  0.00     0.063 C 
HETATM   35  C17 UNL     1     -35.789 -18.254   2.498  1.00  0.00     0.215 C 
BRANCH  35  36
HETATM   36  N5  UNL     1     -36.467 -18.728   3.717  1.00  0.00    -0.072 N 
ATOM     37  H53 UNL     1     -37.289 -18.166   3.941  1.00  0.00     0.274 HD
ATOM     38  H52 UNL     1     -36.934 -19.624   3.572  1.00  0.00     0.274 HD
ATOM     39  H51 UNL     1     -35.805 -18.763   4.492  1.00  0.00     0.274 HD
ENDBRANCH  35  36
ENDBRANCH  27  28
ENDBRANCH   6  27
BRANCH   3  40
HETATM   40  N2  UNL     1     -29.498 -18.578   2.684  1.00  0.00    -0.061 NA
BRANCH  40  41
HETATM   41  O4  UNL     1     -29.263 -17.576   3.526  1.00  0.00    -0.223 OA
BRANCH  41  42
HETATM   42  C7  UNL     1     -28.766 -17.964   4.751  1.00  0.00     0.488 C 
HETATM   43  N3  UNL     1     -28.959 -19.386   4.900  1.00  0.00    -0.021 N 
HETATM   44  C8  UNL     1     -27.920 -19.804   5.816  1.00  0.00     0.264 C 
ATOM     45  H32 UNL     1     -29.900 -19.649   5.192  1.00  0.00     0.283 HD
ATOM     46  H31 UNL     1     -28.965 -19.899   4.018  1.00  0.00     0.283 HD
HETATM   47  C9  UNL     1     -26.899 -18.724   5.704  1.00  0.00     0.200 C 
HETATM   48  O5  UNL     1     -27.399 -17.737   4.864  1.00  0.00    -0.336 OA
ENDBRANCH  41  42
ENDBRANCH  40  41
ENDBRANCH   3  40
BRANCH   5  49
HETATM   49  C11 UNL     1     -32.964 -19.392   4.498  1.00  0.00     0.198 C 
BRANCH  49  50
HETATM   50  O7  UNL     1     -34.132 -19.963   5.059  1.00  0.00    -0.398 OA
ATOM     51  H7  UNL     1     -33.967 -20.112   5.982  1.00  0.00     0.209 HD
ENDBRANCH  49  50
ENDBRANCH   5  49
TORSDOF 16
ENDMDL
MODEL 3
REMARK VINA RESULT: -6.938013223      1.440      1.907
REMARK  16 active torsions:
REMARK  status: ('A' for Active; 'I' for Inactive)
REMARK    1  A    between atoms: N1_1  and  C1_5 
REMARK    2  A    between atoms: C1_5  and  C2_6 
REMARK    3  A    between atoms: C3_8  and  O2_9 
REMARK    4  A    between atoms: O2_9  and  C4_10 
REMARK    5  A    between atoms: C5_11  and  O3_12 
REMARK    6  A    between atoms: C6_14  and  N2_15 
REMARK    7  A    between atoms: N2_15  and  O4_16 
REMARK    8  A    between atoms: O4_16  and  C7_17 
REMARK    9  A    between atoms: C10_25  and  C11_26 
REMARK   10  A    between atoms: C11_26  and  O7_27 
REMARK   11  A    between atoms: C12_29  and  O8_30 
REMARK   12  A    between atoms: O8_30  and  C13_31 
REMARK   13  A    between atoms: C17_38  and  N5_39 
REMARK   14  A    between atoms: C18_43  and  O9_44 
REMARK   15  A    between atoms: C19_46  and  O10_47 
REMARK   16  A    between atoms: C20_49  and  O11_50 
ROOT
HETATM    1  C4  UNL     1     -33.342 -18.231   1.138  1.00  0.00     0.189 C 
HETATM    2  C5  UNL     1     -32.953 -18.591  -0.310  1.00  0.00     0.196 C 
HETATM    3  C6  UNL     1     -32.877 -17.292  -1.119  1.00  0.00     0.273 C 
HETATM    4  O6  UNL     1     -32.405 -16.324  -0.240  1.00  0.00    -0.355 OA
HETATM    5  C10 UNL     1     -33.457 -15.891   0.565  1.00  0.00     0.179 C 
HETATM    6  C12 UNL     1     -34.322 -17.084   1.005  1.00  0.00     0.184 C 
ENDROOT
BRANCH   1   7
HETATM    7  O2  UNL     1     -33.854 -19.299   1.745  1.00  0.00    -0.348 OA
BRANCH   7   8
HETATM    8  C3  UNL     1     -33.145 -19.897   2.765  1.00  0.00     0.292 C 
HETATM    9  O1  UNL     1     -31.781 -19.806   2.666  1.00  0.00    -0.349 OA
HETATM   10  C2  UNL     1     -31.153 -19.096   3.656  1.00  0.00     0.181 C 
HETATM   11  C20 UNL     1     -31.447 -19.583   5.046  1.00  0.00     0.180 C 
HETATM   12  C19 UNL     1     -32.762 -20.331   5.122  1.00  0.00     0.183 C 
HETATM   13  C18 UNL     1     -33.690 -19.628   4.133  1.00  0.00     0.204 C 
BRANCH  10  14
HETATM   14  C1  UNL     1     -29.662 -19.169   3.399  1.00  0.00     0.264 C 
BRANCH  14  15
HETATM   15  N1  UNL     1     -28.934 -18.082   4.001  1.00  0.00    -0.077 N 
ATOM     16  H13 UNL     1     -28.101 -18.422   4.481  1.00  0.00     0.274 HD
ATOM     17  H12 UNL     1     -28.490 -17.501   3.289  1.00  0.00     0.274 HD
ATOM     18  H11 UNL     1     -29.509 -17.516   4.625  1.00  0.00     0.274 HD
ENDBRANCH  14  15
ENDBRANCH  10  14
BRANCH  11  19
HETATM   19  O11 UNL     1     -30.464 -20.415   5.555  1.00  0.00    -0.390 OA
ATOM     20  H11 UNL     1     -30.437 -21.268   5.138  1.00  0.00     0.210 HD
ENDBRANCH  11  19
BRANCH  12  21
HETATM   21  O10 UNL     1     -32.567 -21.654   4.799  1.00  0.00    -0.390 OA
ATOM     22  H10 UNL     1     -33.376 -22.084   4.546  1.00  0.00     0.210 HD
ENDBRANCH  12  21
BRANCH  13  23
HETATM   23  O9  UNL     1     -33.683 -18.292   4.495  1.00  0.00    -0.388 OA
ATOM     24  H9  UNL     1     -34.036 -18.120   5.360  1.00  0.00     0.210 HD
ENDBRANCH  13  23
ENDBRANCH   7   8
ENDBRANCH   1   7
BRANCH   2  25
HETATM   25  O3  UNL     1     -31.680 -19.157  -0.299  1.00  0.00    -0.389 OA
ATOM     26  H3  UNL     1     -31.411 -19.312  -1.197  1.00  0.00     0.210 HD
ENDBRANCH   2  25
BRANCH   6  27
HETATM   27  O8  UNL     1     -34.881 -16.850   2.224  1.00  0.00    -0.371 OA
BRANCH  27  28
HETATM   28  C13 UNL     1     -36.232 -16.801   2.310  1.00  0.00     0.178 C 
HETATM   29  C14 UNL     1     -36.998 -16.900   1.016  1.00  0.00     0.266 C 
HETATM   30  N4  UNL     1     -38.365 -16.491   1.215  1.00  0.00    -0.073 N 
HETATM   31  C15 UNL     1     -38.730 -16.310   2.592  1.00  0.00     0.234 C 
ATOM     32  H42 UNL     1     -38.566 -15.647   0.678  1.00  0.00     0.277 HD
ATOM     33  H41 UNL     1     -39.003 -17.143   0.759  1.00  0.00     0.277 HD
HETATM   34  C16 UNL     1     -38.275 -17.423   3.477  1.00  0.00     0.063 C 
HETATM   35  C17 UNL     1     -36.845 -17.857   3.212  1.00  0.00     0.215 C 
BRANCH  35  36
HETATM   36  N5  UNL     1     -36.945 -19.138   2.491  1.00  0.00    -0.072 N 
ATOM     37  H53 UNL     1     -36.683 -19.045   1.509  1.00  0.00     0.274 HD
ATOM     38  H52 UNL     1     -36.219 -19.796   2.777  1.00  0.00     0.274 HD
ATOM     39  H51 UNL     1     -37.881 -19.528   2.602  1.00  0.00     0.274 HD
ENDBRANCH  35  36
ENDBRANCH  27  28
ENDBRANCH   6  27
BRANCH   3  40
HETATM   40  N2  UNL     1     -32.009 -17.524  -2.241  1.00  0.00    -0.061 NA
BRANCH  40  41
HETATM   41  O4  UNL     1     -32.249 -18.655  -2.897  1.00  0.00    -0.223 OA
BRANCH  41  42
HETATM   42  C7  UNL     1     -31.821 -18.657  -4.207  1.00  0.00     0.488 C 
HETATM   43  N3  UNL     1     -31.629 -17.291  -4.633  1.00  0.00    -0.021 N 
HETATM   44  C8  UNL     1     -30.638 -17.370  -5.685  1.00  0.00     0.264 C 
ATOM     45  H32 UNL     1     -32.488 -16.816  -4.908  1.00  0.00     0.283 HD
ATOM     46  H31 UNL     1     -31.381 -16.651  -3.878  1.00  0.00     0.283 HD
HETATM   47  C9  UNL     1     -29.952 -18.666  -5.423  1.00  0.00     0.200 C 
HETATM   48  O5  UNL     1     -30.597 -19.296  -4.364  1.00  0.00    -0.336 OA
ENDBRANCH  41  42
ENDBRANCH  40  41
ENDBRANCH   3  40
BRANCH   5  49
HETATM   49  C11 UNL     1     -34.228 -14.884  -0.224  1.00  0.00     0.198 C 
BRANCH  49  50
HETATM   50  O7  UNL     1     -34.862 -14.010   0.692  1.00  0.00    -0.398 OA
ATOM     51  H7  UNL     1     -34.913 -13.152   0.287  1.00  0.00     0.209 HD
ENDBRANCH  49  50
ENDBRANCH   5  49
TORSDOF 16
ENDMDL
MODEL 4
REMARK VINA RESULT: -6.934769407      2.163      6.893
REMARK  16 active torsions:
REMARK  status: ('A' for Active; 'I' for Inactive)
REMARK    1  A    between atoms: N1_1  and  C1_5 
REMARK    2  A    between atoms: C1_5  and  C2_6 
REMARK    3  A    between atoms: C3_8  and  O2_9 
REMARK    4  A    between atoms: O2_9  and  C4_10 
REMARK    5  A    between atoms: C5_11  and  O3_12 
REMARK    6  A    between atoms: C6_14  and  N2_15 
REMARK    7  A    between atoms: N2_15  and  O4_16 
REMARK    8  A    between atoms: O4_16  and  C7_17 
REMARK    9  A    between atoms: C10_25  and  C11_26 
REMARK   10  A    between atoms: C11_26  and  O7_27 
REMARK   11  A    between atoms: C12_29  and  O8_30 
REMARK   12  A    between atoms: O8_30  and  C13_31 
REMARK   13  A    between atoms: C17_38  and  N5_39 
REMARK   14  A    between atoms: C18_43  and  O9_44 
REMARK   15  A    between atoms: C19_46  and  O10_47 
REMARK   16  A    between atoms: C20_49  and  O11_50 
ROOT
HETATM    1  C4  UNL     1     -32.553 -19.795   0.545  1.00  0.00     0.189 C 
HETATM    2  C5  UNL     1     -31.250 -19.005   0.779  1.00  0.00     0.196 C 
HETATM    3  C6  UNL     1     -31.044 -18.865   2.291  1.00  0.00     0.273 C 
HETATM    4  O6  UNL     1     -31.537 -20.036   2.852  1.00  0.00    -0.355 OA
HETATM    5  C10 UNL     1     -32.927 -19.955   2.922  1.00  0.00     0.179 C 
HETATM    6  C12 UNL     1     -33.493 -19.329   1.637  1.00  0.00     0.184 C 
ENDROOT
BRANCH   1   7
HETATM    7  O2  UNL     1     -33.008 -19.559  -0.684  1.00  0.00    -0.348 OA
BRANCH   7   8
HETATM    8  C3  UNL     1     -32.413 -18.574  -1.442  1.00  0.00     0.292 C 
HETATM    9  O1  UNL     1     -31.651 -19.018  -2.492  1.00  0.00    -0.349 OA
HETATM   10  C2  UNL     1     -32.090 -18.670  -3.742  1.00  0.00     0.181 C 
HETATM   11  C20 UNL     1     -32.271 -17.192  -3.944  1.00  0.00     0.180 C 
HETATM   12  C19 UNL     1     -32.498 -16.462  -2.636  1.00  0.00     0.183 C 
HETATM   13  C18 UNL     1     -33.311 -17.421  -1.769  1.00  0.00     0.204 C 
BRANCH  10  14
HETATM   14  C1  UNL     1     -31.085 -19.197  -4.746  1.00  0.00     0.264 C 
BRANCH  14  15
HETATM   15  N1  UNL     1     -31.567 -19.149  -6.102  1.00  0.00    -0.077 N 
ATOM     16  H13 UNL     1     -31.003 -19.742  -6.711  1.00  0.00     0.274 HD
ATOM     17  H12 UNL     1     -32.464 -19.629  -6.188  1.00  0.00     0.274 HD
ATOM     18  H11 UNL     1     -31.626 -18.199  -6.470  1.00  0.00     0.274 HD
ENDBRANCH  14  15
ENDBRANCH  10  14
BRANCH  11  19
HETATM   19  O11 UNL     1     -31.197 -16.588  -4.577  1.00  0.00    -0.390 OA
ATOM     20  H11 UNL     1     -31.444 -15.842  -5.110  1.00  0.00     0.210 HD
ENDBRANCH  11  19
BRANCH  12  21
HETATM   21  O10 UNL     1     -31.289 -16.142  -2.062  1.00  0.00    -0.390 OA
ATOM     22  H10 UNL     1     -30.840 -16.907  -1.722  1.00  0.00     0.210 HD
ENDBRANCH  12  21
BRANCH  13  23
HETATM   23  O9  UNL     1     -34.421 -17.761  -2.522  1.00  0.00    -0.388 OA
ATOM     24  H9  UNL     1     -35.201 -17.259  -2.316  1.00  0.00     0.210 HD
ENDBRANCH  13  23
ENDBRANCH   7   8
ENDBRANCH   1   7
BRANCH   2  25
HETATM   25  O3  UNL     1     -30.184 -19.748   0.275  1.00  0.00    -0.389 OA
ATOM     26  H3  UNL     1     -30.534 -20.473  -0.231  1.00  0.00     0.210 HD
ENDBRANCH   2  25
BRANCH   6  27
HETATM   27  O8  UNL     1     -34.737 -19.814   1.371  1.00  0.00    -0.371 OA
BRANCH  27  28
HETATM   28  C13 UNL     1     -35.785 -18.958   1.434  1.00  0.00     0.178 C 
HETATM   29  C14 UNL     1     -35.480 -17.496   1.229  1.00  0.00     0.266 C 
HETATM   30  N4  UNL     1     -36.594 -16.691   1.660  1.00  0.00    -0.073 N 
HETATM   31  C15 UNL     1     -37.782 -17.441   1.959  1.00  0.00     0.234 C 
ATOM     32  H42 UNL     1     -36.328 -16.111   2.456  1.00  0.00     0.277 HD
ATOM     33  H41 UNL     1     -36.794 -15.963   0.974  1.00  0.00     0.277 HD
HETATM   34  C16 UNL     1     -38.112 -18.464   0.922  1.00  0.00     0.063 C 
HETATM   35  C17 UNL     1     -36.909 -19.265   0.461  1.00  0.00     0.215 C 
BRANCH  35  36
HETATM   36  N5  UNL     1     -36.573 -18.745  -0.876  1.00  0.00    -0.072 N 
ATOM     37  H53 UNL     1     -37.065 -19.246  -1.616  1.00  0.00     0.274 HD
ATOM     38  H52 UNL     1     -36.967 -17.818  -1.036  1.00  0.00     0.274 HD
ATOM     39  H51 UNL     1     -35.562 -18.760  -1.010  1.00  0.00     0.274 HD
ENDBRANCH  35  36
ENDBRANCH  27  28
ENDBRANCH   6  27
BRANCH   3  40
HETATM   40  N2  UNL     1     -29.640 -18.660   2.525  1.00  0.00    -0.061 NA
BRANCH  40  41
HETATM   41  O4  UNL     1     -29.363 -17.686   3.387  1.00  0.00    -0.223 OA
BRANCH  41  42
HETATM   42  C7  UNL     1     -28.970 -18.122   4.634  1.00  0.00     0.488 C 
HETATM   43  N3  UNL     1     -29.119 -19.557   4.691  1.00  0.00    -0.021 N 
HETATM   44  C8  UNL     1     -28.157 -19.986   5.682  1.00  0.00     0.264 C 
ATOM     45  H32 UNL     1     -30.072 -19.868   4.876  1.00  0.00     0.283 HD
ATOM     46  H31 UNL     1     -29.020 -20.021   3.788  1.00  0.00     0.283 HD
HETATM   47  C9  UNL     1     -27.174 -18.868   5.725  1.00  0.00     0.200 C 
HETATM   48  O5  UNL     1     -27.630 -17.854   4.891  1.00  0.00    -0.336 OA
ENDBRANCH  41  42
ENDBRANCH  40  41
ENDBRANCH   3  40
BRANCH   5  49
HETATM   49  C11 UNL     1     -33.260 -19.160   4.142  1.00  0.00     0.198 C 
BRANCH  49  50
HETATM   50  O7  UNL     1     -34.569 -19.516   4.547  1.00  0.00    -0.398 OA
ATOM     51  H7  UNL     1     -34.962 -18.755   4.958  1.00  0.00     0.209 HD
ENDBRANCH  49  50
ENDBRANCH   5  49
TORSDOF 16
ENDMDL
MODEL 5
REMARK VINA RESULT: -6.705985174      1.593      2.182
REMARK  16 active torsions:
REMARK  status: ('A' for Active; 'I' for Inactive)
REMARK    1  A    between atoms: N1_1  and  C1_5 
REMARK    2  A    between atoms: C1_5  and  C2_6 
REMARK    3  A    between atoms: C3_8  and  O2_9 
REMARK    4  A    between atoms: O2_9  and  C4_10 
REMARK    5  A    between atoms: C5_11  and  O3_12 
REMARK    6  A    between atoms: C6_14  and  N2_15 
REMARK    7  A    between atoms: N2_15  and  O4_16 
REMARK    8  A    between atoms: O4_16  and  C7_17 
REMARK    9  A    between atoms: C10_25  and  C11_26 
REMARK   10  A    between atoms: C11_26  and  O7_27 
REMARK   11  A    between atoms: C12_29  and  O8_30 
REMARK   12  A    between atoms: O8_30  and  C13_31 
REMARK   13  A    between atoms: C17_38  and  N5_39 
REMARK   14  A    between atoms: C18_43  and  O9_44 
REMARK   15  A    between atoms: C19_46  and  O10_47 
REMARK   16  A    between atoms: C20_49  and  O11_50 
ROOT
HETATM    1  C4  UNL     1     -33.391 -18.037   1.304  1.00  0.00     0.189 C 
HETATM    2  C5  UNL     1     -32.768 -18.106  -0.105  1.00  0.00     0.196 C 
HETATM    3  C6  UNL     1     -32.813 -16.700  -0.714  1.00  0.00     0.273 C 
HETATM    4  O6  UNL     1     -32.628 -15.821   0.346  1.00  0.00    -0.355 OA
HETATM    5  C10 UNL     1     -33.831 -15.681   1.035  1.00  0.00     0.179 C 
HETATM    6  C12 UNL     1     -34.528 -17.044   1.180  1.00  0.00     0.184 C 
ENDROOT
BRANCH   1   7
HETATM    7  O2  UNL     1     -33.785 -19.251   1.681  1.00  0.00    -0.348 OA
BRANCH   7   8
HETATM    8  C3  UNL     1     -33.124 -19.882   2.713  1.00  0.00     0.292 C 
HETATM    9  O1  UNL     1     -31.757 -19.790   2.680  1.00  0.00    -0.349 OA
HETATM   10  C2  UNL     1     -31.175 -19.113   3.719  1.00  0.00     0.181 C 
HETATM   11  C20 UNL     1     -31.532 -19.643   5.078  1.00  0.00     0.180 C 
HETATM   12  C19 UNL     1     -32.849 -20.392   5.071  1.00  0.00     0.183 C 
HETATM   13  C18 UNL     1     -33.730 -19.656   4.063  1.00  0.00     0.204 C 
BRANCH  10  14
HETATM   14  C1  UNL     1     -29.673 -19.180   3.529  1.00  0.00     0.264 C 
BRANCH  14  15
HETATM   15  N1  UNL     1     -29.041 -17.887   3.583  1.00  0.00    -0.077 N 
ATOM     16  H13 UNL     1     -28.569 -17.749   4.477  1.00  0.00     0.274 HD
ATOM     17  H12 UNL     1     -28.233 -17.849   2.961  1.00  0.00     0.274 HD
ATOM     18  H11 UNL     1     -29.686 -17.121   3.389  1.00  0.00     0.274 HD
ENDBRANCH  14  15
ENDBRANCH  10  14
BRANCH  11  19
HETATM   19  O11 UNL     1     -30.573 -20.493   5.606  1.00  0.00    -0.390 OA
ATOM     20  H11 UNL     1     -30.283 -21.160   4.996  1.00  0.00     0.210 HD
ENDBRANCH  11  19
BRANCH  12  21
HETATM   21  O10 UNL     1     -32.640 -21.704   4.715  1.00  0.00    -0.390 OA
ATOM     22  H10 UNL     1     -33.452 -22.193   4.655  1.00  0.00     0.210 HD
ENDBRANCH  12  21
BRANCH  13  23
HETATM   23  O9  UNL     1     -33.740 -18.332   4.467  1.00  0.00    -0.388 OA
ATOM     24  H9  UNL     1     -34.484 -18.094   5.008  1.00  0.00     0.210 HD
ENDBRANCH  13  23
ENDBRANCH   7   8
ENDBRANCH   1   7
BRANCH   2  25
HETATM   25  O3  UNL     1     -31.428 -18.468   0.021  1.00  0.00    -0.389 OA
ATOM     26  H3  UNL     1     -31.136 -18.836  -0.805  1.00  0.00     0.210 HD
ENDBRANCH   2  25
BRANCH   6  27
HETATM   27  O8  UNL     1     -35.267 -17.089   2.322  1.00  0.00    -0.371 OA
BRANCH  27  28
HETATM   28  C13 UNL     1     -36.518 -17.605   2.255  1.00  0.00     0.178 C 
HETATM   29  C14 UNL     1     -37.170 -17.977   3.562  1.00  0.00     0.266 C 
HETATM   30  N4  UNL     1     -38.318 -18.814   3.323  1.00  0.00    -0.073 N 
HETATM   31  C15 UNL     1     -38.701 -18.909   1.942  1.00  0.00     0.234 C 
ATOM     32  H42 UNL     1     -38.171 -19.743   3.718  1.00  0.00     0.277 HD
ATOM     33  H41 UNL     1     -39.108 -18.507   3.892  1.00  0.00     0.277 HD
HETATM   34  C16 UNL     1     -38.731 -17.589   1.244  1.00  0.00     0.063 C 
HETATM   35  C17 UNL     1     -37.528 -16.718   1.550  1.00  0.00     0.215 C 
BRANCH  35  36
HETATM   36  N5  UNL     1     -38.014 -15.678   2.473  1.00  0.00    -0.072 N 
ATOM     37  H53 UNL     1     -37.668 -15.817   3.423  1.00  0.00     0.274 HD
ATOM     38  H52 UNL     1     -37.583 -14.771   2.290  1.00  0.00     0.274 HD
ATOM     39  H51 UNL     1     -39.033 -15.631   2.440  1.00  0.00     0.274 HD
ENDBRANCH  35  36
ENDBRANCH  27  28
ENDBRANCH   6  27
BRANCH   3  40
HETATM   40  N2  UNL     1     -31.784 -16.622  -1.714  1.00  0.00    -0.061 NA
BRANCH  40  41
HETATM   41  O4  UNL     1     -31.803 -17.614  -2.601  1.00  0.00    -0.223 OA
BRANCH  41  42
HETATM   42  C7  UNL     1     -31.701 -17.207  -3.913  1.00  0.00     0.488 C 
HETATM   43  N3  UNL     1     -31.269 -15.830  -3.940  1.00  0.00    -0.021 N 
HETATM   44  C8  UNL     1     -30.599 -15.680  -5.213  1.00  0.00     0.264 C 
ATOM     45  H32 UNL     1     -32.019 -15.157  -3.784  1.00  0.00     0.283 HD
ATOM     46  H31 UNL     1     -30.701 -15.557  -3.137  1.00  0.00     0.283 HD
HETATM   47  C9  UNL     1     -30.225 -17.074  -5.579  1.00  0.00     0.200 C 
HETATM   48  O5  UNL     1     -30.748 -17.933  -4.620  1.00  0.00    -0.336 OA
ENDBRANCH  41  42
ENDBRANCH  40  41
ENDBRANCH   3  40
BRANCH   5  49
HETATM   49  C11 UNL     1     -34.658 -14.691   0.280  1.00  0.00     0.198 C 
BRANCH  49  50
HETATM   50  O7  UNL     1     -35.551 -14.086   1.197  1.00  0.00    -0.398 OA
ATOM     51  H7  UNL     1     -35.655 -13.176   0.943  1.00  0.00     0.209 HD
ENDBRANCH  49  50
ENDBRANCH   5  49
TORSDOF 16
ENDMDL
