MODEL 1
REMARK VINA RESULT: -8.012702314      0.000      0.000
REMARK  19 active torsions:
REMARK  status: ('A' for Active; 'I' for Inactive)
REMARK    1  A    between atoms: C3_3  and  O1_4 
REMARK    2  A    between atoms: C4_7  and  C5_8 
REMARK    3  A    between atoms: C5_8  and  S1_9 
REMARK    4  A    between atoms: S1_9  and  C6_10 
REMARK    5  A    between atoms: C6_10  and  C7_11 
REMARK    6  A    between atoms: C7_11  and  C8_12 
REMARK    7  A    between atoms: C8_12  and  O3_13 
REMARK    8  A    between atoms: C8_12  and  C9_15 
REMARK    9  A    between atoms: C10_17  and  C11_18 
REMARK   10  A    between atoms: C11_18  and  O5_19 
REMARK   11  A    between atoms: C12_21  and  O6_22 
REMARK   12  A    between atoms: C13_24  and  O7_25 
REMARK   13  A    between atoms: C14_27  and  O8_28 
REMARK   14  A    between atoms: C15_30  and  O9_31 
REMARK   15  A    between atoms: C16_34  and  C17_35 
REMARK   16  A    between atoms: C17_35  and  O11_36 
REMARK   17  A    between atoms: C18_38  and  O12_39 
REMARK   18  A    between atoms: C19_41  and  O13_42 
REMARK   19  A    between atoms: C20_44  and  O14_45 
ROOT
HETATM    1  C1  UNL     1     -31.408 -20.434   0.876  1.00  0.00     0.029 C 
HETATM    2  C2  UNL     1     -32.640 -19.546   1.121  1.00  0.00     0.093 C 
HETATM    3  C3  UNL     1     -32.070 -18.141   1.211  1.00  0.00     0.273 C 
HETATM    4  O2  UNL     1     -31.429 -18.182   2.445  1.00  0.00    -0.349 OA
HETATM    5  C4  UNL     1     -32.201 -18.914   3.307  1.00  0.00     0.197 C 
HETATM    6  C15 UNL     1     -33.104 -19.809   2.482  1.00  0.00     0.204 C 
HETATM    7  O10 UNL     1     -34.362 -19.611   2.849  1.00  0.00    -0.342 OA
HETATM    8  C16 UNL     1     -35.291 -19.044   2.067  1.00  0.00     0.180 C 
HETATM    9  C18 UNL     1     -35.822 -20.072   1.088  1.00  0.00     0.180 C 
HETATM   10  C19 UNL     1     -34.738 -20.650   0.231  1.00  0.00     0.179 C 
HETATM   11  C20 UNL     1     -33.578 -19.731  -0.001  1.00  0.00     0.168 C 
ENDROOT
BRANCH   5  12
HETATM   12  C5  UNL     1     -31.388 -19.690   4.319  1.00  0.00     0.111 C 
BRANCH  12  13
HETATM   13  S1  UNL     1     -29.648 -19.260   4.091  1.00  0.00    -0.166 SA
BRANCH  13  14
HETATM   14  C6  UNL     1     -28.929 -18.665   5.647  1.00  0.00     0.076 C 
BRANCH  14  15
HETATM   15  C7  UNL     1     -27.541 -19.229   5.861  1.00  0.00     0.044 C 
BRANCH  15  16
HETATM   16  C8  UNL     1     -26.475 -18.170   5.749  1.00  0.00     0.150 C 
BRANCH  16  17
HETATM   17  O3  UNL     1     -26.296 -17.702   4.453  1.00  0.00    -0.393 OA
ATOM     18  H3  UNL     1     -25.816 -16.883   4.411  1.00  0.00     0.210 HD
ENDBRANCH  16  17
BRANCH  16  19
HETATM   19  C9  UNL     1     -25.163 -18.745   6.194  1.00  0.00     0.182 C 
HETATM   20  O4  UNL     1     -24.946 -18.449   7.533  1.00  0.00    -0.370 OA
HETATM   21  C10 UNL     1     -23.955 -19.244   8.093  1.00  0.00     0.177 C 
HETATM   22  C12 UNL     1     -22.854 -19.578   7.144  1.00  0.00     0.180 C 
HETATM   23  C13 UNL     1     -22.731 -18.627   5.994  1.00  0.00     0.180 C 
HETATM   24  C14 UNL     1     -24.015 -18.161   5.404  1.00  0.00     0.180 C 
BRANCH  21  25
HETATM   25  C11 UNL     1     -23.427 -18.674   9.381  1.00  0.00     0.198 C 
BRANCH  25  26
HETATM   26  O5  UNL     1     -24.357 -17.877  10.031  1.00  0.00    -0.398 OA
ATOM     27  H5  UNL     1     -24.320 -16.970   9.750  1.00  0.00     0.209 HD
ENDBRANCH  25  26
ENDBRANCH  21  25
BRANCH  22  28
HETATM   28  O6  UNL     1     -22.901 -20.922   6.707  1.00  0.00    -0.390 OA
ATOM     29  H6  UNL     1     -23.583 -21.072   6.064  1.00  0.00     0.210 HD
ENDBRANCH  22  28
BRANCH  23  30
HETATM   30  O7  UNL     1     -21.997 -19.313   4.996  1.00  0.00    -0.390 OA
ATOM     31  H7  UNL     1     -21.351 -18.695   4.673  1.00  0.00     0.210 HD
ENDBRANCH  23  30
BRANCH  24  32
HETATM   32  O8  UNL     1     -24.073 -16.761   5.500  1.00  0.00    -0.390 OA
ATOM     33  H8  UNL     1     -23.346 -16.393   5.012  1.00  0.00     0.210 HD
ENDBRANCH  24  32
ENDBRANCH  16  19
ENDBRANCH  15  16
ENDBRANCH  14  15
ENDBRANCH  13  14
ENDBRANCH  12  13
ENDBRANCH   5  12
BRANCH   6  34
HETATM   34  O9  UNL     1     -32.742 -21.132   2.844  1.00  0.00    -0.362 OA
ATOM     35  H9  UNL     1     -32.942 -21.265   3.763  1.00  0.00     0.213 HD
ENDBRANCH   6  34
BRANCH   3  36
HETATM   36  O1  UNL     1     -31.155 -17.913   0.183  1.00  0.00    -0.370 OA
ATOM     37  H1  UNL     1     -30.757 -17.055   0.272  1.00  0.00     0.212 HD
ENDBRANCH   3  36
BRANCH  11  38
HETATM   38  O14 UNL     1     -32.895 -20.224  -1.114  1.00  0.00    -0.392 OA
ATOM     39  H14 UNL     1     -33.201 -19.789  -1.901  1.00  0.00     0.210 HD
ENDBRANCH  11  38
BRANCH   8  40
HETATM   40  C17 UNL     1     -36.492 -18.681   2.959  1.00  0.00     0.198 C 
BRANCH  40  41
HETATM   41  O11 UNL     1     -36.386 -19.306   4.199  1.00  0.00    -0.398 OA
ATOM     42  H11 UNL     1     -37.034 -18.961   4.803  1.00  0.00     0.209 HD
ENDBRANCH  40  41
ENDBRANCH   8  40
BRANCH  10  43
HETATM   43  O13 UNL     1     -34.354 -21.936   0.604  1.00  0.00    -0.390 OA
ATOM     44  H13 UNL     1     -33.878 -22.404  -0.072  1.00  0.00     0.210 HD
ENDBRANCH  10  43
BRANCH   9  45
HETATM   45  O12 UNL     1     -36.496 -21.095   1.702  1.00  0.00    -0.390 OA
ATOM     46  H12 UNL     1     -36.436 -21.916   1.228  1.00  0.00     0.210 HD
ENDBRANCH   9  45
TORSDOF 19
ENDMDL
MODEL 2
REMARK VINA RESULT: -7.837739843      1.606      3.426
REMARK  19 active torsions:
REMARK  status: ('A' for Active; 'I' for Inactive)
REMARK    1  A    between atoms: C3_3  and  O1_4 
REMARK    2  A    between atoms: C4_7  and  C5_8 
REMARK    3  A    between atoms: C5_8  and  S1_9 
REMARK    4  A    between atoms: S1_9  and  C6_10 
REMARK    5  A    between atoms: C6_10  and  C7_11 
REMARK    6  A    between atoms: C7_11  and  C8_12 
REMARK    7  A    between atoms: C8_12  and  O3_13 
REMARK    8  A    between atoms: C8_12  and  C9_15 
REMARK    9  A    between atoms: C10_17  and  C11_18 
REMARK   10  A    between atoms: C11_18  and  O5_19 
REMARK   11  A    between atoms: C12_21  and  O6_22 
REMARK   12  A    between atoms: C13_24  and  O7_25 
REMARK   13  A    between atoms: C14_27  and  O8_28 
REMARK   14  A    between atoms: C15_30  and  O9_31 
REMARK   15  A    between atoms: C16_34  and  C17_35 
REMARK   16  A    between atoms: C17_35  and  O11_36 
REMARK   17  A    between atoms: C18_38  and  O12_39 
REMARK   18  A    between atoms: C19_41  and  O13_42 
REMARK   19  A    between atoms: C20_44  and  O14_45 
ROOT
HETATM    1  C1  UNL     1     -33.470 -17.926   1.744  1.00  0.00     0.029 C 
HETATM    2  C2  UNL     1     -33.047 -19.081   0.821  1.00  0.00     0.093 C 
HETATM    3  C3  UNL     1     -33.105 -20.307   1.716  1.00  0.00     0.273 C 
HETATM    4  O2  UNL     1     -31.999 -20.103   2.534  1.00  0.00    -0.349 OA
HETATM    5  C4  UNL     1     -30.992 -19.571   1.774  1.00  0.00     0.197 C 
HETATM    6  C15 UNL     1     -31.619 -18.926   0.553  1.00  0.00     0.204 C 
HETATM    7  O10 UNL     1     -31.049 -19.416  -0.538  1.00  0.00    -0.342 OA
HETATM    8  C16 UNL     1     -31.678 -20.197  -1.427  1.00  0.00     0.180 C 
HETATM    9  C18 UNL     1     -32.516 -19.334  -2.350  1.00  0.00     0.180 C 
HETATM   10  C19 UNL     1     -33.527 -18.521  -1.601  1.00  0.00     0.179 C 
HETATM   11  C20 UNL     1     -33.985 -19.136  -0.315  1.00  0.00     0.168 C 
ENDROOT
BRANCH   5  12
HETATM   12  C5  UNL     1     -30.109 -18.613   2.542  1.00  0.00     0.111 C 
BRANCH  12  13
HETATM   13  S1  UNL     1     -29.724 -19.365   4.140  1.00  0.00    -0.166 SA
BRANCH  13  14
HETATM   14  C6  UNL     1     -28.732 -18.234   5.153  1.00  0.00     0.076 C 
BRANCH  14  15
HETATM   15  C7  UNL     1     -27.425 -18.873   5.570  1.00  0.00     0.044 C 
BRANCH  15  16
HETATM   16  C8  UNL     1     -26.264 -17.921   5.451  1.00  0.00     0.150 C 
BRANCH  16  17
HETATM   17  O3  UNL     1     -25.974 -17.566   4.139  1.00  0.00    -0.393 OA
ATOM     18  H3  UNL     1     -25.042 -17.486   3.967  1.00  0.00     0.210 HD
ENDBRANCH  16  17
BRANCH  16  19
HETATM   19  C9  UNL     1     -25.035 -18.573   6.012  1.00  0.00     0.182 C 
HETATM   20  O4  UNL     1     -24.922 -18.284   7.365  1.00  0.00    -0.370 OA
HETATM   21  C10 UNL     1     -24.036 -19.136   8.012  1.00  0.00     0.177 C 
HETATM   22  C12 UNL     1     -22.875 -19.540   7.166  1.00  0.00     0.180 C 
HETATM   23  C13 UNL     1     -22.592 -18.604   6.033  1.00  0.00     0.180 C 
HETATM   24  C14 UNL     1     -23.786 -18.063   5.330  1.00  0.00     0.180 C 
BRANCH  21  25
HETATM   25  C11 UNL     1     -23.593 -18.594   9.343  1.00  0.00     0.198 C 
BRANCH  25  26
HETATM   26  O5  UNL     1     -22.292 -18.952   9.658  1.00  0.00    -0.398 OA
ATOM     27  H5  UNL     1     -22.123 -18.929  10.592  1.00  0.00     0.209 HD
ENDBRANCH  25  26
ENDBRANCH  21  25
BRANCH  22  28
HETATM   28  O6  UNL     1     -22.965 -20.881   6.726  1.00  0.00    -0.390 OA
ATOM     29  H6  UNL     1     -22.989 -21.500   7.445  1.00  0.00     0.210 HD
ENDBRANCH  22  28
BRANCH  23  30
HETATM   30  O7  UNL     1     -21.814 -19.337   5.105  1.00  0.00    -0.390 OA
ATOM     31  H7  UNL     1     -20.908 -19.219   5.370  1.00  0.00     0.210 HD
ENDBRANCH  23  30
BRANCH  24  32
HETATM   32  O8  UNL     1     -23.767 -16.661   5.423  1.00  0.00    -0.390 OA
ATOM     33  H8  UNL     1     -22.907 -16.353   5.166  1.00  0.00     0.210 HD
ENDBRANCH  24  32
ENDBRANCH  16  19
ENDBRANCH  15  16
ENDBRANCH  14  15
ENDBRANCH  13  14
ENDBRANCH  12  13
ENDBRANCH   5  12
BRANCH   6  34
HETATM   34  O9  UNL     1     -31.280 -17.552   0.648  1.00  0.00    -0.362 OA
ATOM     35  H9  UNL     1     -31.964 -17.099   1.128  1.00  0.00     0.213 HD
ENDBRANCH   6  34
BRANCH   3  36
HETATM   36  O1  UNL     1     -34.282 -20.318   2.465  1.00  0.00    -0.370 OA
ATOM     37  H1  UNL     1     -34.739 -21.143   2.360  1.00  0.00     0.212 HD
ENDBRANCH   3  36
BRANCH  11  38
HETATM   38  O14 UNL     1     -35.182 -18.503   0.026  1.00  0.00    -0.392 OA
ATOM     39  H14 UNL     1     -35.337 -17.770  -0.558  1.00  0.00     0.210 HD
ENDBRANCH  11  38
BRANCH   8  40
HETATM   40  C17 UNL     1     -30.606 -20.830  -2.332  1.00  0.00     0.198 C 
BRANCH  40  41
HETATM   41  O11 UNL     1     -29.492 -21.202  -1.584  1.00  0.00    -0.398 OA
ATOM     42  H11 UNL     1     -29.186 -22.062  -1.846  1.00  0.00     0.209 HD
ENDBRANCH  40  41
ENDBRANCH   8  40
BRANCH  10  43
HETATM   43  O13 UNL     1     -33.182 -17.177  -1.474  1.00  0.00    -0.390 OA
ATOM     44  H13 UNL     1     -32.303 -17.037  -1.141  1.00  0.00     0.210 HD
ENDBRANCH  10  43
BRANCH   9  45
HETATM   45  O12 UNL     1     -31.761 -18.498  -3.130  1.00  0.00    -0.390 OA
ATOM     46  H12 UNL     1     -31.957 -17.580  -2.985  1.00  0.00     0.210 HD
ENDBRANCH   9  45
TORSDOF 19
ENDMDL
MODEL 3
REMARK VINA RESULT: -7.555375387      1.401      2.034
REMARK  19 active torsions:
REMARK  status: ('A' for Active; 'I' for Inactive)
REMARK    1  A    between atoms: C3_3  and  O1_4 
REMARK    2  A    between atoms: C4_7  and  C5_8 
REMARK    3  A    between atoms: C5_8  and  S1_9 
REMARK    4  A    between atoms: S1_9  and  C6_10 
REMARK    5  A    between atoms: C6_10  and  C7_11 
REMARK    6  A    between atoms: C7_11  and  C8_12 
REMARK    7  A    between atoms: C8_12  and  O3_13 
REMARK    8  A    between atoms: C8_12  and  C9_15 
REMARK    9  A    between atoms: C10_17  and  C11_18 
REMARK   10  A    between atoms: C11_18  and  O5_19 
REMARK   11  A    between atoms: C12_21  and  O6_22 
REMARK   12  A    between atoms: C13_24  and  O7_25 
REMARK   13  A    between atoms: C14_27  and  O8_28 
REMARK   14  A    between atoms: C15_30  and  O9_31 
REMARK   15  A    between atoms: C16_34  and  C17_35 
REMARK   16  A    between atoms: C17_35  and  O11_36 
REMARK   17  A    between atoms: C18_38  and  O12_39 
REMARK   18  A    between atoms: C19_41  and  O13_42 
REMARK   19  A    between atoms: C20_44  and  O14_45 
ROOT
HETATM    1  C1  UNL     1     -33.329 -21.421   1.874  1.00  0.00     0.029 C 
HETATM    2  C2  UNL     1     -33.472 -20.034   1.227  1.00  0.00     0.093 C 
HETATM    3  C3  UNL     1     -32.274 -19.935   0.299  1.00  0.00     0.273 C 
HETATM    4  O2  UNL     1     -31.232 -19.782   1.208  1.00  0.00    -0.349 OA
HETATM    5  C4  UNL     1     -31.667 -18.981   2.229  1.00  0.00     0.197 C 
HETATM    6  C15 UNL     1     -33.182 -19.039   2.258  1.00  0.00     0.204 C 
HETATM    7  O10 UNL     1     -33.664 -17.806   2.204  1.00  0.00    -0.342 OA
HETATM    8  C16 UNL     1     -34.347 -17.312   1.162  1.00  0.00     0.180 C 
HETATM    9  C18 UNL     1     -35.786 -17.786   1.233  1.00  0.00     0.180 C 
HETATM   10  C19 UNL     1     -35.889 -19.281   1.231  1.00  0.00     0.179 C 
HETATM   11  C20 UNL     1     -34.767 -19.978   0.525  1.00  0.00     0.168 C 
ENDROOT
BRANCH   5  12
HETATM   12  C5  UNL     1     -31.051 -19.334   3.565  1.00  0.00     0.111 C 
BRANCH  12  13
HETATM   13  S1  UNL     1     -29.419 -18.563   3.652  1.00  0.00    -0.166 SA
BRANCH  13  14
HETATM   14  C6  UNL     1     -28.853 -18.463   5.373  1.00  0.00     0.076 C 
BRANCH  14  15
HETATM   15  C7  UNL     1     -27.482 -19.083   5.535  1.00  0.00     0.044 C 
BRANCH  15  16
HETATM   16  C8  UNL     1     -26.385 -18.052   5.499  1.00  0.00     0.150 C 
BRANCH  16  17
HETATM   17  O3  UNL     1     -26.085 -17.610   4.217  1.00  0.00    -0.393 OA
ATOM     18  H3  UNL     1     -25.472 -16.883   4.201  1.00  0.00     0.210 HD
ENDBRANCH  16  17
BRANCH  16  19
HETATM   19  C9  UNL     1     -25.130 -18.651   6.063  1.00  0.00     0.182 C 
HETATM   20  O4  UNL     1     -25.012 -18.323   7.407  1.00  0.00    -0.370 OA
HETATM   21  C10 UNL     1     -24.092 -19.130   8.065  1.00  0.00     0.177 C 
HETATM   22  C12 UNL     1     -22.929 -19.520   7.217  1.00  0.00     0.180 C 
HETATM   23  C13 UNL     1     -22.687 -18.605   6.057  1.00  0.00     0.180 C 
HETATM   24  C14 UNL     1     -23.905 -18.120   5.354  1.00  0.00     0.180 C 
BRANCH  21  25
HETATM   25  C11 UNL     1     -23.653 -18.540   9.377  1.00  0.00     0.198 C 
BRANCH  25  26
HETATM   26  O5  UNL     1     -22.568 -19.207   9.925  1.00  0.00    -0.398 OA
ATOM     27  H5  UNL     1     -22.653 -19.334  10.862  1.00  0.00     0.209 HD
ENDBRANCH  25  26
ENDBRANCH  21  25
BRANCH  22  28
HETATM   28  O6  UNL     1     -22.981 -20.873   6.812  1.00  0.00    -0.390 OA
ATOM     29  H6  UNL     1     -23.582 -21.015   6.090  1.00  0.00     0.210 HD
ENDBRANCH  22  28
BRANCH  23  30
HETATM   30  O7  UNL     1     -21.896 -19.338   5.139  1.00  0.00    -0.390 OA
ATOM     31  H7  UNL     1     -22.460 -20.018   4.790  1.00  0.00     0.210 HD
ENDBRANCH  23  30
BRANCH  24  32
HETATM   32  O8  UNL     1     -23.930 -16.716   5.410  1.00  0.00    -0.390 OA
ATOM     33  H8  UNL     1     -24.650 -16.449   5.967  1.00  0.00     0.210 HD
ENDBRANCH  24  32
ENDBRANCH  16  19
ENDBRANCH  15  16
ENDBRANCH  14  15
ENDBRANCH  13  14
ENDBRANCH  12  13
ENDBRANCH   5  12
BRANCH   6  34
HETATM   34  O9  UNL     1     -33.505 -19.584   3.527  1.00  0.00    -0.362 OA
ATOM     35  H9  UNL     1     -34.135 -19.016   3.954  1.00  0.00     0.213 HD
ENDBRANCH   6  34
BRANCH   3  36
HETATM   36  O1  UNL     1     -32.121 -21.111  -0.437  1.00  0.00    -0.370 OA
ATOM     37  H1  UNL     1     -31.799 -20.921  -1.310  1.00  0.00     0.212 HD
ENDBRANCH   3  36
BRANCH  11  38
HETATM   38  O14 UNL     1     -35.213 -21.271   0.248  1.00  0.00    -0.392 OA
ATOM     39  H14 UNL     1     -34.497 -21.888   0.349  1.00  0.00     0.210 HD
ENDBRANCH  11  38
BRANCH   8  40
HETATM   40  C17 UNL     1     -34.419 -15.784   1.333  1.00  0.00     0.198 C 
BRANCH  40  41
HETATM   41  O11 UNL     1     -33.147 -15.224   1.256  1.00  0.00    -0.398 OA
ATOM     42  H11 UNL     1     -33.110 -14.412   1.748  1.00  0.00     0.209 HD
ENDBRANCH  40  41
ENDBRANCH   8  40
BRANCH  10  43
HETATM   43  O13 UNL     1     -36.172 -19.824   2.482  1.00  0.00    -0.390 OA
ATOM     44  H13 UNL     1     -37.096 -19.810   2.705  1.00  0.00     0.210 HD
ENDBRANCH  10  43
BRANCH   9  45
HETATM   45  O12 UNL     1     -36.456 -17.295   2.322  1.00  0.00    -0.390 OA
ATOM     46  H12 UNL     1     -36.766 -16.406   2.195  1.00  0.00     0.210 HD
ENDBRANCH   9  45
TORSDOF 19
ENDMDL
MODEL 4
REMARK VINA RESULT: -7.401495014      1.306      2.988
REMARK  19 active torsions:
REMARK  status: ('A' for Active; 'I' for Inactive)
REMARK    1  A    between atoms: C3_3  and  O1_4 
REMARK    2  A    between atoms: C4_7  and  C5_8 
REMARK    3  A    between atoms: C5_8  and  S1_9 
REMARK    4  A    between atoms: S1_9  and  C6_10 
REMARK    5  A    between atoms: C6_10  and  C7_11 
REMARK    6  A    between atoms: C7_11  and  C8_12 
REMARK    7  A    between atoms: C8_12  and  O3_13 
REMARK    8  A    between atoms: C8_12  and  C9_15 
REMARK    9  A    between atoms: C10_17  and  C11_18 
REMARK   10  A    between atoms: C11_18  and  O5_19 
REMARK   11  A    between atoms: C12_21  and  O6_22 
REMARK   12  A    between atoms: C13_24  and  O7_25 
REMARK   13  A    between atoms: C14_27  and  O8_28 
REMARK   14  A    between atoms: C15_30  and  O9_31 
REMARK   15  A    between atoms: C16_34  and  C17_35 
REMARK   16  A    between atoms: C17_35  and  O11_36 
REMARK   17  A    between atoms: C18_38  and  O12_39 
REMARK   18  A    between atoms: C19_41  and  O13_42 
REMARK   19  A    between atoms: C20_44  and  O14_45 
ROOT
HETATM    1  C1  UNL     1     -33.329 -18.400   3.638  1.00  0.00     0.029 C 
HETATM    2  C2  UNL     1     -33.086 -19.552   2.648  1.00  0.00     0.093 C 
HETATM    3  C3  UNL     1     -32.575 -20.686   3.519  1.00  0.00     0.273 C 
HETATM    4  O2  UNL     1     -31.298 -20.235   3.838  1.00  0.00    -0.349 OA
HETATM    5  C4  UNL     1     -30.771 -19.620   2.734  1.00  0.00     0.197 C 
HETATM    6  C15 UNL     1     -31.920 -19.196   1.840  1.00  0.00     0.204 C 
HETATM    7  O10 UNL     1     -31.728 -19.686   0.624  1.00  0.00    -0.342 OA
HETATM    8  C16 UNL     1     -32.495 -20.634   0.068  1.00  0.00     0.180 C 
HETATM    9  C18 UNL     1     -33.762 -20.003  -0.474  1.00  0.00     0.180 C 
HETATM   10  C19 UNL     1     -34.542 -19.296   0.592  1.00  0.00     0.179 C 
HETATM   11  C20 UNL     1     -34.358 -19.858   1.969  1.00  0.00     0.168 C 
ENDROOT
BRANCH   5  12
HETATM   12  C5  UNL     1     -29.852 -18.469   3.076  1.00  0.00     0.111 C 
BRANCH  12  13
HETATM   13  S1  UNL     1     -29.487 -18.549   4.845  1.00  0.00    -0.166 SA
BRANCH  13  14
HETATM   14  C6  UNL     1     -28.079 -19.650   5.155  1.00  0.00     0.076 C 
BRANCH  14  15
HETATM   15  C7  UNL     1     -27.262 -19.176   6.338  1.00  0.00     0.044 C 
BRANCH  15  16
HETATM   16  C8  UNL     1     -26.113 -18.298   5.918  1.00  0.00     0.150 C 
BRANCH  16  17
HETATM   17  O3  UNL     1     -25.958 -18.213   4.540  1.00  0.00    -0.393 OA
ATOM     18  H3  UNL     1     -25.723 -17.342   4.239  1.00  0.00     0.210 HD
ENDBRANCH  16  17
BRANCH  16  19
HETATM   19  C9  UNL     1     -24.837 -18.862   6.471  1.00  0.00     0.182 C 
HETATM   20  O4  UNL     1     -24.641 -18.408   7.768  1.00  0.00    -0.370 OA
HETATM   21  C10 UNL     1     -23.698 -19.164   8.452  1.00  0.00     0.177 C 
HETATM   22  C12 UNL     1     -22.588 -19.656   7.585  1.00  0.00     0.180 C 
HETATM   23  C13 UNL     1     -22.398 -18.863   6.330  1.00  0.00     0.180 C 
HETATM   24  C14 UNL     1     -23.646 -18.426   5.649  1.00  0.00     0.180 C 
BRANCH  21  25
HETATM   25  C11 UNL     1     -23.180 -18.457   9.674  1.00  0.00     0.198 C 
BRANCH  25  26
HETATM   26  O5  UNL     1     -24.170 -17.754  10.342  1.00  0.00    -0.398 OA
ATOM     27  H5  UNL     1     -24.462 -18.195  11.131  1.00  0.00     0.209 HD
ENDBRANCH  25  26
ENDBRANCH  21  25
BRANCH  22  28
HETATM   28  O6  UNL     1     -22.681 -21.041   7.318  1.00  0.00    -0.390 OA
ATOM     29  H6  UNL     1     -23.301 -21.239   6.627  1.00  0.00     0.210 HD
ENDBRANCH  22  28
BRANCH  23  30
HETATM   30  O7  UNL     1     -21.668 -19.696   5.448  1.00  0.00    -0.390 OA
ATOM     31  H7  UNL     1     -22.051 -20.562   5.527  1.00  0.00     0.210 HD
ENDBRANCH  23  30
BRANCH  24  32
HETATM   32  O8  UNL     1     -23.648 -17.023   5.568  1.00  0.00    -0.390 OA
ATOM     33  H8  UNL     1     -23.171 -16.764   4.789  1.00  0.00     0.210 HD
ENDBRANCH  24  32
ENDBRANCH  16  19
ENDBRANCH  15  16
ENDBRANCH  14  15
ENDBRANCH  13  14
ENDBRANCH  12  13
ENDBRANCH   5  12
BRANCH   6  34
HETATM   34  O9  UNL     1     -31.827 -17.783   1.767  1.00  0.00    -0.362 OA
ATOM     35  H9  UNL     1     -31.417 -17.544   0.944  1.00  0.00     0.213 HD
ENDBRANCH   6  34
BRANCH   3  36
HETATM   36  O1  UNL     1     -33.355 -20.816   4.668  1.00  0.00    -0.370 OA
ATOM     37  H1  UNL     1     -34.215 -21.159   4.453  1.00  0.00     0.212 HD
ENDBRANCH   3  36
BRANCH  11  38
HETATM   38  O14 UNL     1     -35.429 -19.396   2.736  1.00  0.00    -0.392 OA
ATOM     39  H14 UNL     1     -36.127 -19.095   2.166  1.00  0.00     0.210 HD
ENDBRANCH  11  38
BRANCH   8  40
HETATM   40  C17 UNL     1     -31.751 -21.167  -1.170  1.00  0.00     0.198 C 
BRANCH  40  41
HETATM   41  O11 UNL     1     -30.594 -20.427  -1.401  1.00  0.00    -0.398 OA
ATOM     42  H11 UNL     1     -29.933 -20.966  -1.820  1.00  0.00     0.209 HD
ENDBRANCH  40  41
ENDBRANCH   8  40
BRANCH  10  43
HETATM   43  O13 UNL     1     -34.426 -17.909   0.546  1.00  0.00    -0.390 OA
ATOM     44  H13 UNL     1     -35.125 -17.451   0.997  1.00  0.00     0.210 HD
ENDBRANCH  10  43
BRANCH   9  45
HETATM   45  O12 UNL     1     -33.526 -19.131  -1.504  1.00  0.00    -0.390 OA
ATOM     46  H12 UNL     1     -34.177 -19.187  -2.194  1.00  0.00     0.210 HD
ENDBRANCH   9  45
TORSDOF 19
ENDMDL
MODEL 5
REMARK VINA RESULT: -6.999860116      1.659      3.521
REMARK  19 active torsions:
REMARK  status: ('A' for Active; 'I' for Inactive)
REMARK    1  A    between atoms: C3_3  and  O1_4 
REMARK    2  A    between atoms: C4_7  and  C5_8 
REMARK    3  A    between atoms: C5_8  and  S1_9 
REMARK    4  A    between atoms: S1_9  and  C6_10 
REMARK    5  A    between atoms: C6_10  and  C7_11 
REMARK    6  A    between atoms: C7_11  and  C8_12 
REMARK    7  A    between atoms: C8_12  and  O3_13 
REMARK    8  A    between atoms: C8_12  and  C9_15 
REMARK    9  A    between atoms: C10_17  and  C11_18 
REMARK   10  A    between atoms: C11_18  and  O5_19 
REMARK   11  A    between atoms: C12_21  and  O6_22 
REMARK   12  A    between atoms: C13_24  and  O7_25 
REMARK   13  A    between atoms: C14_27  and  O8_28 
REMARK   14  A    between atoms: C15_30  and  O9_31 
REMARK   15  A    between atoms: C16_34  and  C17_35 
REMARK   16  A    between atoms: C17_35  and  O11_36 
REMARK   17  A    between atoms: C18_38  and  O12_39 
REMARK   18  A    between atoms: C19_41  and  O13_42 
REMARK   19  A    between atoms: C20_44  and  O14_45 
ROOT
HETATM    1  C1  UNL     1     -35.185 -19.400   2.185  1.00  0.00     0.029 C 
HETATM    2  C2  UNL     1     -33.763 -19.399   1.599  1.00  0.00     0.093 C 
HETATM    3  C3  UNL     1     -33.455 -20.869   1.377  1.00  0.00     0.273 C 
HETATM    4  O2  UNL     1     -33.284 -21.315   2.683  1.00  0.00    -0.349 OA
HETATM    5  C4  UNL     1     -32.634 -20.340   3.390  1.00  0.00     0.197 C 
HETATM    6  C15 UNL     1     -32.848 -19.021   2.674  1.00  0.00     0.204 C 
HETATM    7  O10 UNL     1     -31.671 -18.461   2.434  1.00  0.00    -0.342 OA
HETATM    8  C16 UNL     1     -31.152 -18.302   1.209  1.00  0.00     0.180 C 
HETATM    9  C18 UNL     1     -31.774 -17.085   0.552  1.00  0.00     0.180 C 
HETATM   10  C19 UNL     1     -33.264 -17.198   0.449  1.00  0.00     0.179 C 
HETATM   11  C20 UNL     1     -33.772 -18.605   0.357  1.00  0.00     0.168 C 
ENDROOT
BRANCH   5  12
HETATM   12  C5  UNL     1     -33.049 -20.281   4.843  1.00  0.00     0.111 C 
BRANCH  12  13
HETATM   13  S1  UNL     1     -31.566 -20.468   5.859  1.00  0.00    -0.166 SA
BRANCH  13  14
HETATM   14  C6  UNL     1     -30.075 -20.144   4.877  1.00  0.00     0.076 C 
BRANCH  14  15
HETATM   15  C7  UNL     1     -28.823 -20.320   5.707  1.00  0.00     0.044 C 
BRANCH  15  16
HETATM   16  C8  UNL     1     -28.304 -19.008   6.237  1.00  0.00     0.150 C 
BRANCH  16  17
HETATM   17  O3  UNL     1     -28.927 -17.901   5.674  1.00  0.00    -0.393 OA
ATOM     18  H3  UNL     1     -29.847 -18.043   5.482  1.00  0.00     0.210 HD
ENDBRANCH  16  17
BRANCH  16  19
HETATM   19  C9  UNL     1     -26.841 -18.897   5.923  1.00  0.00     0.182 C 
HETATM   20  O4  UNL     1     -26.104 -18.891   7.099  1.00  0.00    -0.370 OA
HETATM   21  C10 UNL     1     -24.758 -19.157   6.877  1.00  0.00     0.177 C 
HETATM   22  C12 UNL     1     -24.247 -18.597   5.592  1.00  0.00     0.180 C 
HETATM   23  C13 UNL     1     -25.064 -17.465   5.052  1.00  0.00     0.180 C 
HETATM   24  C14 UNL     1     -26.537 -17.612   5.187  1.00  0.00     0.180 C 
BRANCH  21  25
HETATM   25  C11 UNL     1     -23.898 -18.753   8.042  1.00  0.00     0.198 C 
BRANCH  25  26
HETATM   26  O5  UNL     1     -24.623 -18.613   9.216  1.00  0.00    -0.398 OA
ATOM     27  H5  UNL     1     -24.190 -19.009   9.962  1.00  0.00     0.209 HD
ENDBRANCH  25  26
ENDBRANCH  21  25
BRANCH  22  28
HETATM   28  O6  UNL     1     -24.027 -19.595   4.614  1.00  0.00    -0.390 OA
ATOM     29  H6  UNL     1     -23.867 -20.450   4.995  1.00  0.00     0.210 HD
ENDBRANCH  22  28
BRANCH  23  30
HETATM   30  O7  UNL     1     -24.741 -17.371   3.676  1.00  0.00    -0.390 OA
ATOM     31  H7  UNL     1     -25.520 -17.645   3.205  1.00  0.00     0.210 HD
ENDBRANCH  23  30
BRANCH  24  32
HETATM   32  O8  UNL     1     -27.031 -16.536   5.943  1.00  0.00    -0.390 OA
ATOM     33  H8  UNL     1     -27.939 -16.391   5.706  1.00  0.00     0.210 HD
ENDBRANCH  24  32
ENDBRANCH  16  19
ENDBRANCH  15  16
ENDBRANCH  14  15
ENDBRANCH  13  14
ENDBRANCH  12  13
ENDBRANCH   5  12
BRANCH   6  34
HETATM   34  O9  UNL     1     -33.542 -18.206   3.603  1.00  0.00    -0.362 OA
ATOM     35  H9  UNL     1     -33.100 -18.251   4.443  1.00  0.00     0.213 HD
ENDBRANCH   6  34
BRANCH   3  36
HETATM   36  O1  UNL     1     -34.533 -21.514   0.768  1.00  0.00    -0.370 OA
ATOM     37  H1  UNL     1     -35.117 -21.880   1.421  1.00  0.00     0.212 HD
ENDBRANCH   3  36
BRANCH  11  38
HETATM   38  O14 UNL     1     -35.072 -18.527  -0.147  1.00  0.00    -0.392 OA
ATOM     39  H14 UNL     1     -35.157 -17.762  -0.705  1.00  0.00     0.210 HD
ENDBRANCH  11  38
BRANCH   8  40
HETATM   40  C17 UNL     1     -29.662 -17.950   1.376  1.00  0.00     0.198 C 
BRANCH  40  41
HETATM   41  O11 UNL     1     -29.423 -17.431   2.645  1.00  0.00    -0.398 OA
ATOM     42  H11 UNL     1     -30.191 -17.529   3.196  1.00  0.00     0.209 HD
ENDBRANCH  40  41
ENDBRANCH   8  40
BRANCH  10  43
HETATM   43  O13 UNL     1     -33.951 -16.427   1.383  1.00  0.00    -0.390 OA
ATOM     44  H13 UNL     1     -34.850 -16.240   1.139  1.00  0.00     0.210 HD
ENDBRANCH  10  43
BRANCH   9  45
HETATM   45  O12 UNL     1     -31.460 -15.915   1.192  1.00  0.00    -0.390 OA
ATOM     46  H12 UNL     1     -32.197 -15.319   1.255  1.00  0.00     0.210 HD
ENDBRANCH   9  45
TORSDOF 19
ENDMDL
