MODEL 1
REMARK VINA RESULT: -2.378878736      0.000      0.000
REMARK  9 active torsions:
REMARK  status: ('A' for Active; 'I' for Inactive)
REMARK    1  A    between atoms: N1_2  and  C2_3 
REMARK    2  A    between atoms: N1_2  and  C8_30 
REMARK    3  A    between atoms: C2_3  and  C3_4 
REMARK    4  A    between atoms: C3_4  and  N2_5 
REMARK    5  A    between atoms: N2_5  and  C4_7 
REMARK    6  A    between atoms: C7_23  and  N9_24 
REMARK    7  A    between atoms: C8_30  and  C9_31 
REMARK    8  A    between atoms: C9_31  and  N11_32 
REMARK    9  A    between atoms: C12_39  and  N14_40 
ROOT
HETATM    1  N2  UNL     1      57.256  12.938  28.894  1.00  0.00    -0.359 N 
ATOM      2  H2  UNL     1      57.075  13.377  29.796  1.00  0.00     0.162 HD
ENDROOT
BRANCH   1   3
HETATM    3  C3  UNL     1      56.713  13.549  27.704  1.00  0.00     0.153 C 
BRANCH   3   4
HETATM    4  C2  UNL     1      56.099  12.516  26.780  1.00  0.00     0.291 C 
BRANCH   4   5
HETATM    5  N1  UNL     1      54.674  12.364  27.041  1.00  0.00     0.087 N 
HETATM    6  C1  UNL     1      53.904  12.618  25.871  1.00  0.00     0.310 C 
BRANCH   5   7
HETATM    7  C8  UNL     1      54.407  11.200  27.776  1.00  0.00     0.292 C 
BRANCH   7   8
HETATM    8  C9  UNL     1      55.331  10.048  27.762  1.00  0.00     0.160 C 
BRANCH   8   9
HETATM    9  N11 UNL     1      54.706   8.747  27.605  1.00  0.00    -0.334 N 
HETATM   10  C10 UNL     1      53.391   8.482  27.866  1.00  0.00     0.185 A 
HETATM   11  N12 UNL     1      53.111   7.218  27.542  1.00  0.00    -0.336 N 
HETATM   12  C11 UNL     1      54.227   6.627  27.065  1.00  0.00     0.154 A 
ATOM     13  H12 UNL     1      52.199   6.771  27.639  1.00  0.00     0.168 HD
HETATM   14  N13 UNL     1      54.490   5.387  26.626  1.00  0.00    -0.174 N 
HETATM   15  C14 UNL     1      55.213   7.606  27.117  1.00  0.00     0.149 A 
HETATM   16  C12 UNL     1      55.744   5.051  26.216  1.00  0.00     0.680 A 
ATOM     17  H13 UNL     1      53.744   4.692  26.599  1.00  0.00     0.186 HD
HETATM   18  N15 UNL     1      56.737   5.955  26.247  1.00  0.00    -0.154 N 
HETATM   19  C13 UNL     1      56.468   7.205  26.691  1.00  0.00     0.290 A 
ATOM     20  H15 UNL     1      57.677   5.704  25.942  1.00  0.00     0.187 HD
HETATM   21  O1  UNL     1      57.391   8.035  26.725  1.00  0.00    -0.265 OA
BRANCH  16  22
HETATM   22  N14 UNL     1      55.988   3.858  25.794  1.00  0.00    -0.234 N 
ATOM     23 2H14 UNL     1      56.290   3.145  26.457  1.00  0.00     0.174 HD
ATOM     24 1H14 UNL     1      55.878   3.632  24.805  1.00  0.00     0.174 HD
ENDBRANCH  16  22
ENDBRANCH   8   9
ENDBRANCH   7   8
ENDBRANCH   5   7
ENDBRANCH   4   5
ENDBRANCH   3   4
ENDBRANCH   1   3
BRANCH   1  25
HETATM   25  C4  UNL     1      58.034  11.747  28.856  1.00  0.00     0.195 C 
HETATM   26  N3  UNL     1      58.994  11.415  28.063  1.00  0.00    -0.249 N 
HETATM   27  N4  UNL     1      59.488  10.144  28.379  1.00  0.00    -0.043 N 
ATOM     28  H3  UNL     1      59.347  12.001  27.307  1.00  0.00     0.191 HD
HETATM   29  C5  UNL     1      60.210   9.136  27.711  1.00  0.00     0.712 C 
HETATM   30  C7  UNL     1      59.109   9.911  29.754  1.00  0.00     0.406 C 
HETATM   31  N5  UNL     1      60.804   9.388  26.609  1.00  0.00    -0.232 N 
HETATM   32  N6  UNL     1      60.301   7.800  28.248  1.00  0.00    -0.021 N 
ATOM     33  H52 UNL     1      60.740  10.332  26.229  1.00  0.00     0.174 HD
ATOM     34  H51 UNL     1      61.327   8.658  26.125  1.00  0.00     0.174 HD
HETATM   35  C6  UNL     1      59.644   7.519  29.467  1.00  0.00     0.691 C 
ATOM     36  H6  UNL     1      60.827   7.075  27.759  1.00  0.00     0.203 HD
HETATM   37  N7  UNL     1      59.706   6.326  29.977  1.00  0.00    -0.234 N 
HETATM   38  N8  UNL     1      58.924   8.549  30.117  1.00  0.00    -0.153 N 
ATOM     39  H72 UNL     1      60.226   5.584  29.508  1.00  0.00     0.174 HD
ATOM     40  H71 UNL     1      59.232   6.123  30.857  1.00  0.00     0.174 HD
ATOM     41  H8  UNL     1      58.263   8.310  30.856  1.00  0.00     0.184 HD
HETATM   42  N10 UNL     1      57.838  10.660  29.775  1.00  0.00    -0.291 N 
ATOM     43  H10 UNL     1      57.003  10.451  30.322  1.00  0.00     0.168 HD
BRANCH  30  44
HETATM   44  N9  UNL     1      60.017  10.580  30.674  1.00  0.00    -0.011 N 
ATOM     45  H93 UNL     1      60.745   9.948  31.007  1.00  0.00     0.282 HD
ATOM     46  H92 UNL     1      60.606  11.258  30.192  1.00  0.00     0.282 HD
ATOM     47  H91 UNL     1      59.511  11.008  31.450  1.00  0.00     0.282 HD
ENDBRANCH  30  44
ENDBRANCH   1  25
TORSDOF 9
ENDMDL
MODEL 2
REMARK VINA RESULT: -1.783078754      3.138      5.000
REMARK  9 active torsions:
REMARK  status: ('A' for Active; 'I' for Inactive)
REMARK    1  A    between atoms: N1_2  and  C2_3 
REMARK    2  A    between atoms: N1_2  and  C8_30 
REMARK    3  A    between atoms: C2_3  and  C3_4 
REMARK    4  A    between atoms: C3_4  and  N2_5 
REMARK    5  A    between atoms: N2_5  and  C4_7 
REMARK    6  A    between atoms: C7_23  and  N9_24 
REMARK    7  A    between atoms: C8_30  and  C9_31 
REMARK    8  A    between atoms: C9_31  and  N11_32 
REMARK    9  A    between atoms: C12_39  and  N14_40 
ROOT
HETATM    1  N2  UNL     1      58.670  11.487  30.313  1.00  0.00    -0.359 N 
ATOM      2  H2  UNL     1      59.467  10.870  30.467  1.00  0.00     0.162 HD
ENDROOT
BRANCH   1   3
HETATM    3  C3  UNL     1      57.679  11.109  29.333  1.00  0.00     0.153 C 
BRANCH   3   4
HETATM    4  C2  UNL     1      57.534  12.163  28.255  1.00  0.00     0.291 C 
BRANCH   4   5
HETATM    5  N1  UNL     1      56.129  12.436  27.977  1.00  0.00     0.087 N 
HETATM    6  C1  UNL     1      55.982  13.273  26.834  1.00  0.00     0.310 C 
BRANCH   5   7
HETATM    7  C8  UNL     1      55.354  11.271  28.055  1.00  0.00     0.292 C 
BRANCH   7   8
HETATM    8  C9  UNL     1      55.974   9.934  28.160  1.00  0.00     0.160 C 
BRANCH   8   9
HETATM    9  N11 UNL     1      55.075   8.811  27.965  1.00  0.00    -0.334 N 
HETATM   10  C10 UNL     1      53.763   8.793  28.346  1.00  0.00     0.185 A 
HETATM   11  N12 UNL     1      53.192   7.654  27.951  1.00  0.00    -0.336 N 
HETATM   12  C11 UNL     1      54.110   6.901  27.306  1.00  0.00     0.154 A 
ATOM     13  H12 UNL     1      52.219   7.393  28.110  1.00  0.00     0.168 HD
HETATM   14  N13 UNL     1      54.062   5.687  26.739  1.00  0.00    -0.174 N 
HETATM   15  C14 UNL     1      55.281   7.649  27.330  1.00  0.00     0.149 A 
HETATM   16  C12 UNL     1      55.173   5.148  26.167  1.00  0.00     0.680 A 
ATOM     17  H13 UNL     1      53.186   5.164  26.736  1.00  0.00     0.186 HD
HETATM   18  N15 UNL     1      56.335   5.823  26.163  1.00  0.00    -0.154 N 
HETATM   19  C13 UNL     1      56.379   7.048  26.737  1.00  0.00     0.290 A 
ATOM     20  H15 UNL     1      57.168   5.419  25.737  1.00  0.00     0.187 HD
HETATM   21  O1  UNL     1      57.456   7.665  26.739  1.00  0.00    -0.265 OA
BRANCH  16  22
HETATM   22  N14 UNL     1      55.119   3.981  25.623  1.00  0.00    -0.234 N 
ATOM     23 2H14 UNL     1      55.986   3.498  25.387  1.00  0.00     0.174 HD
ATOM     24 1H14 UNL     1      54.216   3.546  25.432  1.00  0.00     0.174 HD
ENDBRANCH  16  22
ENDBRANCH   8   9
ENDBRANCH   7   8
ENDBRANCH   5   7
ENDBRANCH   4   5
ENDBRANCH   3   4
ENDBRANCH   1   3
BRANCH   1  25
HETATM   25  C4  UNL     1      58.578  12.688  31.071  1.00  0.00     0.195 C 
HETATM   26  N3  UNL     1      57.776  12.996  32.031  1.00  0.00    -0.249 N 
HETATM   27  N4  UNL     1      58.031  14.290  32.501  1.00  0.00    -0.043 N 
ATOM     28  H3  UNL     1      57.052  12.380  32.400  1.00  0.00     0.191 HD
HETATM   29  C5  UNL     1      57.318  15.275  33.211  1.00  0.00     0.712 C 
HETATM   30  C7  UNL     1      59.390  14.585  32.108  1.00  0.00     0.406 C 
HETATM   31  N5  UNL     1      56.234  14.980  33.817  1.00  0.00    -0.232 N 
HETATM   32  N6  UNL     1      57.788  16.638  33.276  1.00  0.00    -0.021 N 
ATOM     33  H52 UNL     1      55.901  14.016  33.772  1.00  0.00     0.174 HD
ATOM     34  H51 UNL     1      55.717  15.693  34.332  1.00  0.00     0.174 HD
HETATM   35  C6  UNL     1      58.987  16.967  32.606  1.00  0.00     0.691 C 
ATOM     36  H6  UNL     1      57.267  17.346  33.793  1.00  0.00     0.203 HD
HETATM   37  N7  UNL     1      59.438  18.186  32.644  1.00  0.00    -0.234 N 
HETATM   38  N8  UNL     1      59.683  15.960  31.898  1.00  0.00    -0.153 N 
ATOM     39  H72 UNL     1      58.936  18.913  33.155  1.00  0.00     0.174 HD
ATOM     40  H71 UNL     1      60.303  18.424  32.160  1.00  0.00     0.174 HD
ATOM     41  H8  UNL     1      60.405  16.223  31.227  1.00  0.00     0.184 HD
HETATM   42  N10 UNL     1      59.441  13.816  30.850  1.00  0.00    -0.291 N 
ATOM     43  H10 UNL     1      59.971  14.037  30.008  1.00  0.00     0.168 HD
BRANCH  30  44
HETATM   44  N9  UNL     1      60.349  13.978  33.021  1.00  0.00    -0.011 N 
ATOM     45  H93 UNL     1      61.187  14.550  33.118  1.00  0.00     0.282 HD
ATOM     46  H92 UNL     1      60.021  14.013  33.986  1.00  0.00     0.282 HD
ATOM     47  H91 UNL     1      60.578  13.025  32.738  1.00  0.00     0.282 HD
ENDBRANCH  30  44
ENDBRANCH   1  25
TORSDOF 9
ENDMDL
MODEL 3
REMARK VINA RESULT: -1.728437997      1.425      4.929
REMARK  9 active torsions:
REMARK  status: ('A' for Active; 'I' for Inactive)
REMARK    1  A    between atoms: N1_2  and  C2_3 
REMARK    2  A    between atoms: N1_2  and  C8_30 
REMARK    3  A    between atoms: C2_3  and  C3_4 
REMARK    4  A    between atoms: C3_4  and  N2_5 
REMARK    5  A    between atoms: N2_5  and  C4_7 
REMARK    6  A    between atoms: C7_23  and  N9_24 
REMARK    7  A    between atoms: C8_30  and  C9_31 
REMARK    8  A    between atoms: C9_31  and  N11_32 
REMARK    9  A    between atoms: C12_39  and  N14_40 
ROOT
HETATM    1  N2  UNL     1      53.728  11.241  27.328  1.00  0.00    -0.359 N 
ATOM      2  H2  UNL     1      53.402  11.612  28.220  1.00  0.00     0.162 HD
ENDROOT
BRANCH   1   3
HETATM    3  C3  UNL     1      53.686  12.095  26.165  1.00  0.00     0.153 C 
BRANCH   3   4
HETATM    4  C2  UNL     1      54.492  13.361  26.376  1.00  0.00     0.291 C 
BRANCH   4   5
HETATM    5  N1  UNL     1      55.913  13.116  26.169  1.00  0.00     0.087 N 
HETATM    6  C1  UNL     1      56.339  13.590  24.896  1.00  0.00     0.310 C 
BRANCH   5   7
HETATM    7  C8  UNL     1      56.666  13.468  27.298  1.00  0.00     0.292 C 
BRANCH   7   8
HETATM    8  C9  UNL     1      57.908  12.753  27.653  1.00  0.00     0.160 C 
BRANCH   8   9
HETATM    9  N11 UNL     1      57.759  11.686  28.627  1.00  0.00    -0.334 N 
HETATM   10  C10 UNL     1      56.778  11.637  29.578  1.00  0.00     0.185 A 
HETATM   11  N12 UNL     1      56.864  10.493  30.258  1.00  0.00    -0.336 N 
HETATM   12  C11 UNL     1      57.896   9.768  29.774  1.00  0.00     0.154 A 
ATOM     13  H12 UNL     1      56.249  10.210  31.021  1.00  0.00     0.168 HD
HETATM   14  N13 UNL     1      58.413   8.577  30.108  1.00  0.00    -0.174 N 
HETATM   15  C14 UNL     1      58.440  10.539  28.754  1.00  0.00     0.149 A 
HETATM   16  C12 UNL     1      59.499   8.086  29.449  1.00  0.00     0.680 A 
ATOM     17  H13 UNL     1      57.990   8.034  30.860  1.00  0.00     0.186 HD
HETATM   18  N15 UNL     1      60.070   8.789  28.456  1.00  0.00    -0.154 N 
HETATM   19  C13 UNL     1      59.545   9.992  28.122  1.00  0.00     0.290 A 
ATOM     20  H15 UNL     1      60.884   8.424  27.963  1.00  0.00     0.187 HD
HETATM   21  O1  UNL     1      60.080  10.642  27.210  1.00  0.00    -0.265 OA
BRANCH  16  22
HETATM   22  N14 UNL     1      59.990   6.940  29.775  1.00  0.00    -0.234 N 
ATOM     23 2H14 UNL     1      59.717   6.512  30.659  1.00  0.00     0.174 HD
ATOM     24 1H14 UNL     1      60.645   6.468  29.152  1.00  0.00     0.174 HD
ENDBRANCH  16  22
ENDBRANCH   8   9
ENDBRANCH   7   8
ENDBRANCH   5   7
ENDBRANCH   4   5
ENDBRANCH   3   4
ENDBRANCH   1   3
BRANCH   1  25
HETATM   25  C4  UNL     1      54.208   9.902  27.278  1.00  0.00     0.195 C 
HETATM   26  N3  UNL     1      55.409   9.452  27.395  1.00  0.00    -0.249 N 
HETATM   27  N4  UNL     1      55.435   8.057  27.282  1.00  0.00    -0.043 N 
ATOM     28  H3  UNL     1      56.232  10.035  27.548  1.00  0.00     0.191 HD
HETATM   29  C5  UNL     1      56.397   7.078  26.963  1.00  0.00     0.712 C 
HETATM   30  C7  UNL     1      54.096   7.617  27.596  1.00  0.00     0.406 C 
HETATM   31  N5  UNL     1      57.639   7.371  26.948  1.00  0.00    -0.232 N 
HETATM   32  N6  UNL     1      56.009   5.725  26.645  1.00  0.00    -0.021 N 
ATOM     33  H52 UNL     1      57.914   8.328  27.173  1.00  0.00     0.174 HD
ATOM     34  H51 UNL     1      58.336   6.662  26.717  1.00  0.00     0.174 HD
HETATM   35  C6  UNL     1      54.634   5.399  26.660  1.00  0.00     0.691 C 
ATOM     36  H6  UNL     1      56.710   5.021  26.415  1.00  0.00     0.203 HD
HETATM   37  N7  UNL     1      54.252   4.190  26.378  1.00  0.00    -0.234 N 
HETATM   38  N8  UNL     1      53.689   6.401  26.982  1.00  0.00    -0.153 N 
ATOM     39  H72 UNL     1      54.934   3.467  26.146  1.00  0.00     0.174 HD
ATOM     40  H71 UNL     1      53.260   3.954  26.389  1.00  0.00     0.174 HD
ATOM     41  H8  UNL     1      52.703   6.249  26.771  1.00  0.00     0.184 HD
HETATM   42  N10 UNL     1      53.343   8.773  27.072  1.00  0.00    -0.291 N 
ATOM     43  H10 UNL     1      52.412   8.770  26.655  1.00  0.00     0.168 HD
BRANCH  30  44
HETATM   44  N9  UNL     1      53.874   7.578  29.035  1.00  0.00    -0.011 N 
ATOM     45  H93 UNL     1      54.485   6.898  29.488  1.00  0.00     0.282 HD
ATOM     46  H92 UNL     1      54.216   8.424  29.490  1.00  0.00     0.282 HD
ATOM     47  H91 UNL     1      52.894   7.405  29.255  1.00  0.00     0.282 HD
ENDBRANCH  30  44
ENDBRANCH   1  25
TORSDOF 9
ENDMDL
MODEL 4
REMARK VINA RESULT: -1.708192947      3.165      5.147
REMARK  9 active torsions:
REMARK  status: ('A' for Active; 'I' for Inactive)
REMARK    1  A    between atoms: N1_2  and  C2_3 
REMARK    2  A    between atoms: N1_2  and  C8_30 
REMARK    3  A    between atoms: C2_3  and  C3_4 
REMARK    4  A    between atoms: C3_4  and  N2_5 
REMARK    5  A    between atoms: N2_5  and  C4_7 
REMARK    6  A    between atoms: C7_23  and  N9_24 
REMARK    7  A    between atoms: C8_30  and  C9_31 
REMARK    8  A    between atoms: C9_31  and  N11_32 
REMARK    9  A    between atoms: C12_39  and  N14_40 
ROOT
HETATM    1  N2  UNL     1      58.742  11.363  30.274  1.00  0.00    -0.359 N 
ATOM      2  H2  UNL     1      59.562  10.771  30.404  1.00  0.00     0.162 HD
ENDROOT
BRANCH   1   3
HETATM    3  C3  UNL     1      57.727  10.947  29.336  1.00  0.00     0.153 C 
BRANCH   3   4
HETATM    4  C2  UNL     1      57.305   9.512  29.576  1.00  0.00     0.291 C 
BRANCH   4   5
HETATM    5  N1  UNL     1      55.865   9.419  29.777  1.00  0.00     0.087 N 
HETATM    6  C1  UNL     1      55.533   9.466  31.161  1.00  0.00     0.310 C 
BRANCH   5   7
HETATM    7  C8  UNL     1      55.166  10.256  28.895  1.00  0.00     0.292 C 
BRANCH   7   8
HETATM    8  C9  UNL     1      54.780   9.804  27.543  1.00  0.00     0.160 C 
BRANCH   8   9
HETATM    9  N11 UNL     1      54.317   8.432  27.451  1.00  0.00    -0.334 N 
HETATM   10  C10 UNL     1      53.051   8.018  27.759  1.00  0.00     0.185 A 
HETATM   11  N12 UNL     1      52.921   6.718  27.488  1.00  0.00    -0.336 N 
HETATM   12  C11 UNL     1      54.089   6.250  27.000  1.00  0.00     0.154 A 
ATOM     13  H12 UNL     1      52.074   6.167  27.627  1.00  0.00     0.168 HD
HETATM   14  N13 UNL     1      54.492   5.036  26.598  1.00  0.00    -0.174 N 
HETATM   15  C14 UNL     1      54.948   7.344  26.988  1.00  0.00     0.149 A 
HETATM   16  C12 UNL     1      55.767   4.839  26.164  1.00  0.00     0.680 A 
ATOM     17  H13 UNL     1      53.838   4.253  26.617  1.00  0.00     0.186 HD
HETATM   18  N15 UNL     1      56.642   5.859  26.134  1.00  0.00    -0.154 N 
HETATM   19  C13 UNL     1      56.232   7.083  26.540  1.00  0.00     0.290 A 
ATOM     20  H15 UNL     1      57.598   5.713  25.811  1.00  0.00     0.187 HD
HETATM   21  O1  UNL     1      57.046   8.020  26.519  1.00  0.00    -0.265 OA
BRANCH  16  22
HETATM   22  N14 UNL     1      56.146   3.670  25.778  1.00  0.00    -0.234 N 
ATOM     23 2H14 UNL     1      55.445   2.982  25.502  1.00  0.00     0.174 HD
ATOM     24 1H14 UNL     1      57.139   3.437  25.748  1.00  0.00     0.174 HD
ENDBRANCH  16  22
ENDBRANCH   8   9
ENDBRANCH   7   8
ENDBRANCH   5   7
ENDBRANCH   4   5
ENDBRANCH   3   4
ENDBRANCH   1   3
BRANCH   1  25
HETATM   25  C4  UNL     1      58.644  12.569  31.024  1.00  0.00     0.195 C 
HETATM   26  N3  UNL     1      57.848  12.876  31.989  1.00  0.00    -0.249 N 
HETATM   27  N4  UNL     1      58.093  14.176  32.447  1.00  0.00    -0.043 N 
ATOM     28  H3  UNL     1      57.134  12.254  32.369  1.00  0.00     0.191 HD
HETATM   29  C5  UNL     1      57.375  15.158  33.156  1.00  0.00     0.712 C 
HETATM   30  C7  UNL     1      59.444  14.483  32.039  1.00  0.00     0.406 C 
HETATM   31  N5  UNL     1      56.300  14.856  33.774  1.00  0.00    -0.232 N 
HETATM   32  N6  UNL     1      57.831  16.527  33.206  1.00  0.00    -0.021 N 
ATOM     33  H52 UNL     1      55.978  13.888  33.739  1.00  0.00     0.174 HD
ATOM     34  H51 UNL     1      55.780  15.567  34.288  1.00  0.00     0.174 HD
HETATM   35  C6  UNL     1      59.020  16.864  32.522  1.00  0.00     0.691 C 
ATOM     36  H6  UNL     1      57.307  17.233  33.723  1.00  0.00     0.203 HD
HETATM   37  N7  UNL     1      59.457  18.088  32.547  1.00  0.00    -0.234 N 
HETATM   38  N8  UNL     1      59.721  15.859  31.816  1.00  0.00    -0.153 N 
ATOM     39  H72 UNL     1      58.952  18.813  33.057  1.00  0.00     0.174 HD
ATOM     40  H71 UNL     1      60.315  18.332  32.054  1.00  0.00     0.174 HD
ATOM     41  H8  UNL     1      60.433  16.126  31.137  1.00  0.00     0.184 HD
HETATM   42  N10 UNL     1      59.492  13.705  30.787  1.00  0.00    -0.291 N 
ATOM     43  H10 UNL     1      60.013  13.925  29.938  1.00  0.00     0.168 HD
BRANCH  30  44
HETATM   44  N9  UNL     1      60.418  13.893  32.947  1.00  0.00    -0.011 N 
ATOM     45  H93 UNL     1      60.134  13.999  33.921  1.00  0.00     0.282 HD
ATOM     46  H92 UNL     1      60.413  12.875  32.892  1.00  0.00     0.282 HD
ATOM     47  H91 UNL     1      61.352  14.272  32.787  1.00  0.00     0.282 HD
ENDBRANCH  30  44
ENDBRANCH   1  25
TORSDOF 9
ENDMDL
MODEL 5
REMARK VINA RESULT: -0.856109366      3.340      6.437
REMARK  9 active torsions:
REMARK  status: ('A' for Active; 'I' for Inactive)
REMARK    1  A    between atoms: N1_2  and  C2_3 
REMARK    2  A    between atoms: N1_2  and  C8_30 
REMARK    3  A    between atoms: C2_3  and  C3_4 
REMARK    4  A    between atoms: C3_4  and  N2_5 
REMARK    5  A    between atoms: N2_5  and  C4_7 
REMARK    6  A    between atoms: C7_23  and  N9_24 
REMARK    7  A    between atoms: C8_30  and  C9_31 
REMARK    8  A    between atoms: C9_31  and  N11_32 
REMARK    9  A    between atoms: C12_39  and  N14_40 
ROOT
HETATM    1  N2  UNL     1      59.212  11.299  30.619  1.00  0.00    -0.359 N 
ATOM      2  H2  UNL     1      58.537  10.979  29.925  1.00  0.00     0.162 HD
ENDROOT
BRANCH   1   3
HETATM    3  C3  UNL     1      60.357  10.469  30.907  1.00  0.00     0.153 C 
BRANCH   3   4
HETATM    4  C2  UNL     1      60.207   9.088  30.302  1.00  0.00     0.291 C 
BRANCH   4   5
HETATM    5  N1  UNL     1      59.405   9.134  29.087  1.00  0.00     0.087 N 
HETATM    6  C1  UNL     1      60.161   8.724  27.953  1.00  0.00     0.310 C 
BRANCH   5   7
HETATM    7  C8  UNL     1      58.138   8.566  29.284  1.00  0.00     0.292 C 
BRANCH   7   8
HETATM    8  C9  UNL     1      57.057   9.305  29.967  1.00  0.00     0.160 C 
BRANCH   8   9
HETATM    9  N11 UNL     1      55.914   9.647  29.140  1.00  0.00    -0.334 N 
HETATM   10  C10 UNL     1      54.737   8.952  29.118  1.00  0.00     0.185 A 
HETATM   11  N12 UNL     1      53.862   9.568  28.322  1.00  0.00    -0.336 N 
HETATM   12  C11 UNL     1      54.439  10.675  27.805  1.00  0.00     0.154 A 
ATOM     13  H12 UNL     1      52.910   9.254  28.134  1.00  0.00     0.168 HD
HETATM   14  N13 UNL     1      54.010  11.616  26.952  1.00  0.00    -0.174 N 
HETATM   15  C14 UNL     1      55.724  10.700  28.333  1.00  0.00     0.149 A 
HETATM   16  C12 UNL     1      54.833  12.633  26.575  1.00  0.00     0.680 A 
ATOM     17  H13 UNL     1      53.060  11.571  26.584  1.00  0.00     0.186 HD
HETATM   18  N15 UNL     1      56.087  12.707  27.050  1.00  0.00    -0.154 N 
HETATM   19  C13 UNL     1      56.517  11.755  27.911  1.00  0.00     0.290 A 
ATOM     20  H15 UNL     1      56.705  13.467  26.767  1.00  0.00     0.187 HD
HETATM   21  O1  UNL     1      57.679  11.822  28.341  1.00  0.00    -0.265 OA
BRANCH  16  22
HETATM   22  N14 UNL     1      54.413  13.535  25.756  1.00  0.00    -0.234 N 
ATOM     23 2H14 UNL     1      54.795  13.570  24.811  1.00  0.00     0.174 HD
ATOM     24 1H14 UNL     1      53.703  14.206  26.052  1.00  0.00     0.174 HD
ENDBRANCH  16  22
ENDBRANCH   8   9
ENDBRANCH   7   8
ENDBRANCH   5   7
ENDBRANCH   4   5
ENDBRANCH   3   4
ENDBRANCH   1   3
BRANCH   1  25
HETATM   25  C4  UNL     1      58.989  12.548  31.265  1.00  0.00     0.195 C 
HETATM   26  N3  UNL     1      58.148  12.857  32.190  1.00  0.00    -0.249 N 
HETATM   27  N4  UNL     1      58.264  14.207  32.542  1.00  0.00    -0.043 N 
ATOM     28  H3  UNL     1      57.486  12.205  32.611  1.00  0.00     0.191 HD
HETATM   29  C5  UNL     1      57.446  15.174  33.158  1.00  0.00     0.712 C 
HETATM   30  C7  UNL     1      59.591  14.603  32.128  1.00  0.00     0.406 C 
HETATM   31  N5  UNL     1      56.390  14.824  33.785  1.00  0.00    -0.232 N 
HETATM   32  N6  UNL     1      57.774  16.578  33.100  1.00  0.00    -0.021 N 
ATOM     33  H52 UNL     1      56.158  13.832  33.826  1.00  0.00     0.174 HD
ATOM     34  H51 UNL     1      55.797  15.524  34.231  1.00  0.00     0.174 HD
HETATM   35  C6  UNL     1      58.942  16.967  32.407  1.00  0.00     0.691 C 
ATOM     36  H6  UNL     1      57.178  17.273  33.550  1.00  0.00     0.203 HD
HETATM   37  N7  UNL     1      59.266  18.223  32.336  1.00  0.00    -0.234 N 
HETATM   38  N8  UNL     1      59.746  15.976  31.796  1.00  0.00    -0.153 N 
ATOM     39  H72 UNL     1      58.686  18.938  32.778  1.00  0.00     0.174 HD
ATOM     40  H71 UNL     1      60.108  18.504  31.836  1.00  0.00     0.174 HD
ATOM     41  H8  UNL     1      60.445  16.251  31.107  1.00  0.00     0.184 HD
HETATM   42  N10 UNL     1      59.735  13.734  30.946  1.00  0.00    -0.291 N 
ATOM     43  H10 UNL     1      60.251  13.932  30.088  1.00  0.00     0.168 HD
BRANCH  30  44
HETATM   44  N9  UNL     1      60.595  14.182  33.095  1.00  0.00    -0.011 N 
ATOM     45  H93 UNL     1      61.376  13.708  32.642  1.00  0.00     0.282 HD
ATOM     46  H92 UNL     1      61.099  14.979  33.484  1.00  0.00     0.282 HD
ATOM     47  H91 UNL     1      60.184  13.605  33.830  1.00  0.00     0.282 HD
ENDBRANCH  30  44
ENDBRANCH   1  25
TORSDOF 9
ENDMDL
