MODEL 1
REMARK VINA RESULT: -7.603534459      0.000      0.000
REMARK  12 active torsions:
REMARK  status: ('A' for Active; 'I' for Inactive)
REMARK    1  A    between atoms: N1_1  and  C1_4 
REMARK    2  A    between atoms: N5_16  and  C6_17 
REMARK    3  A    between atoms: C6_17  and  C7_18 
REMARK    4  A    between atoms: C7_18  and  O1_19 
REMARK    5  A    between atoms: C7_18  and  C8_21 
REMARK    6  A    between atoms: C9_24  and  N7_25 
REMARK    7  A    between atoms: N7_25  and  C10_27 
REMARK    8  A    between atoms: C13_34  and  C14_35 
REMARK    9  A    between atoms: C14_35  and  O2_36 
REMARK   10  A    between atoms: N10_38  and  C15_39 
REMARK   11  A    between atoms: C15_39  and  C16_40 
REMARK   12  A    between atoms: C16_40  and  O3_41 
ROOT
HETATM    1  C8  UNL     1      59.361   8.097  28.486  1.00  0.00     0.120 A 
HETATM    2  N6  UNL     1      58.643   6.997  28.072  1.00  0.00    -0.328 N 
ATOM      3  H6  UNL     1      57.830   6.642  28.575  1.00  0.00     0.169 HD
HETATM    4  C9  UNL     1      59.095   6.452  26.982  1.00  0.00     0.134 A 
HETATM    5  C13 UNL     1      60.215   7.222  26.626  1.00  0.00     0.081 A 
HETATM    6  N10 UNL     1      60.312   8.180  27.540  1.00  0.00    -0.331 N 
ENDROOT
BRANCH   1   7
HETATM    7  C7  UNL     1      58.906   8.883  29.617  1.00  0.00     0.224 C 
BRANCH   7   8
HETATM    8  C6  UNL     1      57.922   9.896  29.721  1.00  0.00     0.110 C 
BRANCH   8   9
HETATM    9  N5  UNL     1      56.579   9.895  29.314  1.00  0.00    -0.313 N 
HETATM   10  C3  UNL     1      55.902  10.724  28.467  1.00  0.00     0.129 A 
HETATM   11  C2  UNL     1      56.252  11.818  27.729  1.00  0.00     0.146 A 
HETATM   12  C4  UNL     1      54.570  10.334  28.356  1.00  0.00     0.153 A 
HETATM   13  N2  UNL     1      55.393  12.450  26.954  1.00  0.00    -0.175 N 
HETATM   14  N3  UNL     1      57.484  12.222  27.860  1.00  0.00    -0.383 N 
HETATM   15  C1  UNL     1      54.091  12.030  26.862  1.00  0.00     0.679 A 
ATOM     16  H2  UNL     1      55.701  13.261  26.418  1.00  0.00     0.186 HD
HETATM   17  N11 UNL     1      53.682  10.967  27.576  1.00  0.00    -0.174 N 
ATOM     18  H11 UNL     1      52.714  10.648  27.525  1.00  0.00     0.186 HD
ATOM     19  H32 UNL     1      57.745  13.040  27.309  1.00  0.00     0.157 HD
ATOM     20  H31 UNL     1      58.148  11.732  28.459  1.00  0.00     0.157 HD
HETATM   21  N4  UNL     1      54.439   9.273  29.125  1.00  0.00    -0.336 N 
HETATM   22  C5  UNL     1      55.603   9.020  29.691  1.00  0.00     0.189 A 
ATOM     23  H4  UNL     1      53.582   8.738  29.261  1.00  0.00     0.168 HD
BRANCH  15  24
HETATM   24  N1  UNL     1      53.350  12.655  26.087  1.00  0.00    -0.234 N 
ATOM     25  H12 UNL     1      52.746  13.421  26.387  1.00  0.00     0.174 HD
ATOM     26  H11 UNL     1      53.345  12.360  25.111  1.00  0.00     0.174 HD
ENDBRANCH  15  24
ENDBRANCH   8   9
ENDBRANCH   7   8
BRANCH   7  27
HETATM   27  O1  UNL     1      58.456   7.854  30.609  1.00  0.00    -0.383 OA
ATOM     28  H1  UNL     1      59.228   7.313  30.733  1.00  0.00     0.211 HD
ENDBRANCH   7  27
ENDBRANCH   1   7
BRANCH   6  29
HETATM   29  C15 UNL     1      61.247   9.263  27.366  1.00  0.00     0.156 C 
BRANCH  29  30
HETATM   30  C16 UNL     1      60.855  10.372  26.469  1.00  0.00     0.184 C 
BRANCH  30  31
HETATM   31  O3  UNL     1      62.004  10.813  25.750  1.00  0.00    -0.399 OA
ATOM     32  H3  UNL     1      61.917  10.554  24.840  1.00  0.00     0.209 HD
ENDBRANCH  30  31
ENDBRANCH  29  30
ENDBRANCH   6  29
BRANCH   4  33
HETATM   33  N7  UNL     1      58.741   5.290  26.258  1.00  0.00    -0.313 N 
ATOM     34  H7  UNL     1      59.449   4.659  25.885  1.00  0.00     0.170 HD
BRANCH  33  35
HETATM   35  C10 UNL     1      57.339   5.039  26.070  1.00  0.00     0.176 C 
HETATM   36  N8  UNL     1      56.329   5.672  26.396  1.00  0.00    -0.361 N 
HETATM   37  C11 UNL     1      55.120   4.978  25.965  1.00  0.00     0.142 C 
ATOM     38  H8  UNL     1      56.339   6.560  26.897  1.00  0.00     0.162 HD
HETATM   39  C12 UNL     1      55.566   3.661  25.437  1.00  0.00     0.142 C 
HETATM   40  N9  UNL     1      56.989   3.813  25.374  1.00  0.00    -0.361 N 
ATOM     41  H9  UNL     1      57.641   3.173  24.920  1.00  0.00     0.162 HD
ENDBRANCH  33  35
ENDBRANCH   4  33
BRANCH   5  42
HETATM   42  C14 UNL     1      60.882   6.996  25.309  1.00  0.00     0.225 C 
BRANCH  42  43
HETATM   43  O2  UNL     1      61.627   5.786  25.285  1.00  0.00    -0.395 OA
ATOM     44  H2  UNL     1      62.195   5.730  24.525  1.00  0.00     0.209 HD
ENDBRANCH  42  43
ENDBRANCH   5  42
TORSDOF 12
ENDMDL
MODEL 2
REMARK VINA RESULT: -7.139039350      0.512      1.613
REMARK  12 active torsions:
REMARK  status: ('A' for Active; 'I' for Inactive)
REMARK    1  A    between atoms: N1_1  and  C1_4 
REMARK    2  A    between atoms: N5_16  and  C6_17 
REMARK    3  A    between atoms: C6_17  and  C7_18 
REMARK    4  A    between atoms: C7_18  and  O1_19 
REMARK    5  A    between atoms: C7_18  and  C8_21 
REMARK    6  A    between atoms: C9_24  and  N7_25 
REMARK    7  A    between atoms: N7_25  and  C10_27 
REMARK    8  A    between atoms: C13_34  and  C14_35 
REMARK    9  A    between atoms: C14_35  and  O2_36 
REMARK   10  A    between atoms: N10_38  and  C15_39 
REMARK   11  A    between atoms: C15_39  and  C16_40 
REMARK   12  A    between atoms: C16_40  and  O3_41 
ROOT
HETATM    1  C8  UNL     1      59.146   8.051  28.477  1.00  0.00     0.120 A 
HETATM    2  N6  UNL     1      58.475   6.939  28.019  1.00  0.00    -0.328 N 
ATOM      3  H6  UNL     1      57.647   6.561  28.478  1.00  0.00     0.169 HD
HETATM    4  C9  UNL     1      58.993   6.415  26.949  1.00  0.00     0.134 A 
HETATM    5  C13 UNL     1      60.111   7.213  26.655  1.00  0.00     0.081 A 
HETATM    6  N10 UNL     1      60.141   8.164  27.580  1.00  0.00    -0.331 N 
ENDROOT
BRANCH   1   7
HETATM    7  C7  UNL     1      58.618   8.816  29.591  1.00  0.00     0.224 C 
BRANCH   7   8
HETATM    8  C6  UNL     1      57.502   9.682  29.690  1.00  0.00     0.110 C 
BRANCH   8   9
HETATM    9  N5  UNL     1      57.145  10.787  28.903  1.00  0.00    -0.313 N 
HETATM   10  C3  UNL     1      55.989  11.071  28.234  1.00  0.00     0.129 A 
HETATM   11  C2  UNL     1      54.798  10.423  28.080  1.00  0.00     0.146 A 
HETATM   12  C4  UNL     1      56.085  12.299  27.584  1.00  0.00     0.153 A 
HETATM   13  N2  UNL     1      53.805  10.929  27.378  1.00  0.00    -0.175 N 
HETATM   14  N3  UNL     1      54.712   9.251  28.644  1.00  0.00    -0.383 N 
HETATM   15  C1  UNL     1      53.932  12.148  26.761  1.00  0.00     0.679 A 
ATOM     16  H2  UNL     1      52.931  10.410  27.293  1.00  0.00     0.186 HD
HETATM   17  N11 UNL     1      55.087  12.829  26.864  1.00  0.00    -0.174 N 
ATOM     18  H11 UNL     1      55.201  13.731  26.402  1.00  0.00     0.186 HD
ATOM     19  H32 UNL     1      53.822   8.766  28.528  1.00  0.00     0.157 HD
ATOM     20  H31 UNL     1      55.480   8.859  29.187  1.00  0.00     0.157 HD
HETATM   21  N4  UNL     1      57.288  12.760  27.860  1.00  0.00    -0.336 N 
HETATM   22  C5  UNL     1      57.910  11.880  28.620  1.00  0.00     0.189 A 
ATOM     23  H4  UNL     1      57.674  13.648  27.539  1.00  0.00     0.168 HD
BRANCH  15  24
HETATM   24  N1  UNL     1      52.943  12.575  26.146  1.00  0.00    -0.234 N 
ATOM     25  H12 UNL     1      52.016  12.155  26.217  1.00  0.00     0.174 HD
ATOM     26  H11 UNL     1      53.089  13.374  25.530  1.00  0.00     0.174 HD
ENDBRANCH  15  24
ENDBRANCH   8   9
ENDBRANCH   7   8
BRANCH   7  27
HETATM   27  O1  UNL     1      58.353   7.780  30.641  1.00  0.00    -0.383 OA
ATOM     28  H1  UNL     1      57.934   8.272  31.337  1.00  0.00     0.211 HD
ENDBRANCH   7  27
ENDBRANCH   1   7
BRANCH   6  29
HETATM   29  C15 UNL     1      61.058   9.270  27.461  1.00  0.00     0.156 C 
BRANCH  29  30
HETATM   30  C16 UNL     1      60.746  10.319  26.466  1.00  0.00     0.184 C 
BRANCH  30  31
HETATM   31  O3  UNL     1      61.960  10.759  25.862  1.00  0.00    -0.399 OA
ATOM     32  H3  UNL     1      61.785  11.541  25.352  1.00  0.00     0.209 HD
ENDBRANCH  30  31
ENDBRANCH  29  30
ENDBRANCH   6  29
BRANCH   4  33
HETATM   33  N7  UNL     1      58.702   5.252  26.198  1.00  0.00    -0.313 N 
ATOM     34  H7  UNL     1      59.443   4.659  25.825  1.00  0.00     0.170 HD
BRANCH  33  35
HETATM   35  C10 UNL     1      57.315   4.943  25.982  1.00  0.00     0.176 C 
HETATM   36  N8  UNL     1      56.273   5.500  26.344  1.00  0.00    -0.361 N 
HETATM   37  C11 UNL     1      55.103   4.778  25.856  1.00  0.00     0.142 C 
ATOM     38  H8  UNL     1      56.235   6.350  26.907  1.00  0.00     0.162 HD
HETATM   39  C12 UNL     1      55.618   3.526  25.239  1.00  0.00     0.142 C 
HETATM   40  N9  UNL     1      57.032   3.754  25.198  1.00  0.00    -0.361 N 
ATOM     41  H9  UNL     1      57.718   3.182  24.705  1.00  0.00     0.162 HD
ENDBRANCH  33  35
ENDBRANCH   4  33
BRANCH   5  42
HETATM   42  C14 UNL     1      60.847   7.015  25.370  1.00  0.00     0.225 C 
BRANCH  42  43
HETATM   43  O2  UNL     1      61.531   5.770  25.330  1.00  0.00    -0.395 OA
ATOM     44  H2  UNL     1      61.148   5.170  24.700  1.00  0.00     0.209 HD
ENDBRANCH  42  43
ENDBRANCH   5  42
TORSDOF 12
ENDMDL
MODEL 3
REMARK VINA RESULT: -6.838093340      0.969      1.931
REMARK  12 active torsions:
REMARK  status: ('A' for Active; 'I' for Inactive)
REMARK    1  A    between atoms: N1_1  and  C1_4 
REMARK    2  A    between atoms: N5_16  and  C6_17 
REMARK    3  A    between atoms: C6_17  and  C7_18 
REMARK    4  A    between atoms: C7_18  and  O1_19 
REMARK    5  A    between atoms: C7_18  and  C8_21 
REMARK    6  A    between atoms: C9_24  and  N7_25 
REMARK    7  A    between atoms: N7_25  and  C10_27 
REMARK    8  A    between atoms: C13_34  and  C14_35 
REMARK    9  A    between atoms: C14_35  and  O2_36 
REMARK   10  A    between atoms: N10_38  and  C15_39 
REMARK   11  A    between atoms: C15_39  and  C16_40 
REMARK   12  A    between atoms: C16_40  and  O3_41 
ROOT
HETATM    1  C8  UNL     1      59.893   8.156  28.641  1.00  0.00     0.120 A 
HETATM    2  N6  UNL     1      59.205   7.014  28.296  1.00  0.00    -0.328 N 
ATOM      3  H6  UNL     1      58.473   6.608  28.878  1.00  0.00     0.169 HD
HETATM    4  C9  UNL     1      59.572   6.501  27.159  1.00  0.00     0.134 A 
HETATM    5  C13 UNL     1      60.598   7.339  26.694  1.00  0.00     0.081 A 
HETATM    6  N10 UNL     1      60.733   8.299  27.600  1.00  0.00    -0.331 N 
ENDROOT
BRANCH   1   7
HETATM    7  C7  UNL     1      59.513   8.909  29.820  1.00  0.00     0.224 C 
BRANCH   7   8
HETATM    8  C6  UNL     1      58.685  10.047  29.981  1.00  0.00     0.110 C 
BRANCH   8   9
HETATM    9  N5  UNL     1      57.660  10.539  29.161  1.00  0.00    -0.313 N 
HETATM   10  C3  UNL     1      56.341  10.195  29.074  1.00  0.00     0.129 A 
HETATM   11  C2  UNL     1      55.554   9.283  29.718  1.00  0.00     0.146 A 
HETATM   12  C4  UNL     1      55.693  10.964  28.112  1.00  0.00     0.153 A 
HETATM   13  N2  UNL     1      54.269   9.152  29.457  1.00  0.00    -0.175 N 
HETATM   14  N3  UNL     1      56.159   8.524  30.587  1.00  0.00    -0.383 N 
HETATM   15  C1  UNL     1      53.662   9.936  28.509  1.00  0.00     0.679 A 
ATOM     16  H2  UNL     1      53.720   8.460  29.966  1.00  0.00     0.186 HD
HETATM   17  N11 UNL     1      54.388  10.842  27.831  1.00  0.00    -0.174 N 
ATOM     18  H11 UNL     1      53.953  11.426  27.116  1.00  0.00     0.186 HD
ATOM     19  H32 UNL     1      55.571   7.843  31.068  1.00  0.00     0.157 HD
ATOM     20  H31 UNL     1      57.153   8.626  30.789  1.00  0.00     0.157 HD
HETATM   21  N4  UNL     1      56.608  11.774  27.621  1.00  0.00    -0.336 N 
HETATM   22  C5  UNL     1      57.755  11.525  28.222  1.00  0.00     0.189 A 
ATOM     23  H4  UNL     1      56.456  12.476  26.896  1.00  0.00     0.168 HD
BRANCH  15  24
HETATM   24  N1  UNL     1      52.443   9.778  28.343  1.00  0.00    -0.234 N 
ATOM     25  H12 UNL     1      51.907   9.041  28.801  1.00  0.00     0.174 HD
ATOM     26  H11 UNL     1      51.977  10.415  27.698  1.00  0.00     0.174 HD
ENDBRANCH  15  24
ENDBRANCH   8   9
ENDBRANCH   7   8
BRANCH   7  27
HETATM   27  O1  UNL     1      58.878   7.884  30.710  1.00  0.00    -0.383 OA
ATOM     28  H1  UNL     1      59.618   7.399  31.055  1.00  0.00     0.211 HD
ENDBRANCH   7  27
ENDBRANCH   1   7
BRANCH   6  29
HETATM   29  C15 UNL     1      61.575   9.439  27.338  1.00  0.00     0.156 C 
BRANCH  29  30
HETATM   30  C16 UNL     1      61.069  10.467  26.402  1.00  0.00     0.184 C 
BRANCH  30  31
HETATM   31  O3  UNL     1      62.157  10.953  25.618  1.00  0.00    -0.399 OA
ATOM     32  H3  UNL     1      61.980  11.854  25.371  1.00  0.00     0.209 HD
ENDBRANCH  30  31
ENDBRANCH  29  30
ENDBRANCH   6  29
BRANCH   4  33
HETATM   33  N7  UNL     1      59.215   5.320  26.466  1.00  0.00    -0.313 N 
ATOM     34  H7  UNL     1      59.917   4.637  26.181  1.00  0.00     0.170 HD
BRANCH  33  35
HETATM   35  C10 UNL     1      57.821   5.126  26.181  1.00  0.00     0.176 C 
HETATM   36  N8  UNL     1      56.815   5.786  26.460  1.00  0.00    -0.361 N 
HETATM   37  C11 UNL     1      55.613   5.150  25.930  1.00  0.00     0.142 C 
ATOM     38  H8  UNL     1      56.823   6.658  26.989  1.00  0.00     0.162 HD
HETATM   39  C12 UNL     1      56.047   3.833  25.392  1.00  0.00     0.142 C 
HETATM   40  N9  UNL     1      57.475   3.934  25.425  1.00  0.00    -0.361 N 
ATOM     41  H9  UNL     1      58.133   3.284  24.995  1.00  0.00     0.162 HD
ENDBRANCH  33  35
ENDBRANCH   4  33
BRANCH   5  42
HETATM   42  C14 UNL     1      61.135   7.157  25.311  1.00  0.00     0.225 C 
BRANCH  42  43
HETATM   43  O2  UNL     1      62.555   7.168  25.281  1.00  0.00    -0.395 OA
ATOM     44  H2  UNL     1      62.894   7.512  24.462  1.00  0.00     0.209 HD
ENDBRANCH  42  43
ENDBRANCH   5  42
TORSDOF 12
ENDMDL
MODEL 4
REMARK VINA RESULT: -6.192852549      1.253      2.035
REMARK  12 active torsions:
REMARK  status: ('A' for Active; 'I' for Inactive)
REMARK    1  A    between atoms: N1_1  and  C1_4 
REMARK    2  A    between atoms: N5_16  and  C6_17 
REMARK    3  A    between atoms: C6_17  and  C7_18 
REMARK    4  A    between atoms: C7_18  and  O1_19 
REMARK    5  A    between atoms: C7_18  and  C8_21 
REMARK    6  A    between atoms: C9_24  and  N7_25 
REMARK    7  A    between atoms: N7_25  and  C10_27 
REMARK    8  A    between atoms: C13_34  and  C14_35 
REMARK    9  A    between atoms: C14_35  and  O2_36 
REMARK   10  A    between atoms: N10_38  and  C15_39 
REMARK   11  A    between atoms: C15_39  and  C16_40 
REMARK   12  A    between atoms: C16_40  and  O3_41 
ROOT
HETATM    1  C8  UNL     1      58.725   7.937  28.636  1.00  0.00     0.120 A 
HETATM    2  N6  UNL     1      57.991   7.022  27.914  1.00  0.00    -0.328 N 
ATOM      3  H6  UNL     1      57.027   6.779  28.141  1.00  0.00     0.169 HD
HETATM    4  C9  UNL     1      58.638   6.498  26.917  1.00  0.00     0.134 A 
HETATM    5  C13 UNL     1      59.915   7.080  26.962  1.00  0.00     0.081 A 
HETATM    6  N10 UNL     1      59.901   7.926  27.985  1.00  0.00    -0.331 N 
ENDROOT
BRANCH   1   7
HETATM    7  C7  UNL     1      58.101   8.695  29.704  1.00  0.00     0.224 C 
BRANCH   7   8
HETATM    8  C6  UNL     1      56.988   9.571  29.707  1.00  0.00     0.110 C 
BRANCH   8   9
HETATM    9  N5  UNL     1      56.727  10.701  28.919  1.00  0.00    -0.313 N 
HETATM   10  C3  UNL     1      55.635  11.037  28.171  1.00  0.00     0.129 A 
HETATM   11  C2  UNL     1      54.438  10.433  27.915  1.00  0.00     0.146 A 
HETATM   12  C4  UNL     1      55.820  12.272  27.556  1.00  0.00     0.153 A 
HETATM   13  N2  UNL     1      53.518  10.986  27.151  1.00  0.00    -0.175 N 
HETATM   14  N3  UNL     1      54.271   9.255  28.446  1.00  0.00    -0.383 N 
HETATM   15  C1  UNL     1      53.732  12.210  26.570  1.00  0.00     0.679 A 
ATOM     16  H2  UNL     1      52.637  10.498  26.991  1.00  0.00     0.186 HD
HETATM   17  N11 UNL     1      54.897  12.849  26.773  1.00  0.00    -0.174 N 
ATOM     18  H11 UNL     1      55.074  13.755  26.341  1.00  0.00     0.186 HD
ATOM     19  H32 UNL     1      53.377   8.803  28.254  1.00  0.00     0.157 HD
ATOM     20  H31 UNL     1      54.984   8.827  29.037  1.00  0.00     0.157 HD
HETATM   21  N4  UNL     1      57.013  12.687  27.930  1.00  0.00    -0.336 N 
HETATM   22  C5  UNL     1      57.547  11.773  28.716  1.00  0.00     0.189 A 
ATOM     23  H4  UNL     1      57.451  13.567  27.657  1.00  0.00     0.168 HD
BRANCH  15  24
HETATM   24  N1  UNL     1      52.806  12.682  25.892  1.00  0.00    -0.234 N 
ATOM     25  H12 UNL     1      51.840  12.362  25.966  1.00  0.00     0.174 HD
ATOM     26  H11 UNL     1      53.048  13.410  25.221  1.00  0.00     0.174 HD
ENDBRANCH  15  24
ENDBRANCH   8   9
ENDBRANCH   7   8
BRANCH   7  27
HETATM   27  O1  UNL     1      57.728   7.651  30.712  1.00  0.00    -0.383 OA
ATOM     28  H1  UNL     1      57.883   8.081  31.545  1.00  0.00     0.211 HD
ENDBRANCH   7  27
ENDBRANCH   1   7
BRANCH   6  29
HETATM   29  C15 UNL     1      61.000   8.834  28.198  1.00  0.00     0.156 C 
BRANCH  29  30
HETATM   30  C16 UNL     1      61.512   8.982  29.577  1.00  0.00     0.184 C 
BRANCH  30  31
HETATM   31  O3  UNL     1      61.560   7.696  30.192  1.00  0.00    -0.399 OA
ATOM     32  H3  UNL     1      61.436   7.798  31.129  1.00  0.00     0.209 HD
ENDBRANCH  30  31
ENDBRANCH  29  30
ENDBRANCH   6  29
BRANCH   4  33
HETATM   33  N7  UNL     1      58.325   5.483  25.982  1.00  0.00    -0.313 N 
ATOM     34  H7  UNL     1      59.035   5.093  25.362  1.00  0.00     0.170 HD
BRANCH  33  35
HETATM   35  C10 UNL     1      56.964   5.025  25.945  1.00  0.00     0.176 C 
HETATM   36  N8  UNL     1      55.918   5.487  26.412  1.00  0.00    -0.361 N 
HETATM   37  C11 UNL     1      54.783   4.629  26.091  1.00  0.00     0.142 C 
ATOM     38  H8  UNL     1      55.856   6.352  26.949  1.00  0.00     0.162 HD
HETATM   39  C12 UNL     1      55.353   3.410  25.456  1.00  0.00     0.142 C 
HETATM   40  N9  UNL     1      56.720   3.780  25.238  1.00  0.00    -0.361 N 
ATOM     41  H9  UNL     1      57.401   3.260  24.684  1.00  0.00     0.162 HD
ENDBRANCH  33  35
ENDBRANCH   4  33
BRANCH   5  42
HETATM   42  C14 UNL     1      60.876   6.848  25.842  1.00  0.00     0.225 C 
BRANCH  42  43
HETATM   43  O2  UNL     1      61.294   5.492  25.765  1.00  0.00    -0.395 OA
ATOM     44  H2  UNL     1      61.318   5.075  26.619  1.00  0.00     0.209 HD
ENDBRANCH  42  43
ENDBRANCH   5  42
TORSDOF 12
ENDMDL
MODEL 5
REMARK VINA RESULT: -5.952965202      1.192      1.278
REMARK  12 active torsions:
REMARK  status: ('A' for Active; 'I' for Inactive)
REMARK    1  A    between atoms: N1_1  and  C1_4 
REMARK    2  A    between atoms: N5_16  and  C6_17 
REMARK    3  A    between atoms: C6_17  and  C7_18 
REMARK    4  A    between atoms: C7_18  and  O1_19 
REMARK    5  A    between atoms: C7_18  and  C8_21 
REMARK    6  A    between atoms: C9_24  and  N7_25 
REMARK    7  A    between atoms: N7_25  and  C10_27 
REMARK    8  A    between atoms: C13_34  and  C14_35 
REMARK    9  A    between atoms: C14_35  and  O2_36 
REMARK   10  A    between atoms: N10_38  and  C15_39 
REMARK   11  A    between atoms: C15_39  and  C16_40 
REMARK   12  A    between atoms: C16_40  and  O3_41 
ROOT
HETATM    1  C8  UNL     1      58.821   8.041  28.613  1.00  0.00     0.120 A 
HETATM    2  N6  UNL     1      58.041   7.135  27.928  1.00  0.00    -0.328 N 
ATOM      3  H6  UNL     1      57.076   6.926  28.184  1.00  0.00     0.169 HD
HETATM    4  C9  UNL     1      58.647   6.570  26.926  1.00  0.00     0.134 A 
HETATM    5  C13 UNL     1      59.941   7.114  26.928  1.00  0.00     0.081 A 
HETATM    6  N10 UNL     1      59.980   7.980  27.933  1.00  0.00    -0.331 N 
ENDROOT
BRANCH   1   7
HETATM    7  C7  UNL     1      58.248   8.839  29.679  1.00  0.00     0.224 C 
BRANCH   7   8
HETATM    8  C6  UNL     1      57.309   9.899  29.658  1.00  0.00     0.110 C 
BRANCH   8   9
HETATM    9  N5  UNL     1      56.017   9.949  29.113  1.00  0.00    -0.313 N 
HETATM   10  C3  UNL     1      55.450  10.831  28.237  1.00  0.00     0.129 A 
HETATM   11  C2  UNL     1      55.898  11.947  27.591  1.00  0.00     0.146 A 
HETATM   12  C4  UNL     1      54.130  10.479  27.970  1.00  0.00     0.153 A 
HETATM   13  N2  UNL     1      55.139  12.633  26.761  1.00  0.00    -0.175 N 
HETATM   14  N3  UNL     1      57.116  12.314  27.870  1.00  0.00    -0.383 N 
HETATM   15  C1  UNL     1      53.845  12.249  26.513  1.00  0.00     0.679 A 
ATOM     16  H2  UNL     1      55.517  13.459  26.298  1.00  0.00     0.186 HD
HETATM   17  N11 UNL     1      53.342  11.167  27.131  1.00  0.00    -0.174 N 
ATOM     18  H11 UNL     1      52.379  10.874  26.964  1.00  0.00     0.186 HD
ATOM     19  H32 UNL     1      57.451  13.148  27.387  1.00  0.00     0.157 HD
ATOM     20  H31 UNL     1      57.704  11.782  28.512  1.00  0.00     0.157 HD
HETATM   21  N4  UNL     1      53.897   9.389  28.672  1.00  0.00    -0.336 N 
HETATM   22  C5  UNL     1      54.989   9.082  29.344  1.00  0.00     0.189 A 
ATOM     23  H4  UNL     1      53.019   8.869  28.692  1.00  0.00     0.168 HD
BRANCH  15  24
HETATM   24  N1  UNL     1      53.204  12.926  25.695  1.00  0.00    -0.234 N 
ATOM     25  H12 UNL     1      52.747  12.526  24.875  1.00  0.00     0.174 HD
ATOM     26  H11 UNL     1      53.159  13.931  25.858  1.00  0.00     0.174 HD
ENDBRANCH  15  24
ENDBRANCH   8   9
ENDBRANCH   7   8
BRANCH   7  27
HETATM   27  O1  UNL     1      57.612   7.826  30.582  1.00  0.00    -0.383 OA
ATOM     28  H1  UNL     1      57.786   7.000  30.146  1.00  0.00     0.211 HD
ENDBRANCH   7  27
ENDBRANCH   1   7
BRANCH   6  29
HETATM   29  C15 UNL     1      61.111   8.857  28.099  1.00  0.00     0.156 C 
BRANCH  29  30
HETATM   30  C16 UNL     1      61.633   9.053  29.469  1.00  0.00     0.184 C 
BRANCH  30  31
HETATM   31  O3  UNL     1      61.606   7.804  30.157  1.00  0.00    -0.399 OA
ATOM     32  H3  UNL     1      62.395   7.724  30.681  1.00  0.00     0.209 HD
ENDBRANCH  30  31
ENDBRANCH  29  30
ENDBRANCH   6  29
BRANCH   4  33
HETATM   33  N7  UNL     1      58.279   5.547  26.021  1.00  0.00    -0.313 N 
ATOM     34  H7  UNL     1      58.957   5.133  25.383  1.00  0.00     0.170 HD
BRANCH  33  35
HETATM   35  C10 UNL     1      56.908   5.117  26.041  1.00  0.00     0.176 C 
HETATM   36  N8  UNL     1      55.891   5.605  26.545  1.00  0.00    -0.361 N 
HETATM   37  C11 UNL     1      54.727   4.768  26.276  1.00  0.00     0.142 C 
ATOM     38  H8  UNL     1      55.868   6.475  27.078  1.00  0.00     0.162 HD
HETATM   39  C12 UNL     1      55.246   3.533  25.630  1.00  0.00     0.142 C 
HETATM   40  N9  UNL     1      56.611   3.872  25.355  1.00  0.00    -0.361 N 
ATOM     41  H9  UNL     1      57.258   3.335  24.779  1.00  0.00     0.162 HD
ENDBRANCH  33  35
ENDBRANCH   4  33
BRANCH   5  42
HETATM   42  C14 UNL     1      60.866   6.829  25.790  1.00  0.00     0.225 C 
BRANCH  42  43
HETATM   43  O2  UNL     1      61.300   5.476  25.776  1.00  0.00    -0.395 OA
ATOM     44  H2  UNL     1      60.794   4.931  26.366  1.00  0.00     0.209 HD
ENDBRANCH  42  43
ENDBRANCH   5  42
TORSDOF 12
ENDMDL
