MODEL 1
REMARK VINA RESULT: -10.908233905      0.000      0.000
REMARK  3 active torsions:
REMARK  status: ('A' for Active; 'I' for Inactive)
REMARK    1  A    between atoms: C6_6  and  N1_7 
REMARK    2  A    between atoms: N1_7  and  C7_9 
REMARK    3  A    between atoms: C7_9  and  C8_10 
ROOT
HETATM    1  C1  UNL     1      48.792  22.997  96.198  1.00  0.00     0.015 C 
HETATM    2  C2  UNL     1      47.621  22.823  96.741  1.00  0.00    -0.080 C 
HETATM    3  C3  UNL     1      46.787  23.870  97.409  1.00  0.00     0.068 C 
HETATM    4  C4  UNL     1      46.086  23.137  98.481  1.00  0.00    -0.068 C 
HETATM    5  C5  UNL     1      45.253  23.393  99.497  1.00  0.00     0.002 C 
HETATM    6  C6  UNL     1      44.775  22.319 100.369  1.00  0.00     0.105 C 
HETATM    7  C17 UNL     1      44.437  21.035  99.617  1.00  0.00     0.039 C 
HETATM    8  C18 UNL     1      45.132  20.869  98.343  1.00  0.00     0.029 C 
HETATM    9  C19 UNL     1      45.574  19.489  98.004  1.00  0.00    -0.084 C 
HETATM   10  C20 UNL     1      44.826  18.484  98.411  1.00  0.00     0.015 C 
HETATM   11  C21 UNL     1      46.797  19.186  97.245  1.00  0.00     0.034 C 
HETATM   12  C22 UNL     1      47.507  20.321  96.617  1.00  0.00     0.014 C 
HETATM   13  C23 UNL     1      46.829  21.606  96.848  1.00  0.00     0.027 C 
HETATM   14  C24 UNL     1      46.408  21.684  98.313  1.00  0.00    -0.006 C 
HETATM   15  C25 UNL     1      47.463  21.241  99.248  1.00  0.00     0.021 C 
ENDROOT
BRANCH   6  16
HETATM   16  N1  UNL     1      43.737  22.596 101.251  1.00  0.00    -0.391 N 
ATOM     17  H1  UNL     1      43.922  23.283 101.981  1.00  0.00     0.159 HD
BRANCH  16  18
HETATM   18  C7  UNL     1      42.471  22.024 101.230  1.00  0.00     0.090 C 
BRANCH  18  19
HETATM   19  C8  UNL     1      41.352  22.942 100.914  1.00  0.00    -0.047 C 
HETATM   20  C9  UNL     1      41.557  24.245 100.709  1.00  0.00    -0.018 C 
HETATM   21  C10 UNL     1      40.461  25.190 100.389  1.00  0.00     0.028 C 
HETATM   22  C11 UNL     1      39.543  25.516 101.513  1.00  0.00     0.004 C 
HETATM   23  C12 UNL     1      40.061  25.127 102.854  1.00  0.00     0.000 C 
HETATM   24  C13 UNL     1      39.218  24.176 103.629  1.00  0.00     0.000 C 
HETATM   25  C14 UNL     1      38.551  23.093 102.853  1.00  0.00     0.000 C 
HETATM   26  C15 UNL     1      39.485  22.062 102.293  1.00  0.00     0.005 C 
HETATM   27  C16 UNL     1      39.943  22.366 100.875  1.00  0.00     0.039 C 
ENDBRANCH  18  19
ENDBRANCH  16  18
ENDBRANCH   6  16
TORSDOF 3
ENDMDL
MODEL 2
REMARK VINA RESULT: -10.363872047      1.456      3.713
REMARK  3 active torsions:
REMARK  status: ('A' for Active; 'I' for Inactive)
REMARK    1  A    between atoms: C6_6  and  N1_7 
REMARK    2  A    between atoms: N1_7  and  C7_9 
REMARK    3  A    between atoms: C7_9  and  C8_10 
ROOT
HETATM    1  C1  UNL     1      46.079  17.404  97.316  1.00  0.00     0.015 C 
HETATM    2  C2  UNL     1      45.574  18.142  98.263  1.00  0.00    -0.080 C 
HETATM    3  C3  UNL     1      44.500  17.741  99.224  1.00  0.00     0.068 C 
HETATM    4  C4  UNL     1      43.755  18.991  99.468  1.00  0.00    -0.068 C 
HETATM    5  C5  UNL     1      42.668  19.402 100.133  1.00  0.00     0.002 C 
HETATM    6  C6  UNL     1      42.254  20.806 100.106  1.00  0.00     0.105 C 
HETATM    7  C17 UNL     1      43.423  21.783 100.191  1.00  0.00     0.039 C 
HETATM    8  C18 UNL     1      44.702  21.251  99.731  1.00  0.00     0.029 C 
HETATM    9  C19 UNL     1      45.578  22.190  98.978  1.00  0.00    -0.084 C 
HETATM   10  C20 UNL     1      45.548  23.464  99.312  1.00  0.00     0.015 C 
HETATM   11  C21 UNL     1      46.471  21.776  97.885  1.00  0.00     0.034 C 
HETATM   12  C22 UNL     1      46.653  20.325  97.667  1.00  0.00     0.014 C 
HETATM   13  C23 UNL     1      45.898  19.512  98.632  1.00  0.00     0.027 C 
HETATM   14  C24 UNL     1      44.494  20.095  98.775  1.00  0.00    -0.006 C 
HETATM   15  C25 UNL     1      43.874  20.446  97.481  1.00  0.00     0.021 C 
ENDROOT
BRANCH   6  16
HETATM   16  N1  UNL     1      41.270  21.222 100.995  1.00  0.00    -0.391 N 
ATOM     17  H1  UNL     1      40.998  20.564 101.725  1.00  0.00     0.159 HD
BRANCH  16  18
HETATM   18  C7  UNL     1      40.621  22.451 100.981  1.00  0.00     0.090 C 
BRANCH  18  19
HETATM   19  C8  UNL     1      40.247  22.999 102.306  1.00  0.00    -0.047 C 
HETATM   20  C9  UNL     1      39.510  22.295 103.168  1.00  0.00    -0.018 C 
HETATM   21  C10 UNL     1      39.120  22.812 104.501  1.00  0.00     0.028 C 
HETATM   22  C11 UNL     1      38.087  23.883 104.500  1.00  0.00     0.004 C 
HETATM   23  C12 UNL     1      37.359  24.024 103.208  1.00  0.00     0.000 C 
HETATM   24  C13 UNL     1      37.448  25.356 102.550  1.00  0.00     0.000 C 
HETATM   25  C14 UNL     1      38.763  26.052 102.631  1.00  0.00     0.000 C 
HETATM   26  C15 UNL     1      39.860  25.406 101.838  1.00  0.00     0.005 C 
HETATM   27  C16 UNL     1      40.688  24.416 102.643  1.00  0.00     0.039 C 
ENDBRANCH  18  19
ENDBRANCH  16  18
ENDBRANCH   6  16
TORSDOF 3
ENDMDL
MODEL 3
REMARK VINA RESULT: -10.229037275      1.188      3.265
REMARK  3 active torsions:
REMARK  status: ('A' for Active; 'I' for Inactive)
REMARK    1  A    between atoms: C6_6  and  N1_7 
REMARK    2  A    between atoms: N1_7  and  C7_9 
REMARK    3  A    between atoms: C7_9  and  C8_10 
ROOT
HETATM    1  C1  UNL     1      44.056  16.219  97.456  1.00  0.00     0.015 C 
HETATM    2  C2  UNL     1      44.346  17.224  98.232  1.00  0.00    -0.080 C 
HETATM    3  C3  UNL     1      43.556  17.692  99.413  1.00  0.00     0.068 C 
HETATM    4  C4  UNL     1      43.753  19.154  99.418  1.00  0.00    -0.068 C 
HETATM    5  C5  UNL     1      43.329  20.225 100.099  1.00  0.00     0.002 C 
HETATM    6  C6  UNL     1      43.793  21.570  99.755  1.00  0.00     0.105 C 
HETATM    7  C17 UNL     1      45.276  21.626  99.400  1.00  0.00     0.039 C 
HETATM    8  C18 UNL     1      45.838  20.368  98.917  1.00  0.00     0.029 C 
HETATM    9  C19 UNL     1      46.837  20.467  97.818  1.00  0.00    -0.084 C 
HETATM   10  C20 UNL     1      47.627  21.521  97.795  1.00  0.00     0.015 C 
HETATM   11  C21 UNL     1      46.989  19.459  96.758  1.00  0.00     0.034 C 
HETATM   12  C22 UNL     1      46.249  18.188  96.916  1.00  0.00     0.014 C 
HETATM   13  C23 UNL     1      45.476  18.140  98.166  1.00  0.00     0.027 C 
HETATM   14  C24 UNL     1      44.756  19.473  98.351  1.00  0.00    -0.006 C 
HETATM   15  C25 UNL     1      44.109  19.964  97.116  1.00  0.00     0.021 C 
ENDROOT
BRANCH   6  16
HETATM   16  N1  UNL     1      43.514  22.610 100.634  1.00  0.00    -0.391 N 
ATOM     17  H1  UNL     1      44.131  23.422 100.601  1.00  0.00     0.159 HD
BRANCH  16  18
HETATM   18  C7  UNL     1      42.472  22.648 101.553  1.00  0.00     0.090 C 
BRANCH  18  19
HETATM   19  C8  UNL     1      41.259  23.383 101.126  1.00  0.00    -0.047 C 
HETATM   20  C9  UNL     1      41.298  24.688 100.848  1.00  0.00    -0.018 C 
HETATM   21  C10 UNL     1      40.104  25.453 100.416  1.00  0.00     0.028 C 
HETATM   22  C11 UNL     1      39.089  25.713 101.471  1.00  0.00     0.004 C 
HETATM   23  C12 UNL     1      39.578  25.476 102.858  1.00  0.00     0.000 C 
HETATM   24  C13 UNL     1      38.829  24.463 103.650  1.00  0.00     0.000 C 
HETATM   25  C14 UNL     1      38.359  23.256 102.915  1.00  0.00     0.000 C 
HETATM   26  C15 UNL     1      39.453  22.334 102.467  1.00  0.00     0.005 C 
HETATM   27  C16 UNL     1      39.946  22.617 101.056  1.00  0.00     0.039 C 
ENDBRANCH  18  19
ENDBRANCH  16  18
ENDBRANCH   6  16
TORSDOF 3
ENDMDL
MODEL 4
REMARK VINA RESULT: -9.861317634      1.127      3.029
REMARK  3 active torsions:
REMARK  status: ('A' for Active; 'I' for Inactive)
REMARK    1  A    between atoms: C6_6  and  N1_7 
REMARK    2  A    between atoms: N1_7  and  C7_9 
REMARK    3  A    between atoms: C7_9  and  C8_10 
ROOT
HETATM    1  C1  UNL     1      46.296  17.224  96.847  1.00  0.00     0.015 C 
HETATM    2  C2  UNL     1      45.932  18.002  97.826  1.00  0.00    -0.080 C 
HETATM    3  C3  UNL     1      45.037  17.635  98.968  1.00  0.00     0.068 C 
HETATM    4  C4  UNL     1      44.310  18.883  99.268  1.00  0.00    -0.068 C 
HETATM    5  C5  UNL     1      43.335  19.311 100.079  1.00  0.00     0.002 C 
HETATM    6  C6  UNL     1      42.887  20.704 100.050  1.00  0.00     0.105 C 
HETATM    7  C17 UNL     1      44.029  21.704  99.895  1.00  0.00     0.039 C 
HETATM    8  C18 UNL     1      45.230  21.170  99.260  1.00  0.00     0.029 C 
HETATM    9  C19 UNL     1      45.949  22.082  98.329  1.00  0.00    -0.084 C 
HETATM   10  C20 UNL     1      45.940  23.371  98.600  1.00  0.00     0.015 C 
HETATM   11  C21 UNL     1      46.664  21.626  97.127  1.00  0.00     0.034 C 
HETATM   12  C22 UNL     1      46.844  20.168  96.954  1.00  0.00     0.014 C 
HETATM   13  C23 UNL     1      46.277  19.395  98.069  1.00  0.00     0.027 C 
HETATM   14  C24 UNL     1      44.900  19.961  98.409  1.00  0.00    -0.006 C 
HETATM   15  C25 UNL     1      44.069  20.233  97.218  1.00  0.00     0.021 C 
ENDROOT
BRANCH   6  16
HETATM   16  N1  UNL     1      42.049  21.150 101.066  1.00  0.00    -0.391 N 
ATOM     17  H1  UNL     1      41.380  20.478 101.442  1.00  0.00     0.159 HD
BRANCH  16  18
HETATM   18  C7  UNL     1      42.038  22.425 101.617  1.00  0.00     0.090 C 
BRANCH  18  19
HETATM   19  C8  UNL     1      40.919  23.301 101.198  1.00  0.00    -0.047 C 
HETATM   20  C9  UNL     1      41.110  24.594 100.929  1.00  0.00    -0.018 C 
HETATM   21  C10 UNL     1      40.014  25.497 100.505  1.00  0.00     0.028 C 
HETATM   22  C11 UNL     1      39.037  25.867 101.565  1.00  0.00     0.004 C 
HETATM   23  C12 UNL     1      39.498  25.564 102.949  1.00  0.00     0.000 C 
HETATM   24  C13 UNL     1      38.637  24.641 103.736  1.00  0.00     0.000 C 
HETATM   25  C14 UNL     1      38.027  23.502 102.994  1.00  0.00     0.000 C 
HETATM   26  C15 UNL     1      39.004  22.461 102.537  1.00  0.00     0.005 C 
HETATM   27  C16 UNL     1      39.524  22.695 101.127  1.00  0.00     0.039 C 
ENDBRANCH  18  19
ENDBRANCH  16  18
ENDBRANCH   6  16
TORSDOF 3
ENDMDL
MODEL 5
REMARK VINA RESULT: -9.081167982      1.967      7.420
REMARK  3 active torsions:
REMARK  status: ('A' for Active; 'I' for Inactive)
REMARK    1  A    between atoms: C6_6  and  N1_7 
REMARK    2  A    between atoms: N1_7  and  C7_9 
REMARK    3  A    between atoms: C7_9  and  C8_10 
ROOT
HETATM    1  C1  UNL     1      39.877  22.659 102.338  1.00  0.00     0.015 C 
HETATM    2  C2  UNL     1      40.606  22.085 101.425  1.00  0.00    -0.080 C 
HETATM    3  C3  UNL     1      40.334  20.767 100.769  1.00  0.00     0.068 C 
HETATM    4  C4  UNL     1      41.677  20.211 100.516  1.00  0.00    -0.068 C 
HETATM    5  C5  UNL     1      42.228  19.088 100.040  1.00  0.00     0.002 C 
HETATM    6  C6  UNL     1      43.682  18.937  99.960  1.00  0.00     0.105 C 
HETATM    7  C17 UNL     1      44.398  20.205  99.503  1.00  0.00     0.039 C 
HETATM    8  C18 UNL     1      43.671  21.445  99.759  1.00  0.00     0.029 C 
HETATM    9  C19 UNL     1      44.487  22.617 100.179  1.00  0.00    -0.084 C 
HETATM   10  C20 UNL     1      45.704  22.729  99.689  1.00  0.00     0.015 C 
HETATM   11  C21 UNL     1      44.012  23.651 101.111  1.00  0.00     0.034 C 
HETATM   12  C22 UNL     1      42.581  23.628 101.483  1.00  0.00     0.014 C 
HETATM   13  C23 UNL     1      41.844  22.545 100.813  1.00  0.00     0.027 C 
HETATM   14  C24 UNL     1      42.674  21.266 100.885  1.00  0.00    -0.006 C 
HETATM   15  C25 UNL     1      43.263  21.026 102.219  1.00  0.00     0.021 C 
ENDROOT
BRANCH   6  16
HETATM   16  N1  UNL     1      44.196  17.862  99.245  1.00  0.00    -0.391 N 
ATOM     17  H1  UNL     1      44.680  17.140  99.779  1.00  0.00     0.159 HD
BRANCH  16  18
HETATM   18  C7  UNL     1      44.113  17.679  97.870  1.00  0.00     0.090 C 
BRANCH  18  19
HETATM   19  C8  UNL     1      45.314  18.063  97.092  1.00  0.00    -0.047 C 
HETATM   20  C9  UNL     1      46.522  18.113  97.657  1.00  0.00    -0.018 C 
HETATM   21  C10 UNL     1      47.744  18.491  96.908  1.00  0.00     0.028 C 
HETATM   22  C11 UNL     1      47.859  19.929  96.546  1.00  0.00     0.004 C 
HETATM   23  C12 UNL     1      46.919  20.819  97.282  1.00  0.00     0.000 C 
HETATM   24  C13 UNL     1      45.978  21.611  96.444  1.00  0.00     0.000 C 
HETATM   25  C14 UNL     1      45.417  20.928  95.245  1.00  0.00     0.000 C 
HETATM   26  C15 UNL     1      44.462  19.814  95.552  1.00  0.00     0.005 C 
HETATM   27  C16 UNL     1      45.127  18.448  95.631  1.00  0.00     0.039 C 
ENDBRANCH  18  19
ENDBRANCH  16  18
ENDBRANCH   6  16
TORSDOF 3
ENDMDL
