MODEL 1
REMARK VINA RESULT: -7.407968160      0.000      0.000
REMARK  5 active torsions:
REMARK  status: ('A' for Active; 'I' for Inactive)
REMARK    1  A    between atoms: C4_9  and  C5_10 
REMARK    2  A    between atoms: C5_10  and  N3_11 
REMARK    3  A    between atoms: N3_11  and  C6_13 
REMARK    4  A    between atoms: C6_13  and  C7_14 
REMARK    5  A    between atoms: C7_14  and  C8_15 
ROOT
HETATM    1  C5  UNL     1      16.146   7.837  25.373  1.00  0.00     0.102 C 
ENDROOT
BRANCH   1   2
HETATM    2  C4  UNL     1      14.852   7.881  25.018  1.00  0.00     0.075 A 
HETATM    3  C2  UNL     1      13.830   7.063  25.453  1.00  0.00     0.056 A 
HETATM    4  C1  UNL     1      13.973   6.074  26.316  1.00  0.00     0.045 C 
HETATM    5  N1  UNL     1      12.664   7.447  24.846  1.00  0.00    -0.298 N 
HETATM    6  N2  UNL     1      12.958   8.465  24.066  1.00  0.00    -0.265 N 
ATOM      7  H1  UNL     1      11.744   7.025  24.974  1.00  0.00     0.187 HD
HETATM    8  C3  UNL     1      14.263   8.766  24.134  1.00  0.00     0.273 A 
ATOM      9  H2  UNL     1      12.282   8.960  23.485  1.00  0.00     0.190 HD
HETATM   10  O1  UNL     1      14.871   9.683  23.516  1.00  0.00    -0.266 OA
ENDBRANCH   1   2
BRANCH   1  11
HETATM   11  N3  UNL     1      17.132   8.414  24.543  1.00  0.00    -0.398 N 
ATOM     12  H3  UNL     1      17.159   8.183  23.550  1.00  0.00     0.158 HD
BRANCH  11  13
HETATM   13  C6  UNL     1      18.098   9.325  25.094  1.00  0.00     0.123 C 
BRANCH  13  14
HETATM   14  C7  UNL     1      18.843   9.950  23.926  1.00  0.00     0.058 C 
BRANCH  14  15
HETATM   15  C8  UNL     1      18.723  11.426  23.963  1.00  0.00    -0.057 A 
HETATM   16  C9  UNL     1      18.643  12.099  25.162  1.00  0.00     0.007 A 
HETATM   17  C10 UNL     1      18.529  13.477  25.196  1.00  0.00     0.001 A 
HETATM   18  C11 UNL     1      18.495  14.193  24.013  1.00  0.00     0.000 A 
HETATM   19  C12 UNL     1      18.574  13.528  22.823  1.00  0.00     0.001 A 
HETATM   20  C13 UNL     1      18.689  12.140  22.784  1.00  0.00     0.007 A 
ENDBRANCH  14  15
ENDBRANCH  13  14
ENDBRANCH  11  13
ENDBRANCH   1  11
TORSDOF 5
ENDMDL
MODEL 2
REMARK VINA RESULT: -7.403963140      0.014      1.153
REMARK  5 active torsions:
REMARK  status: ('A' for Active; 'I' for Inactive)
REMARK    1  A    between atoms: C4_9  and  C5_10 
REMARK    2  A    between atoms: C5_10  and  N3_11 
REMARK    3  A    between atoms: N3_11  and  C6_13 
REMARK    4  A    between atoms: C6_13  and  C7_14 
REMARK    5  A    between atoms: C7_14  and  C8_15 
ROOT
HETATM    1  C5  UNL     1      16.147   7.852  25.371  1.00  0.00     0.102 C 
ENDROOT
BRANCH   1   2
HETATM    2  C4  UNL     1      14.852   7.891  25.016  1.00  0.00     0.075 A 
HETATM    3  C2  UNL     1      13.833   7.070  25.452  1.00  0.00     0.056 A 
HETATM    4  C1  UNL     1      13.979   6.081  26.314  1.00  0.00     0.045 C 
HETATM    5  N1  UNL     1      12.665   7.450  24.844  1.00  0.00    -0.298 N 
HETATM    6  N2  UNL     1      12.956   8.468  24.064  1.00  0.00    -0.265 N 
ATOM      7  H1  UNL     1      11.747   7.025  24.973  1.00  0.00     0.187 HD
HETATM    8  C3  UNL     1      14.260   8.773  24.131  1.00  0.00     0.273 A 
ATOM      9  H2  UNL     1      12.279   8.961  23.483  1.00  0.00     0.190 HD
HETATM   10  O1  UNL     1      14.865   9.692  23.513  1.00  0.00    -0.266 OA
ENDBRANCH   1   2
BRANCH   1  11
HETATM   11  N3  UNL     1      17.131   8.432  24.542  1.00  0.00    -0.398 N 
ATOM     12  H3  UNL     1      17.145   8.219  23.544  1.00  0.00     0.158 HD
BRANCH  11  13
HETATM   13  C6  UNL     1      18.111   9.324  25.098  1.00  0.00     0.123 C 
BRANCH  13  14
HETATM   14  C7  UNL     1      18.863   9.948  23.935  1.00  0.00     0.058 C 
BRANCH  14  15
HETATM   15  C8  UNL     1      18.731  11.424  23.963  1.00  0.00    -0.057 A 
HETATM   16  C9  UNL     1      18.696  12.154  22.795  1.00  0.00     0.007 A 
HETATM   17  C10 UNL     1      18.575  13.531  22.822  1.00  0.00     0.001 A 
HETATM   18  C11 UNL     1      18.486  14.189  24.036  1.00  0.00     0.000 A 
HETATM   19  C12 UNL     1      18.521  13.468  25.195  1.00  0.00     0.001 A 
HETATM   20  C13 UNL     1      18.643  12.080  25.172  1.00  0.00     0.007 A 
ENDBRANCH  14  15
ENDBRANCH  13  14
ENDBRANCH  11  13
ENDBRANCH   1  11
TORSDOF 5
ENDMDL
MODEL 3
REMARK VINA RESULT: -7.360350499      1.231      1.874
REMARK  5 active torsions:
REMARK  status: ('A' for Active; 'I' for Inactive)
REMARK    1  A    between atoms: C4_9  and  C5_10 
REMARK    2  A    between atoms: C5_10  and  N3_11 
REMARK    3  A    between atoms: N3_11  and  C6_13 
REMARK    4  A    between atoms: C6_13  and  C7_14 
REMARK    5  A    between atoms: C7_14  and  C8_15 
ROOT
HETATM    1  C5  UNL     1      16.441   7.930  24.422  1.00  0.00     0.102 C 
ENDROOT
BRANCH   1   2
HETATM    2  C4  UNL     1      15.102   7.876  24.517  1.00  0.00     0.075 A 
HETATM    3  C2  UNL     1      14.183   8.753  23.982  1.00  0.00     0.056 A 
HETATM    4  C1  UNL     1      14.488   9.822  23.269  1.00  0.00     0.045 C 
HETATM    5  N1  UNL     1      12.922   8.333  24.314  1.00  0.00    -0.298 N 
HETATM    6  N2  UNL     1      13.061   7.237  25.027  1.00  0.00    -0.265 N 
ATOM      7  H1  UNL     1      12.043   8.784  24.057  1.00  0.00     0.187 HD
HETATM    8  C3  UNL     1      14.355   6.919  25.178  1.00  0.00     0.273 A 
ATOM      9  H2  UNL     1      12.287   6.699  25.414  1.00  0.00     0.190 HD
HETATM   10  O1  UNL     1      14.834   5.932  25.804  1.00  0.00    -0.266 OA
ENDBRANCH   1   2
BRANCH   1  11
HETATM   11  N3  UNL     1      17.226   8.208  25.561  1.00  0.00    -0.398 N 
ATOM     12  H3  UNL     1      17.056   7.702  26.431  1.00  0.00     0.158 HD
BRANCH  11  13
HETATM   13  C6  UNL     1      18.263   9.201  25.500  1.00  0.00     0.123 C 
BRANCH  13  14
HETATM   14  C7  UNL     1      18.322   9.702  24.067  1.00  0.00     0.058 C 
BRANCH  14  15
HETATM   15  C8  UNL     1      18.467  11.176  24.037  1.00  0.00    -0.057 A 
HETATM   16  C9  UNL     1      18.607  11.897  25.202  1.00  0.00     0.007 A 
HETATM   17  C10 UNL     1      18.741  13.273  25.174  1.00  0.00     0.001 A 
HETATM   18  C11 UNL     1      18.737  13.939  23.962  1.00  0.00     0.000 A 
HETATM   19  C12 UNL     1      18.598  13.227  22.805  1.00  0.00     0.001 A 
HETATM   20  C13 UNL     1      18.463  11.840  22.829  1.00  0.00     0.007 A 
ENDBRANCH  14  15
ENDBRANCH  13  14
ENDBRANCH  11  13
ENDBRANCH   1  11
TORSDOF 5
ENDMDL
MODEL 4
REMARK VINA RESULT: -7.354304112      1.234      2.200
REMARK  5 active torsions:
REMARK  status: ('A' for Active; 'I' for Inactive)
REMARK    1  A    between atoms: C4_9  and  C5_10 
REMARK    2  A    between atoms: C5_10  and  N3_11 
REMARK    3  A    between atoms: N3_11  and  C6_13 
REMARK    4  A    between atoms: C6_13  and  C7_14 
REMARK    5  A    between atoms: C7_14  and  C8_15 
ROOT
HETATM    1  C5  UNL     1      16.453   7.920  24.421  1.00  0.00     0.102 C 
ENDROOT
BRANCH   1   2
HETATM    2  C4  UNL     1      15.114   7.868  24.513  1.00  0.00     0.075 A 
HETATM    3  C2  UNL     1      14.197   8.750  23.981  1.00  0.00     0.056 A 
HETATM    4  C1  UNL     1      14.505   9.821  23.273  1.00  0.00     0.045 C 
HETATM    5  N1  UNL     1      12.935   8.330  24.308  1.00  0.00    -0.298 N 
HETATM    6  N2  UNL     1      13.071   7.230  25.016  1.00  0.00    -0.265 N 
ATOM      7  H1  UNL     1      12.058   8.783  24.051  1.00  0.00     0.187 HD
HETATM    8  C3  UNL     1      14.364   6.909  25.168  1.00  0.00     0.273 A 
ATOM      9  H2  UNL     1      12.295   6.692  25.399  1.00  0.00     0.190 HD
HETATM   10  O1  UNL     1      14.840   5.919  25.790  1.00  0.00    -0.266 OA
ENDBRANCH   1   2
BRANCH   1  11
HETATM   11  N3  UNL     1      17.236   8.199  25.562  1.00  0.00    -0.398 N 
ATOM     12  H3  UNL     1      17.073   7.684  26.428  1.00  0.00     0.158 HD
BRANCH  11  13
HETATM   13  C6  UNL     1      18.260   9.205  25.508  1.00  0.00     0.123 C 
BRANCH  13  14
HETATM   14  C7  UNL     1      18.334   9.696  24.072  1.00  0.00     0.058 C 
BRANCH  14  15
HETATM   15  C8  UNL     1      18.472  11.170  24.033  1.00  0.00    -0.057 A 
HETATM   16  C9  UNL     1      18.434  11.853  22.837  1.00  0.00     0.007 A 
HETATM   17  C10 UNL     1      18.565  13.229  22.801  1.00  0.00     0.001 A 
HETATM   18  C11 UNL     1      18.734  13.934  23.979  1.00  0.00     0.000 A 
HETATM   19  C12 UNL     1      18.772  13.260  25.166  1.00  0.00     0.001 A 
HETATM   20  C13 UNL     1      18.641  11.874  25.207  1.00  0.00     0.007 A 
ENDBRANCH  14  15
ENDBRANCH  13  14
ENDBRANCH  11  13
ENDBRANCH   1  11
TORSDOF 5
ENDMDL
MODEL 5
REMARK VINA RESULT: -7.345304766      2.649      6.072
REMARK  5 active torsions:
REMARK  status: ('A' for Active; 'I' for Inactive)
REMARK    1  A    between atoms: C4_9  and  C5_10 
REMARK    2  A    between atoms: C5_10  and  N3_11 
REMARK    3  A    between atoms: N3_11  and  C6_13 
REMARK    4  A    between atoms: C6_13  and  C7_14 
REMARK    5  A    between atoms: C7_14  and  C8_15 
ROOT
HETATM    1  C5  UNL     1      16.592  11.237  23.585  1.00  0.00     0.102 C 
ENDROOT
BRANCH   1   2
HETATM    2  C4  UNL     1      17.868  10.840  23.710  1.00  0.00     0.075 A 
HETATM    3  C2  UNL     1      18.346   9.737  24.387  1.00  0.00     0.056 A 
HETATM    4  C1  UNL     1      17.594   8.871  25.041  1.00  0.00     0.045 C 
HETATM    5  N1  UNL     1      19.710   9.697  24.266  1.00  0.00    -0.298 N 
HETATM    6  N2  UNL     1      20.058  10.738  23.541  1.00  0.00    -0.265 N 
ATOM      7  H1  UNL     1      20.336   8.995  24.661  1.00  0.00     0.187 HD
HETATM    8  C3  UNL     1      18.986  11.458  23.181  1.00  0.00     0.273 A 
ATOM      9  H2  UNL     1      21.018  10.968  23.285  1.00  0.00     0.190 HD
HETATM   10  O1  UNL     1      18.968  12.512  22.486  1.00  0.00    -0.266 OA
ENDBRANCH   1   2
BRANCH   1  11
HETATM   11  N3  UNL     1      15.957  11.209  22.325  1.00  0.00    -0.398 N 
ATOM     12  H3  UNL     1      16.144  11.946  21.645  1.00  0.00     0.158 HD
BRANCH  11  13
HETATM   13  C6  UNL     1      15.047  10.146  21.997  1.00  0.00     0.123 C 
BRANCH  13  14
HETATM   14  C7  UNL     1      14.215   9.867  23.237  1.00  0.00     0.058 C 
BRANCH  14  15
HETATM   15  C8  UNL     1      14.367   8.455  23.659  1.00  0.00    -0.057 A 
HETATM   16  C9  UNL     1      13.926   8.033  24.894  1.00  0.00     0.007 A 
HETATM   17  C10 UNL     1      14.070   6.716  25.287  1.00  0.00     0.001 A 
HETATM   18  C11 UNL     1      14.664   5.804  24.433  1.00  0.00     0.000 A 
HETATM   19  C12 UNL     1      15.102   6.219  23.208  1.00  0.00     0.001 A 
HETATM   20  C13 UNL     1      14.958   7.546  22.807  1.00  0.00     0.007 A 
ENDBRANCH  14  15
ENDBRANCH  13  14
ENDBRANCH  11  13
ENDBRANCH   1  11
TORSDOF 5
ENDMDL
