MODEL 1
REMARK VINA RESULT: -7.558576199      0.000      0.000
REMARK  1 active torsions:
REMARK  status: ('A' for Active; 'I' for Inactive)
REMARK    1  A    between atoms: N1_1  and  C1_4 
ROOT
HETATM    1  C1  UNL     1      28.511  77.042  12.792  1.00  0.00     0.680 A 
HETATM    2  N2  UNL     1      28.171  78.130  12.094  1.00  0.00    -0.155 N 
ATOM      3  H2  UNL     1      28.667  79.009  12.246  1.00  0.00     0.187 HD
HETATM    4  C2  UNL     1      27.159  78.069  11.176  1.00  0.00     0.279 A 
HETATM    5  O1  UNL     1      26.853  79.105  10.527  1.00  0.00    -0.266 OA
HETATM    6  C3  UNL     1      26.483  76.891  10.962  1.00  0.00     0.145 A 
HETATM    7  C4  UNL     1      25.472  76.826  10.046  1.00  0.00     0.267 A 
HETATM    8  O2  UNL     1      25.109  77.807   9.363  1.00  0.00    -0.267 OA
HETATM    9  N3  UNL     1      24.830  75.648   9.863  1.00  0.00    -0.296 N 
ATOM     10  H3  UNL     1      24.073  75.589   9.182  1.00  0.00     0.171 HD
HETATM   11  C5  UNL     1      25.174  74.553  10.569  1.00  0.00     0.196 A 
HETATM   12  N4  UNL     1      24.467  73.342  10.338  1.00  0.00    -0.063 NA
HETATM   13  N5  UNL     1      26.166  74.615  11.468  1.00  0.00    -0.315 N 
ATOM     14  H5  UNL     1      26.416  73.777  11.993  1.00  0.00     0.170 HD
HETATM   15  C6  UNL     1      26.837  75.754  11.691  1.00  0.00     0.144 A 
HETATM   16  N6  UNL     1      27.828  75.907  12.557  1.00  0.00    -0.176 N 
ATOM     17  H6  UNL     1      28.100  75.085  13.098  1.00  0.00     0.186 HD
ENDROOT
BRANCH   1  18
HETATM   18  N1  UNL     1      29.478  77.076  13.678  1.00  0.00    -0.234 N 
ATOM     19  H12 UNL     1      29.778  77.958  14.093  1.00  0.00     0.174 HD
ATOM     20  H11 UNL     1      29.955  76.224  13.975  1.00  0.00     0.174 HD
ENDBRANCH   1  18
TORSDOF 1
ENDMDL
MODEL 2
REMARK VINA RESULT: -7.327353562      0.454      4.004
REMARK  1 active torsions:
REMARK  status: ('A' for Active; 'I' for Inactive)
REMARK    1  A    between atoms: N1_1  and  C1_4 
ROOT
HETATM    1  C1  UNL     1      25.608  74.244  10.341  1.00  0.00     0.680 A 
HETATM    2  N2  UNL     1      24.997  75.275   9.748  1.00  0.00    -0.155 N 
ATOM      3  H2  UNL     1      24.240  75.105   9.086  1.00  0.00     0.187 HD
HETATM    4  C2  UNL     1      25.387  76.556  10.025  1.00  0.00     0.279 A 
HETATM    5  O1  UNL     1      24.799  77.515   9.456  1.00  0.00    -0.266 OA
HETATM    6  C3  UNL     1      26.407  76.796  10.915  1.00  0.00     0.145 A 
HETATM    7  C4  UNL     1      26.799  78.075  11.194  1.00  0.00     0.267 A 
HETATM    8  O2  UNL     1      26.269  79.078  10.673  1.00  0.00    -0.267 OA
HETATM    9  N3  UNL     1      27.808  78.272  12.076  1.00  0.00    -0.296 N 
ATOM     10  H3  UNL     1      28.108  79.222  12.292  1.00  0.00     0.171 HD
HETATM   11  C5  UNL     1      28.422  77.230  12.672  1.00  0.00     0.196 A 
HETATM   12  N4  UNL     1      29.475  77.494  13.590  1.00  0.00    -0.063 NA
HETATM   13  N5  UNL     1      28.038  75.976  12.400  1.00  0.00    -0.315 N 
ATOM     14  H5  UNL     1      28.511  75.198  12.860  1.00  0.00     0.170 HD
HETATM   15  C6  UNL     1      27.046  75.721  11.535  1.00  0.00     0.144 A 
HETATM   16  N6  UNL     1      26.602  74.516  11.206  1.00  0.00    -0.176 N 
ATOM     17  H6  UNL     1      27.058  73.719  11.651  1.00  0.00     0.186 HD
ENDROOT
BRANCH   1  18
HETATM   18  N1  UNL     1      25.252  73.006  10.092  1.00  0.00    -0.234 N 
ATOM     19  H12 UNL     1      24.450  72.801   9.496  1.00  0.00     0.174 HD
ATOM     20  H11 UNL     1      25.766  72.217  10.485  1.00  0.00     0.174 HD
ENDBRANCH   1  18
TORSDOF 1
ENDMDL
MODEL 3
REMARK VINA RESULT: -6.931993624      2.672      3.706
REMARK  1 active torsions:
REMARK  status: ('A' for Active; 'I' for Inactive)
REMARK    1  A    between atoms: N1_1  and  C1_4 
ROOT
HETATM    1  C1  UNL     1      27.069  75.586  11.236  1.00  0.00     0.680 A 
HETATM    2  N2  UNL     1      27.552  74.954  10.161  1.00  0.00    -0.155 N 
ATOM      3  H2  UNL     1      28.474  75.197   9.799  1.00  0.00     0.187 HD
HETATM    4  C2  UNL     1      26.812  73.983   9.546  1.00  0.00     0.279 A 
HETATM    5  O1  UNL     1      27.284  73.398   8.533  1.00  0.00    -0.266 OA
HETATM    6  C3  UNL     1      25.568  73.646  10.024  1.00  0.00     0.145 A 
HETATM    7  C4  UNL     1      24.826  72.676   9.411  1.00  0.00     0.267 A 
HETATM    8  O2  UNL     1      25.222  72.051   8.405  1.00  0.00    -0.267 OA
HETATM    9  N3  UNL     1      23.605  72.373   9.912  1.00  0.00    -0.296 N 
ATOM     10  H3  UNL     1      23.043  71.650   9.462  1.00  0.00     0.171 HD
HETATM   11  C5  UNL     1      23.121  73.011  10.996  1.00  0.00     0.196 A 
HETATM   12  N4  UNL     1      21.833  72.653  11.479  1.00  0.00    -0.063 NA
HETATM   13  N5  UNL     1      23.847  73.962  11.598  1.00  0.00    -0.315 N 
ATOM     14  H5  UNL     1      23.468  74.436  12.417  1.00  0.00     0.170 HD
HETATM   15  C6  UNL     1      25.062  74.305  11.146  1.00  0.00     0.144 A 
HETATM   16  N6  UNL     1      25.848  75.231  11.677  1.00  0.00    -0.176 N 
ATOM     17  H6  UNL     1      25.493  75.722  12.498  1.00  0.00     0.186 HD
ENDROOT
BRANCH   1  18
HETATM   18  N1  UNL     1      27.759  76.521  11.845  1.00  0.00    -0.234 N 
ATOM     19  H12 UNL     1      28.389  77.130  11.322  1.00  0.00     0.174 HD
ATOM     20  H11 UNL     1      27.685  76.664  12.852  1.00  0.00     0.174 HD
ENDBRANCH   1  18
TORSDOF 1
ENDMDL
MODEL 4
REMARK VINA RESULT: -6.770655893      2.018      3.300
REMARK  1 active torsions:
REMARK  status: ('A' for Active; 'I' for Inactive)
REMARK    1  A    between atoms: N1_1  and  C1_4 
ROOT
HETATM    1  C1  UNL     1      28.334  76.851  12.934  1.00  0.00     0.680 A 
HETATM    2  N2  UNL     1      27.495  75.821  12.782  1.00  0.00    -0.155 N 
ATOM      3  H2  UNL     1      27.587  74.998  13.378  1.00  0.00     0.187 HD
HETATM    4  C2  UNL     1      26.515  75.868  11.829  1.00  0.00     0.279 A 
HETATM    5  O1  UNL     1      25.734  74.887  11.701  1.00  0.00    -0.266 OA
HETATM    6  C3  UNL     1      26.383  76.972  11.021  1.00  0.00     0.145 A 
HETATM    7  C4  UNL     1      25.405  77.022  10.068  1.00  0.00     0.267 A 
HETATM    8  O2  UNL     1      24.592  76.094   9.878  1.00  0.00    -0.267 OA
HETATM    9  N3  UNL     1      25.306  78.127   9.291  1.00  0.00    -0.296 N 
ATOM     10  H3  UNL     1      24.579  78.175   8.577  1.00  0.00     0.171 HD
HETATM   11  C5  UNL     1      26.153  79.163   9.446  1.00  0.00     0.196 A 
HETATM   12  N4  UNL     1      26.004  80.298   8.603  1.00  0.00    -0.063 NA
HETATM   13  N5  UNL     1      27.112  79.115  10.380  1.00  0.00    -0.315 N 
ATOM     14  H5  UNL     1      27.745  79.908  10.486  1.00  0.00     0.170 HD
HETATM   15  C6  UNL     1      27.258  78.048  11.178  1.00  0.00     0.144 A 
HETATM   16  N6  UNL     1      28.175  77.915  12.125  1.00  0.00    -0.176 N 
ATOM     17  H6  UNL     1      28.823  78.692  12.254  1.00  0.00     0.186 HD
ENDROOT
BRANCH   1  18
HETATM   18  N1  UNL     1      29.282  76.830  13.840  1.00  0.00    -0.234 N 
ATOM     19  H12 UNL     1      30.014  77.541  13.850  1.00  0.00     0.174 HD
ATOM     20  H11 UNL     1      29.315  76.105  14.557  1.00  0.00     0.174 HD
ENDBRANCH   1  18
TORSDOF 1
ENDMDL
MODEL 5
REMARK VINA RESULT: -6.671026172      2.046      3.193
REMARK  1 active torsions:
REMARK  status: ('A' for Active; 'I' for Inactive)
REMARK    1  A    between atoms: N1_1  and  C1_4 
ROOT
HETATM    1  C1  UNL     1      25.976  79.084   9.584  1.00  0.00     0.680 A 
HETATM    2  N2  UNL     1      26.968  79.095  10.479  1.00  0.00    -0.155 N 
ATOM      3  H2  UNL     1      27.511  79.946  10.628  1.00  0.00     0.187 HD
HETATM    4  C2  UNL     1      27.258  77.967  11.197  1.00  0.00     0.279 A 
HETATM    5  O1  UNL     1      28.197  77.997  12.037  1.00  0.00    -0.266 OA
HETATM    6  C3  UNL     1      26.534  76.815  11.006  1.00  0.00     0.145 A 
HETATM    7  C4  UNL     1      26.820  75.687  11.721  1.00  0.00     0.267 A 
HETATM    8  O2  UNL     1      27.734  75.634  12.571  1.00  0.00    -0.267 OA
HETATM    9  N3  UNL     1      26.085  74.571  11.504  1.00  0.00    -0.296 N 
ATOM     10  H3  UNL     1      26.291  73.723  12.033  1.00  0.00     0.171 HD
HETATM   11  C5  UNL     1      25.085  74.562  10.600  1.00  0.00     0.196 A 
HETATM   12  N4  UNL     1      24.345  73.364  10.413  1.00  0.00    -0.063 NA
HETATM   13  N5  UNL     1      24.803  75.668   9.899  1.00  0.00    -0.315 N 
ATOM     14  H5  UNL     1      24.043  75.647   9.219  1.00  0.00     0.170 HD
HETATM   15  C6  UNL     1      25.497  76.802  10.070  1.00  0.00     0.144 A 
HETATM   16  N6  UNL     1      25.288  77.939   9.422  1.00  0.00    -0.176 N 
ATOM     17  H6  UNL     1      24.534  77.946   8.735  1.00  0.00     0.186 HD
ENDROOT
BRANCH   1  18
HETATM   18  N1  UNL     1      25.679  80.153   8.883  1.00  0.00    -0.234 N 
ATOM     19  H12 UNL     1      25.758  80.150   7.866  1.00  0.00     0.174 HD
ATOM     20  H11 UNL     1      25.362  81.011   9.333  1.00  0.00     0.174 HD
ENDBRANCH   1  18
TORSDOF 1
ENDMDL
