MODEL 1
REMARK VINA RESULT: -7.557299941      0.000      0.000
REMARK  8 active torsions:
REMARK  status: ('A' for Active; 'I' for Inactive)
REMARK    1  A    between atoms: C2_2  and  C3_3 
REMARK    2  A    between atoms: C3_3  and  C4_4 
REMARK    3  A    between atoms: C4_4  and  N1_5 
REMARK    4  A    between atoms: N1_5  and  C5_6 
REMARK    5  A    between atoms: N1_5  and  C7_9 
REMARK    6  A    between atoms: C5_6  and  C6_7 
REMARK    7  A    between atoms: N3_16  and  C12_18 
REMARK    8  A    between atoms: C14_20  and  C15_21 
ROOT
HETATM    1  C7  UNL     1       3.023   1.287  42.556  1.00  0.00     0.120 A 
HETATM    2  C8  UNL     1       3.763   0.658  41.589  1.00  0.00     0.074 A 
HETATM    3  C9  UNL     1       5.155   0.790  41.533  1.00  0.00     0.026 A 
HETATM    4  C10 UNL     1       5.960   0.099  40.477  1.00  0.00     0.069 C 
HETATM    5  N2  UNL     1       5.716   1.568  42.482  1.00  0.00    -0.196 N 
ATOM      6  H2  UNL     1       6.730   1.680  42.464  1.00  0.00     0.184 HD
HETATM    7  C11 UNL     1       5.033   2.206  43.454  1.00  0.00     0.684 A 
HETATM    8  N3  UNL     1       5.577   2.915  44.380  1.00  0.00    -0.185 N 
ATOM      9  H3  UNL     1       5.000   3.378  45.082  1.00  0.00     0.185 HD
HETATM   10  N4  UNL     1       3.669   2.045  43.464  1.00  0.00    -0.176 N 
ATOM     11  H4  UNL     1       3.124   2.517  44.186  1.00  0.00     0.186 HD
ENDROOT
BRANCH   8  12
HETATM   12  C12 UNL     1       6.991   3.042  44.414  1.00  0.00     0.091 A 
HETATM   13  C13 UNL     1       7.860   3.935  43.875  1.00  0.00     0.054 A 
HETATM   14  C14 UNL     1       9.174   3.757  44.110  1.00  0.00     0.057 A 
HETATM   15  C16 UNL     1       9.543   2.684  44.877  1.00  0.00     0.068 A 
HETATM   16  S1  UNL     1       8.050   1.953  45.248  1.00  0.00    -0.083 SA
BRANCH  14  17
HETATM   17  C15 UNL     1      10.252   4.695  43.575  1.00  0.00     0.418 C 
HETATM   18  F1  UNL     1      11.037   4.035  42.659  1.00  0.00    -0.166 F 
HETATM   19  F2  UNL     1      11.080   5.097  44.596  1.00  0.00    -0.166 F 
HETATM   20  F3  UNL     1       9.689   5.829  43.038  1.00  0.00    -0.166 F 
ENDBRANCH  14  17
ENDBRANCH   8  12
BRANCH   1  21
HETATM   21  N1  UNL     1       1.632   1.126  42.649  1.00  0.00    -0.366 N 
BRANCH  21  22
HETATM   22  C4  UNL     1       0.677   1.006  41.597  1.00  0.00     0.124 C 
BRANCH  22  23
HETATM   23  C3  UNL     1      -0.663   1.610  41.767  1.00  0.00     0.019 C 
BRANCH  23  24
HETATM   24  C2  UNL     1      -1.641   0.640  41.041  1.00  0.00    -0.003 C 
HETATM   25  C1  UNL     1      -3.080   1.059  41.296  1.00  0.00     0.005 C 
ENDBRANCH  23  24
ENDBRANCH  22  23
ENDBRANCH  21  22
BRANCH  21  26
HETATM   26  C5  UNL     1       1.013   1.103  43.992  1.00  0.00     0.139 C 
BRANCH  26  27
HETATM   27  C6  UNL     1       0.881  -0.277  44.544  1.00  0.00     0.134 C 
HETATM   28 CL1  UNL     1      -0.754  -0.894  44.586  1.00  0.00    -0.129 Cl
ENDBRANCH  26  27
ENDBRANCH  21  26
ENDBRANCH   1  21
TORSDOF 8
ENDMDL
MODEL 2
REMARK VINA RESULT: -7.508434434      5.495      8.488
REMARK  8 active torsions:
REMARK  status: ('A' for Active; 'I' for Inactive)
REMARK    1  A    between atoms: C2_2  and  C3_3 
REMARK    2  A    between atoms: C3_3  and  C4_4 
REMARK    3  A    between atoms: C4_4  and  N1_5 
REMARK    4  A    between atoms: N1_5  and  C5_6 
REMARK    5  A    between atoms: N1_5  and  C7_9 
REMARK    6  A    between atoms: C5_6  and  C6_7 
REMARK    7  A    between atoms: N3_16  and  C12_18 
REMARK    8  A    between atoms: C14_20  and  C15_21 
ROOT
HETATM    1  C7  UNL     1       6.320   2.724  42.809  1.00  0.00     0.120 A 
HETATM    2  C8  UNL     1       6.401   1.668  41.940  1.00  0.00     0.074 A 
HETATM    3  C9  UNL     1       5.297   0.850  41.679  1.00  0.00     0.026 A 
HETATM    4  C10 UNL     1       5.389  -0.301  40.726  1.00  0.00     0.069 C 
HETATM    5  N2  UNL     1       4.158   1.165  42.331  1.00  0.00    -0.196 N 
ATOM      6  H2  UNL     1       3.338   0.584  42.157  1.00  0.00     0.184 HD
HETATM    7  C11 UNL     1       4.027   2.192  43.194  1.00  0.00     0.684 A 
HETATM    8  N3  UNL     1       2.928   2.512  43.782  1.00  0.00    -0.185 N 
ATOM      9  H3  UNL     1       2.899   3.298  44.431  1.00  0.00     0.185 HD
HETATM   10  N4  UNL     1       5.141   2.964  43.417  1.00  0.00    -0.176 N 
ATOM     11  H4  UNL     1       5.073   3.749  44.065  1.00  0.00     0.186 HD
ENDROOT
BRANCH   8  12
HETATM   12  C12 UNL     1       1.755   1.756  43.517  1.00  0.00     0.091 A 
HETATM   13  C13 UNL     1       0.780   1.846  42.576  1.00  0.00     0.054 A 
HETATM   14  C14 UNL     1      -0.217   0.943  42.612  1.00  0.00     0.057 A 
HETATM   15  C16 UNL     1      -0.180  -0.007  43.599  1.00  0.00     0.068 A 
HETATM   16  S1  UNL     1       1.243   0.387  44.448  1.00  0.00    -0.083 SA
BRANCH  14  17
HETATM   17  C15 UNL     1      -1.364   0.926  41.606  1.00  0.00     0.418 C 
HETATM   18  F1  UNL     1      -2.291  -0.024  41.966  1.00  0.00    -0.166 F 
HETATM   19  F2  UNL     1      -0.897   0.578  40.360  1.00  0.00    -0.166 F 
HETATM   20  F3  UNL     1      -1.933   2.173  41.493  1.00  0.00    -0.166 F 
ENDBRANCH  14  17
ENDBRANCH   8  12
BRANCH   1  21
HETATM   21  N1  UNL     1       7.409   3.579  43.045  1.00  0.00    -0.366 N 
BRANCH  21  22
HETATM   22  C4  UNL     1       8.314   4.148  42.102  1.00  0.00     0.124 C 
BRANCH  22  23
HETATM   23  C3  UNL     1       7.775   4.808  40.892  1.00  0.00     0.019 C 
BRANCH  23  24
HETATM   24  C2  UNL     1       7.714   6.322  41.248  1.00  0.00    -0.003 C 
HETATM   25  C1  UNL     1       7.303   7.131  40.029  1.00  0.00     0.005 C 
ENDBRANCH  23  24
ENDBRANCH  22  23
ENDBRANCH  21  22
BRANCH  21  26
HETATM   26  C5  UNL     1       7.728   3.945  44.441  1.00  0.00     0.139 C 
BRANCH  26  27
HETATM   27  C6  UNL     1       9.152   3.677  44.797  1.00  0.00     0.134 C 
HETATM   28 CL1  UNL     1      10.088   5.100  45.188  1.00  0.00    -0.129 Cl
ENDBRANCH  26  27
ENDBRANCH  21  26
ENDBRANCH   1  21
TORSDOF 8
ENDMDL
MODEL 3
REMARK VINA RESULT: -7.481689942      5.341      8.354
REMARK  8 active torsions:
REMARK  status: ('A' for Active; 'I' for Inactive)
REMARK    1  A    between atoms: C2_2  and  C3_3 
REMARK    2  A    between atoms: C3_3  and  C4_4 
REMARK    3  A    between atoms: C4_4  and  N1_5 
REMARK    4  A    between atoms: N1_5  and  C5_6 
REMARK    5  A    between atoms: N1_5  and  C7_9 
REMARK    6  A    between atoms: C5_6  and  C6_7 
REMARK    7  A    between atoms: N3_16  and  C12_18 
REMARK    8  A    between atoms: C14_20  and  C15_21 
ROOT
HETATM    1  C7  UNL     1       6.436   2.609  43.092  1.00  0.00     0.120 A 
HETATM    2  C8  UNL     1       6.579   1.411  42.443  1.00  0.00     0.074 A 
HETATM    3  C9  UNL     1       5.489   0.562  42.228  1.00  0.00     0.026 A 
HETATM    4  C10 UNL     1       5.650  -0.745  41.515  1.00  0.00     0.069 C 
HETATM    5  N2  UNL     1       4.299   0.994  42.694  1.00  0.00    -0.196 N 
ATOM      6  H2  UNL     1       3.488   0.393  42.550  1.00  0.00     0.184 HD
HETATM    7  C11 UNL     1       4.106   2.163  43.338  1.00  0.00     0.684 A 
HETATM    8  N3  UNL     1       2.962   2.587  43.747  1.00  0.00    -0.185 N 
ATOM      9  H3  UNL     1       2.886   3.480  44.235  1.00  0.00     0.185 HD
HETATM   10  N4  UNL     1       5.208   2.960  43.525  1.00  0.00    -0.176 N 
ATOM     11  H4  UNL     1       5.094   3.850  44.010  1.00  0.00     0.186 HD
ENDROOT
BRANCH   8  12
HETATM   12  C12 UNL     1       1.805   1.798  43.508  1.00  0.00     0.091 A 
HETATM   13  C13 UNL     1       0.828   1.836  42.567  1.00  0.00     0.054 A 
HETATM   14  C14 UNL     1      -0.150   0.914  42.635  1.00  0.00     0.057 A 
HETATM   15  C16 UNL     1      -0.092  -0.001  43.653  1.00  0.00     0.068 A 
HETATM   16  S1  UNL     1       1.323   0.451  44.486  1.00  0.00    -0.083 SA
BRANCH  14  17
HETATM   17  C15 UNL     1      -1.297   0.838  41.632  1.00  0.00     0.418 C 
HETATM   18  F1  UNL     1      -1.918   2.061  41.534  1.00  0.00    -0.166 F 
HETATM   19  F2  UNL     1      -2.247  -0.058  42.064  1.00  0.00    -0.166 F 
HETATM   20  F3  UNL     1      -0.848   0.397  40.409  1.00  0.00    -0.166 F 
ENDBRANCH  14  17
ENDBRANCH   8  12
BRANCH   1  21
HETATM   21  N1  UNL     1       7.514   3.490  43.274  1.00  0.00    -0.366 N 
BRANCH  21  22
HETATM   22  C4  UNL     1       8.383   4.048  42.292  1.00  0.00     0.124 C 
BRANCH  22  23
HETATM   23  C3  UNL     1       7.800   4.663  41.078  1.00  0.00     0.019 C 
BRANCH  23  24
HETATM   24  C2  UNL     1       7.771   6.191  41.371  1.00  0.00    -0.003 C 
HETATM   25  C1  UNL     1       7.391   6.958  40.114  1.00  0.00     0.005 C 
ENDBRANCH  23  24
ENDBRANCH  22  23
ENDBRANCH  21  22
BRANCH  21  26
HETATM   26  C5  UNL     1       7.862   3.902  44.651  1.00  0.00     0.139 C 
BRANCH  26  27
HETATM   27  C6  UNL     1       8.250   2.751  45.517  1.00  0.00     0.134 C 
HETATM   28 CL1  UNL     1       9.604   1.815  44.927  1.00  0.00    -0.129 Cl
ENDBRANCH  26  27
ENDBRANCH  21  26
ENDBRANCH   1  21
TORSDOF 8
ENDMDL
MODEL 4
REMARK VINA RESULT: -7.466844516      5.297      8.803
REMARK  8 active torsions:
REMARK  status: ('A' for Active; 'I' for Inactive)
REMARK    1  A    between atoms: C2_2  and  C3_3 
REMARK    2  A    between atoms: C3_3  and  C4_4 
REMARK    3  A    between atoms: C4_4  and  N1_5 
REMARK    4  A    between atoms: N1_5  and  C5_6 
REMARK    5  A    between atoms: N1_5  and  C7_9 
REMARK    6  A    between atoms: C5_6  and  C6_7 
REMARK    7  A    between atoms: N3_16  and  C12_18 
REMARK    8  A    between atoms: C14_20  and  C15_21 
ROOT
HETATM    1  C7  UNL     1       6.502   2.828  42.500  1.00  0.00     0.120 A 
HETATM    2  C8  UNL     1       6.538   1.766  41.635  1.00  0.00     0.074 A 
HETATM    3  C9  UNL     1       5.426   0.937  41.451  1.00  0.00     0.026 A 
HETATM    4  C10 UNL     1       5.468  -0.221  40.502  1.00  0.00     0.069 C 
HETATM    5  N2  UNL     1       4.328   1.247  42.170  1.00  0.00    -0.196 N 
ATOM      6  H2  UNL     1       3.503   0.659  42.053  1.00  0.00     0.184 HD
HETATM    7  C11 UNL     1       4.242   2.280  43.033  1.00  0.00     0.684 A 
HETATM    8  N3  UNL     1       3.180   2.595  43.687  1.00  0.00    -0.185 N 
ATOM      9  H3  UNL     1       3.185   3.386  44.331  1.00  0.00     0.185 HD
HETATM   10  N4  UNL     1       5.361   3.063  43.179  1.00  0.00    -0.176 N 
ATOM     11  H4  UNL     1       5.328   3.852  43.825  1.00  0.00     0.186 HD
ENDROOT
BRANCH   8  12
HETATM   12  C12 UNL     1       1.999   1.828  43.501  1.00  0.00     0.091 A 
HETATM   13  C13 UNL     1       0.997   1.865  42.585  1.00  0.00     0.054 A 
HETATM   14  C14 UNL     1       0.001   0.968  42.705  1.00  0.00     0.057 A 
HETATM   15  C16 UNL     1       0.066   0.079  43.744  1.00  0.00     0.068 A 
HETATM   16  S1  UNL     1       1.513   0.518  44.527  1.00  0.00    -0.083 SA
BRANCH  14  17
HETATM   17  C15 UNL     1      -1.175   0.894  41.736  1.00  0.00     0.418 C 
HETATM   18  F1  UNL     1      -1.793   2.119  41.651  1.00  0.00    -0.166 F 
HETATM   19  F2  UNL     1      -2.116   0.004  42.198  1.00  0.00    -0.166 F 
HETATM   20  F3  UNL     1      -0.764   0.446  40.502  1.00  0.00    -0.166 F 
ENDBRANCH  14  17
ENDBRANCH   8  12
BRANCH   1  21
HETATM   21  N1  UNL     1       7.596   3.693  42.661  1.00  0.00    -0.366 N 
BRANCH  21  22
HETATM   22  C4  UNL     1       8.353   3.961  43.838  1.00  0.00     0.124 C 
BRANCH  22  23
HETATM   23  C3  UNL     1       9.218   2.899  44.398  1.00  0.00     0.019 C 
BRANCH  23  24
HETATM   24  C2  UNL     1      10.659   3.264  43.939  1.00  0.00    -0.003 C 
HETATM   25  C1  UNL     1      10.886   4.762  44.064  1.00  0.00     0.005 C 
ENDBRANCH  23  24
ENDBRANCH  22  23
ENDBRANCH  21  22
BRANCH  21  26
HETATM   26  C5  UNL     1       8.047   4.482  41.495  1.00  0.00     0.139 C 
BRANCH  26  27
HETATM   27  C6  UNL     1       8.139   5.942  41.787  1.00  0.00     0.134 C 
HETATM   28 CL1  UNL     1       7.407   6.977  40.582  1.00  0.00    -0.129 Cl
ENDBRANCH  26  27
ENDBRANCH  21  26
ENDBRANCH   1  21
TORSDOF 8
ENDMDL
MODEL 5
REMARK VINA RESULT: -7.452212559      1.944      2.821
REMARK  8 active torsions:
REMARK  status: ('A' for Active; 'I' for Inactive)
REMARK    1  A    between atoms: C2_2  and  C3_3 
REMARK    2  A    between atoms: C3_3  and  C4_4 
REMARK    3  A    between atoms: C4_4  and  N1_5 
REMARK    4  A    between atoms: N1_5  and  C5_6 
REMARK    5  A    between atoms: N1_5  and  C7_9 
REMARK    6  A    between atoms: C5_6  and  C6_7 
REMARK    7  A    between atoms: N3_16  and  C12_18 
REMARK    8  A    between atoms: C14_20  and  C15_21 
ROOT
HETATM    1  C7  UNL     1       2.945   1.150  42.766  1.00  0.00     0.120 A 
HETATM    2  C8  UNL     1       3.144   0.421  43.909  1.00  0.00     0.074 A 
HETATM    3  C9  UNL     1       4.310   0.558  44.669  1.00  0.00     0.026 A 
HETATM    4  C10 UNL     1       4.522  -0.238  45.919  1.00  0.00     0.069 C 
HETATM    5  N2  UNL     1       5.218   1.445  44.210  1.00  0.00    -0.196 N 
ATOM      6  H2  UNL     1       6.077   1.564  44.746  1.00  0.00     0.184 HD
HETATM    7  C11 UNL     1       5.069   2.185  43.092  1.00  0.00     0.684 A 
HETATM    8  N3  UNL     1       5.920   3.059  42.681  1.00  0.00    -0.185 N 
ATOM      9  H3  UNL     1       5.750   3.580  41.821  1.00  0.00     0.185 HD
HETATM   10  N4  UNL     1       3.907   2.013  42.381  1.00  0.00    -0.176 N 
ATOM     11  H4  UNL     1       3.766   2.559  41.531  1.00  0.00     0.186 HD
ENDROOT
BRANCH   8  12
HETATM   12  C12 UNL     1       7.100   3.287  43.438  1.00  0.00     0.091 A 
HETATM   13  C13 UNL     1       8.421   3.304  43.125  1.00  0.00     0.054 A 
HETATM   14  C14 UNL     1       9.299   3.561  44.113  1.00  0.00     0.057 A 
HETATM   15  C16 UNL     1       8.798   3.788  45.367  1.00  0.00     0.068 A 
HETATM   16  S1  UNL     1       7.118   3.635  45.136  1.00  0.00    -0.083 SA
BRANCH  14  17
HETATM   17  C15 UNL     1      10.807   3.623  43.892  1.00  0.00     0.418 C 
HETATM   18  F1  UNL     1      11.327   4.739  44.503  1.00  0.00    -0.166 F 
HETATM   19  F2  UNL     1      11.087   3.735  42.550  1.00  0.00    -0.166 F 
HETATM   20  F3  UNL     1      11.413   2.471  44.338  1.00  0.00    -0.166 F 
ENDBRANCH  14  17
ENDBRANCH   8  12
BRANCH   1  21
HETATM   21  N1  UNL     1       1.760   1.054  42.019  1.00  0.00    -0.366 N 
BRANCH  21  22
HETATM   22  C4  UNL     1       1.604   0.957  40.606  1.00  0.00     0.124 C 
BRANCH  22  23
HETATM   23  C3  UNL     1       2.362  -0.076  39.865  1.00  0.00     0.019 C 
BRANCH  23  24
HETATM   24  C2  UNL     1       1.432  -0.500  38.692  1.00  0.00    -0.003 C 
HETATM   25  C1  UNL     1       2.228  -1.254  37.639  1.00  0.00     0.005 C 
ENDBRANCH  23  24
ENDBRANCH  22  23
ENDBRANCH  21  22
BRANCH  21  26
HETATM   26  C5  UNL     1       0.469   1.087  42.740  1.00  0.00     0.139 C 
BRANCH  26  27
HETATM   27  C6  UNL     1      -0.655   1.572  41.887  1.00  0.00     0.134 C 
HETATM   28 CL1  UNL     1      -1.942   0.413  41.645  1.00  0.00    -0.129 Cl
ENDBRANCH  26  27
ENDBRANCH  21  26
ENDBRANCH   1  21
TORSDOF 8
ENDMDL
