MODEL 1
REMARK VINA RESULT: -7.401583795      0.000      0.000
REMARK  5 active torsions:
REMARK  status: ('A' for Active; 'I' for Inactive)
REMARK    1  A    between atoms: C2_2  and  C4_4 
REMARK    2  A    between atoms: C5_5  and  C6_6 
REMARK    3  A    between atoms: N2_16  and  C12_17 
REMARK    4  A    between atoms: C12_17  and  C13_18 
REMARK    5  A    between atoms: C13_18  and  C14_19 
ROOT
HETATM    1  C4  UNL     1      39.934   3.294  60.424  1.00  0.00     0.056 A 
HETATM    2  C5  UNL     1      38.867   3.453  59.559  1.00  0.00     0.045 A 
HETATM    3  C10 UNL     1      39.205   3.475  58.202  1.00  0.00     0.258 A 
HETATM    4  O1  UNL     1      38.282   3.615  57.365  1.00  0.00    -0.267 OA
HETATM    5  N1  UNL     1      40.484   3.351  57.742  1.00  0.00    -0.275 N 
ATOM      6  H1  UNL     1      40.685   3.372  56.742  1.00  0.00     0.173 HD
HETATM    7  C11 UNL     1      41.463   3.203  58.637  1.00  0.00     0.329 A 
HETATM    8  O2  UNL     1      42.639   3.092  58.178  1.00  0.00    -0.246 OA
HETATM    9  N2  UNL     1      41.227   3.170  59.955  1.00  0.00    -0.298 N 
ENDROOT
BRANCH   9  10
HETATM   10  C12 UNL     1      42.340   3.035  60.817  1.00  0.00     0.134 C 
BRANCH  10  11
HETATM   11  C13 UNL     1      42.849   1.624  61.022  1.00  0.00     0.024 C 
BRANCH  11  12
HETATM   12  C14 UNL     1      43.861   1.738  62.174  1.00  0.00    -0.021 C 
HETATM   13  C15 UNL     1      44.840   2.824  61.864  1.00  0.00     0.009 C 
HETATM   14  C16 UNL     1      43.192   1.869  63.496  1.00  0.00     0.009 C 
ENDBRANCH  11  12
ENDBRANCH  10  11
ENDBRANCH   9  10
BRANCH   1  15
HETATM   15  C2  UNL     1      39.750   3.199  61.863  1.00  0.00    -0.044 C 
HETATM   16  C1  UNL     1      39.761   4.179  62.723  1.00  0.00     0.021 C 
HETATM   17  C3  UNL     1      39.575   1.820  62.480  1.00  0.00     0.049 C 
ENDBRANCH   1  15
BRANCH   2  18
HETATM   18  C6  UNL     1      37.483   3.609  59.957  1.00  0.00    -0.017 C 
HETATM   19  C7  UNL     1      36.471   3.524  58.796  1.00  0.00     0.019 C 
HETATM   20  C8  UNL     1      36.940   2.572  60.928  1.00  0.00     0.019 C 
HETATM   21  C9  UNL     1      37.143   4.985  60.566  1.00  0.00     0.019 C 
ENDBRANCH   2  18
TORSDOF 5
ENDMDL
MODEL 2
REMARK VINA RESULT: -7.392981600      2.850      6.071
REMARK  5 active torsions:
REMARK  status: ('A' for Active; 'I' for Inactive)
REMARK    1  A    between atoms: C2_2  and  C4_4 
REMARK    2  A    between atoms: C5_5  and  C6_6 
REMARK    3  A    between atoms: N2_16  and  C12_17 
REMARK    4  A    between atoms: C12_17  and  C13_18 
REMARK    5  A    between atoms: C13_18  and  C14_19 
ROOT
HETATM    1  C4  UNL     1      42.760   1.468  62.464  1.00  0.00     0.056 A 
HETATM    2  C5  UNL     1      43.672   1.443  63.504  1.00  0.00     0.045 A 
HETATM    3  C10 UNL     1      45.011   1.565  63.119  1.00  0.00     0.258 A 
HETATM    4  O1  UNL     1      45.887   1.551  64.016  1.00  0.00    -0.267 OA
HETATM    5  N1  UNL     1      45.413   1.699  61.822  1.00  0.00    -0.275 N 
ATOM      6  H1  UNL     1      46.402   1.786  61.586  1.00  0.00     0.173 HD
HETATM    7  C11 UNL     1      44.476   1.713  60.871  1.00  0.00     0.329 A 
HETATM    8  O2  UNL     1      44.882   1.838  59.677  1.00  0.00    -0.246 OA
HETATM    9  N2  UNL     1      43.172   1.602  61.153  1.00  0.00    -0.298 N 
ENDROOT
BRANCH   9  10
HETATM   10  C12 UNL     1      42.265   1.602  60.067  1.00  0.00     0.134 C 
BRANCH  10  11
HETATM   11  C13 UNL     1      41.828   2.965  59.571  1.00  0.00     0.024 C 
BRANCH  11  12
HETATM   12  C14 UNL     1      40.330   2.806  59.264  1.00  0.00    -0.021 C 
HETATM   13  C15 UNL     1      39.971   3.671  58.100  1.00  0.00     0.009 C 
HETATM   14  C16 UNL     1      39.937   1.379  59.118  1.00  0.00     0.009 C 
ENDBRANCH  11  12
ENDBRANCH  10  11
ENDBRANCH   9  10
BRANCH   1  15
HETATM   15  C2  UNL     1      41.327   1.404  62.695  1.00  0.00    -0.044 C 
HETATM   16  C1  UNL     1      40.568   0.344  62.641  1.00  0.00     0.021 C 
HETATM   17  C3  UNL     1      40.583   2.698  62.983  1.00  0.00     0.049 C 
ENDBRANCH   1  15
BRANCH   2  18
HETATM   18  C6  UNL     1      43.339   1.286  64.905  1.00  0.00    -0.017 C 
HETATM   19  C7  UNL     1      44.470   0.691  65.768  1.00  0.00     0.019 C 
HETATM   20  C8  UNL     1      42.998   2.561  65.663  1.00  0.00     0.019 C 
HETATM   21  C9  UNL     1      42.184   0.301  65.184  1.00  0.00     0.019 C 
ENDBRANCH   2  18
TORSDOF 5
ENDMDL
MODEL 3
REMARK VINA RESULT: -7.267370330      1.279      5.233
REMARK  5 active torsions:
REMARK  status: ('A' for Active; 'I' for Inactive)
REMARK    1  A    between atoms: C2_2  and  C4_4 
REMARK    2  A    between atoms: C5_5  and  C6_6 
REMARK    3  A    between atoms: N2_16  and  C12_17 
REMARK    4  A    between atoms: C12_17  and  C13_18 
REMARK    5  A    between atoms: C13_18  and  C14_19 
ROOT
HETATM    1  C4  UNL     1      39.545   3.017  60.335  1.00  0.00     0.056 A 
HETATM    2  C5  UNL     1      40.909   2.792  60.298  1.00  0.00     0.045 A 
HETATM    3  C10 UNL     1      41.509   2.999  59.051  1.00  0.00     0.258 A 
HETATM    4  O1  UNL     1      42.745   2.813  58.951  1.00  0.00    -0.267 OA
HETATM    5  N1  UNL     1      40.821   3.393  57.940  1.00  0.00    -0.275 N 
ATOM      6  H1  UNL     1      41.298   3.533  57.050  1.00  0.00     0.173 HD
HETATM    7  C11 UNL     1      39.505   3.589  58.051  1.00  0.00     0.329 A 
HETATM    8  O2  UNL     1      38.894   3.953  57.002  1.00  0.00    -0.246 OA
HETATM    9  N2  UNL     1      38.852   3.414  59.208  1.00  0.00    -0.298 N 
ENDROOT
BRANCH   9  10
HETATM   10  C12 UNL     1      37.453   3.624  59.209  1.00  0.00     0.134 C 
BRANCH  10  11
HETATM   11  C13 UNL     1      37.001   5.065  59.318  1.00  0.00     0.024 C 
BRANCH  11  12
HETATM   12  C14 UNL     1      35.624   4.991  59.997  1.00  0.00    -0.021 C 
HETATM   13  C15 UNL     1      35.218   3.559  60.134  1.00  0.00     0.009 C 
HETATM   14  C16 UNL     1      35.583   5.769  61.264  1.00  0.00     0.009 C 
ENDBRANCH  11  12
ENDBRANCH  10  11
ENDBRANCH   9  10
BRANCH   1  15
HETATM   15  C2  UNL     1      38.779   2.897  61.564  1.00  0.00    -0.044 C 
HETATM   16  C1  UNL     1      38.160   1.837  62.004  1.00  0.00     0.021 C 
HETATM   17  C3  UNL     1      38.611   4.132  62.434  1.00  0.00     0.049 C 
ENDBRANCH   1  15
BRANCH   2  18
HETATM   18  C6  UNL     1      41.717   2.357  61.419  1.00  0.00    -0.017 C 
HETATM   19  C7  UNL     1      43.223   2.655  61.276  1.00  0.00     0.019 C 
HETATM   20  C8  UNL     1      41.395   2.987  62.766  1.00  0.00     0.019 C 
HETATM   21  C9  UNL     1      41.722   0.832  61.651  1.00  0.00     0.019 C 
ENDBRANCH   2  18
TORSDOF 5
ENDMDL
MODEL 4
REMARK VINA RESULT: -7.022593568      3.551      5.097
REMARK  5 active torsions:
REMARK  status: ('A' for Active; 'I' for Inactive)
REMARK    1  A    between atoms: C2_2  and  C4_4 
REMARK    2  A    between atoms: C5_5  and  C6_6 
REMARK    3  A    between atoms: N2_16  and  C12_17 
REMARK    4  A    between atoms: C12_17  and  C13_18 
REMARK    5  A    between atoms: C13_18  and  C14_19 
ROOT
HETATM    1  C4  UNL     1      43.190   1.905  62.621  1.00  0.00     0.056 A 
HETATM    2  C5  UNL     1      43.292   1.940  61.242  1.00  0.00     0.045 A 
HETATM    3  C10 UNL     1      44.595   1.850  60.743  1.00  0.00     0.258 A 
HETATM    4  O1  UNL     1      44.755   1.875  59.500  1.00  0.00    -0.267 OA
HETATM    5  N1  UNL     1      45.700   1.735  61.537  1.00  0.00    -0.275 N 
ATOM      6  H1  UNL     1      46.633   1.671  61.130  1.00  0.00     0.173 HD
HETATM    7  C11 UNL     1      45.524   1.709  62.860  1.00  0.00     0.329 A 
HETATM    8  O2  UNL     1      46.569   1.603  63.569  1.00  0.00    -0.246 OA
HETATM    9  N2  UNL     1      44.310   1.790  63.421  1.00  0.00    -0.298 N 
ENDROOT
BRANCH   9  10
HETATM   10  C12 UNL     1      44.239   1.780  64.833  1.00  0.00     0.134 C 
BRANCH  10  11
HETATM   11  C13 UNL     1      44.200   0.413  65.483  1.00  0.00     0.024 C 
BRANCH  11  12
HETATM   12  C14 UNL     1      43.616   0.663  66.883  1.00  0.00    -0.021 C 
HETATM   13  C15 UNL     1      43.480   2.135  67.105  1.00  0.00     0.009 C 
HETATM   14  C16 UNL     1      42.369  -0.114  67.117  1.00  0.00     0.009 C 
ENDBRANCH  11  12
ENDBRANCH  10  11
ENDBRANCH   9  10
BRANCH   1  15
HETATM   15  C2  UNL     1      41.905   1.937  63.299  1.00  0.00    -0.044 C 
HETATM   16  C1  UNL     1      41.230   2.994  63.656  1.00  0.00     0.021 C 
HETATM   17  C3  UNL     1      41.267   0.617  63.700  1.00  0.00     0.049 C 
ENDBRANCH   1  15
BRANCH   2  18
HETATM   18  C6  UNL     1      42.180   2.078  60.324  1.00  0.00    -0.017 C 
HETATM   19  C7  UNL     1      42.565   1.982  58.834  1.00  0.00     0.019 C 
HETATM   20  C8  UNL     1      41.080   1.032  60.436  1.00  0.00     0.019 C 
HETATM   21  C9  UNL     1      41.472   3.448  60.375  1.00  0.00     0.019 C 
ENDBRANCH   2  18
TORSDOF 5
ENDMDL
MODEL 5
REMARK VINA RESULT: -6.756577343      1.046      1.118
REMARK  5 active torsions:
REMARK  status: ('A' for Active; 'I' for Inactive)
REMARK    1  A    between atoms: C2_2  and  C4_4 
REMARK    2  A    between atoms: C5_5  and  C6_6 
REMARK    3  A    between atoms: N2_16  and  C12_17 
REMARK    4  A    between atoms: C12_17  and  C13_18 
REMARK    5  A    between atoms: C13_18  and  C14_19 
ROOT
HETATM    1  C4  UNL     1      39.248   2.897  60.604  1.00  0.00     0.056 A 
HETATM    2  C5  UNL     1      38.556   3.497  59.568  1.00  0.00     0.045 A 
HETATM    3  C10 UNL     1      39.219   3.497  58.336  1.00  0.00     0.258 A 
HETATM    4  O1  UNL     1      38.643   4.025  57.355  1.00  0.00    -0.267 OA
HETATM    5  N1  UNL     1      40.455   2.953  58.146  1.00  0.00    -0.275 N 
ATOM      6  H1  UNL     1      40.902   2.974  57.229  1.00  0.00     0.173 HD
HETATM    7  C11 UNL     1      41.064   2.392  59.194  1.00  0.00     0.329 A 
HETATM    8  O2  UNL     1      42.212   1.896  58.985  1.00  0.00    -0.246 OA
HETATM    9  N2  UNL     1      40.500   2.348  60.408  1.00  0.00    -0.298 N 
ENDROOT
BRANCH   9  10
HETATM   10  C12 UNL     1      41.243   1.754  61.454  1.00  0.00     0.134 C 
BRANCH  10  11
HETATM   11  C13 UNL     1      42.162   2.681  62.222  1.00  0.00     0.024 C 
BRANCH  11  12
HETATM   12  C14 UNL     1      43.481   1.901  62.355  1.00  0.00    -0.021 C 
HETATM   13  C15 UNL     1      44.565   2.643  61.643  1.00  0.00     0.009 C 
HETATM   14  C16 UNL     1      43.790   1.563  63.770  1.00  0.00     0.009 C 
ENDBRANCH  11  12
ENDBRANCH  10  11
ENDBRANCH   9  10
BRANCH   1  15
HETATM   15  C2  UNL     1      38.680   2.767  61.936  1.00  0.00    -0.044 C 
HETATM   16  C1  UNL     1      38.803   3.604  62.928  1.00  0.00     0.021 C 
HETATM   17  C3  UNL     1      37.894   1.508  62.266  1.00  0.00     0.049 C 
ENDBRANCH   1  15
BRANCH   2  18
HETATM   18  C6  UNL     1      37.250   4.115  59.681  1.00  0.00    -0.017 C 
HETATM   19  C7  UNL     1      36.909   5.099  58.544  1.00  0.00     0.019 C 
HETATM   20  C8  UNL     1      36.055   3.173  59.655  1.00  0.00     0.019 C 
HETATM   21  C9  UNL     1      37.067   5.004  60.928  1.00  0.00     0.019 C 
ENDBRANCH   2  18
TORSDOF 5
ENDMDL
