MODEL 1
REMARK VINA RESULT: -6.882530313      0.000      0.000
REMARK  11 active torsions:
REMARK  status: ('A' for Active; 'I' for Inactive)
REMARK    1  A    between atoms: C2_2  and  O1_3 
REMARK    2  A    between atoms: O1_3  and  C3_4 
REMARK       I    between atoms: C3_4  and  N1_6 
REMARK    3  A    between atoms: N1_6  and  C4_8 
REMARK    4  A    between atoms: C5_11  and  C6_12 
REMARK    5  A    between atoms: C6_12  and  O4_14 
REMARK    6  A    between atoms: O4_14  and  C7_15 
REMARK    7  A    between atoms: C7_15  and  C8_16 
REMARK    8  A    between atoms: C8_16  and  C9_18 
REMARK    9  A    between atoms: C12_21  and  C13_22 
REMARK   10  A    between atoms: C13_22  and  C14_23 
REMARK   11  A    between atoms: C14_23  and  O7_25 
ROOT
HETATM    1  C4  UNL     1      22.016  29.201  17.484  1.00  0.00     0.154 A 
HETATM    2  N2  UNL     1      22.881  29.791  18.307  1.00  0.00    -0.331 N 
ATOM      3  H2  UNL     1      23.533  29.238  18.862  1.00  0.00     0.168 HD
HETATM    4  C5  UNL     1      22.872  31.106  18.385  1.00  0.00     0.124 A 
HETATM    5  C12 UNL     1      21.967  31.776  17.608  1.00  0.00     0.028 A 
HETATM    6  S1  UNL     1      21.170  30.500  16.801  1.00  0.00    -0.055 SA
ENDROOT
BRANCH   4   7
HETATM    7  C6  UNL     1      23.816  31.818  19.288  1.00  0.00     0.315 C 
HETATM    8  O3  UNL     1      24.984  31.999  18.885  1.00  0.00    -0.257 OA
BRANCH   7   9
HETATM    9  O4  UNL     1      23.495  32.281  20.510  1.00  0.00    -0.282 OA
BRANCH   9  10
HETATM   10  C7  UNL     1      22.373  32.693  21.141  1.00  0.00     0.196 C 
BRANCH  10  11
HETATM   11  C8  UNL     1      21.372  31.789  21.674  1.00  0.00     0.174 C 
HETATM   12  O5  UNL     1      21.627  31.365  22.846  1.00  0.00    -0.291 OA
BRANCH  11  13
HETATM   13  C9  UNL     1      20.125  31.269  21.130  1.00  0.00     0.053 C 
HETATM   14  C10 UNL     1      19.402  32.202  20.183  1.00  0.00     0.018 C 
HETATM   15  C11 UNL     1      20.239  29.855  20.670  1.00  0.00     0.018 C 
ENDBRANCH  11  13
ENDBRANCH  10  11
ENDBRANCH   9  10
ENDBRANCH   7   9
ENDBRANCH   4   7
BRANCH   5  16
HETATM   16  C13 UNL     1      21.755  33.257  17.515  1.00  0.00     0.160 C 
BRANCH  16  17
HETATM   17  C14 UNL     1      22.353  33.733  16.267  1.00  0.00     0.263 C 
HETATM   18  O6  UNL     1      23.586  33.738  16.098  1.00  0.00    -0.265 OA
BRANCH  17  19
HETATM   19  O7  UNL     1      21.591  34.204  15.200  1.00  0.00    -0.326 OA
HETATM   20  C15 UNL     1      20.758  35.348  15.333  1.00  0.00     0.213 C 
ENDBRANCH  17  19
ENDBRANCH  16  17
ENDBRANCH   5  16
BRANCH   1  21
HETATM   21  N1  UNL     1      21.842  27.922  17.241  1.00  0.00    -0.282 N 
HETATM   22  C3  UNL     1      21.780  26.962  18.253  1.00  0.00     0.366 C 
HETATM   23  O2  UNL     1      22.731  26.858  19.068  1.00  0.00    -0.238 OA
ATOM     24  H1  UNL     1      21.748  27.618  16.272  1.00  0.00     0.173 HD
BRANCH  22  25
HETATM   25  O1  UNL     1      20.675  26.124  18.360  1.00  0.00    -0.304 OA
BRANCH  25  26
HETATM   26  C2  UNL     1      20.157  25.896  19.664  1.00  0.00     0.176 C 
HETATM   27  C1  UNL     1      18.789  26.479  19.838  1.00  0.00     0.034 C 
ENDBRANCH  25  26
ENDBRANCH  22  25
ENDBRANCH   1  21
TORSDOF 11
ENDMDL
MODEL 2
REMARK VINA RESULT: -6.709426144      1.239      1.424
REMARK  11 active torsions:
REMARK  status: ('A' for Active; 'I' for Inactive)
REMARK    1  A    between atoms: C2_2  and  O1_3 
REMARK    2  A    between atoms: O1_3  and  C3_4 
REMARK       I    between atoms: C3_4  and  N1_6 
REMARK    3  A    between atoms: N1_6  and  C4_8 
REMARK    4  A    between atoms: C5_11  and  C6_12 
REMARK    5  A    between atoms: C6_12  and  O4_14 
REMARK    6  A    between atoms: O4_14  and  C7_15 
REMARK    7  A    between atoms: C7_15  and  C8_16 
REMARK    8  A    between atoms: C8_16  and  C9_18 
REMARK    9  A    between atoms: C12_21  and  C13_22 
REMARK   10  A    between atoms: C13_22  and  C14_23 
REMARK   11  A    between atoms: C14_23  and  O7_25 
ROOT
HETATM    1  C4  UNL     1      22.337  29.171  17.280  1.00  0.00     0.154 A 
HETATM    2  N2  UNL     1      22.722  29.784  18.397  1.00  0.00    -0.331 N 
ATOM      3  H2  UNL     1      22.760  29.280  19.282  1.00  0.00     0.168 HD
HETATM    4  C5  UNL     1      23.051  31.059  18.329  1.00  0.00     0.124 A 
HETATM    5  C12 UNL     1      22.972  31.663  17.104  1.00  0.00     0.028 A 
HETATM    6  S1  UNL     1      22.434  30.388  16.105  1.00  0.00    -0.055 SA
ENDROOT
BRANCH   4   7
HETATM    7  C6  UNL     1      23.488  31.794  19.545  1.00  0.00     0.315 C 
HETATM    8  O3  UNL     1      24.701  31.770  19.837  1.00  0.00    -0.257 OA
BRANCH   7   9
HETATM    9  O4  UNL     1      22.662  32.486  20.353  1.00  0.00    -0.282 OA
BRANCH   9  10
HETATM   10  C7  UNL     1      21.596  33.302  20.201  1.00  0.00     0.196 C 
BRANCH  10  11
HETATM   11  C8  UNL     1      20.229  32.829  20.087  1.00  0.00     0.174 C 
HETATM   12  O5  UNL     1      19.405  33.713  19.694  1.00  0.00    -0.291 OA
BRANCH  11  13
HETATM   13  C9  UNL     1      19.613  31.532  20.334  1.00  0.00     0.053 C 
HETATM   14  C10 UNL     1      19.523  30.626  19.125  1.00  0.00     0.018 C 
HETATM   15  C11 UNL     1      20.108  30.885  21.582  1.00  0.00     0.018 C 
ENDBRANCH  11  13
ENDBRANCH  10  11
ENDBRANCH   9  10
ENDBRANCH   7   9
ENDBRANCH   4   7
BRANCH   5  16
HETATM   16  C13 UNL     1      23.287  33.089  16.762  1.00  0.00     0.160 C 
BRANCH  16  17
HETATM   17  C14 UNL     1      22.060  33.733  16.290  1.00  0.00     0.263 C 
HETATM   18  O6  UNL     1      20.953  33.466  16.790  1.00  0.00    -0.265 OA
BRANCH  17  19
HETATM   19  O7  UNL     1      22.053  34.675  15.264  1.00  0.00    -0.326 OA
HETATM   20  C15 UNL     1      20.948  35.547  15.065  1.00  0.00     0.213 C 
ENDBRANCH  17  19
ENDBRANCH  16  17
ENDBRANCH   5  16
BRANCH   1  21
HETATM   21  N1  UNL     1      21.968  27.923  17.103  1.00  0.00    -0.282 N 
HETATM   22  C3  UNL     1      21.787  27.031  18.162  1.00  0.00     0.366 C 
HETATM   23  O2  UNL     1      22.730  26.823  18.966  1.00  0.00    -0.238 OA
ATOM     24  H1  UNL     1      21.806  27.592  16.152  1.00  0.00     0.173 HD
BRANCH  22  25
HETATM   25  O1  UNL     1      20.571  26.375  18.329  1.00  0.00    -0.304 OA
BRANCH  25  26
HETATM   26  C2  UNL     1      20.188  26.047  19.658  1.00  0.00     0.176 C 
HETATM   27  C1  UNL     1      18.977  26.809  20.101  1.00  0.00     0.034 C 
ENDBRANCH  25  26
ENDBRANCH  22  25
ENDBRANCH   1  21
TORSDOF 11
ENDMDL
MODEL 3
REMARK VINA RESULT: -6.552652413      1.402      1.957
REMARK  11 active torsions:
REMARK  status: ('A' for Active; 'I' for Inactive)
REMARK    1  A    between atoms: C2_2  and  O1_3 
REMARK    2  A    between atoms: O1_3  and  C3_4 
REMARK       I    between atoms: C3_4  and  N1_6 
REMARK    3  A    between atoms: N1_6  and  C4_8 
REMARK    4  A    between atoms: C5_11  and  C6_12 
REMARK    5  A    between atoms: C6_12  and  O4_14 
REMARK    6  A    between atoms: O4_14  and  C7_15 
REMARK    7  A    between atoms: C7_15  and  C8_16 
REMARK    8  A    between atoms: C8_16  and  C9_18 
REMARK    9  A    between atoms: C12_21  and  C13_22 
REMARK   10  A    between atoms: C13_22  and  C14_23 
REMARK   11  A    between atoms: C14_23  and  O7_25 
ROOT
HETATM    1  C4  UNL     1      22.158  29.391  17.199  1.00  0.00     0.154 A 
HETATM    2  N2  UNL     1      23.298  30.079  17.175  1.00  0.00    -0.331 N 
ATOM      3  H2  UNL     1      24.192  29.603  17.058  1.00  0.00     0.168 HD
HETATM    4  C5  UNL     1      23.240  31.389  17.307  1.00  0.00     0.124 A 
HETATM    5  C12 UNL     1      22.002  31.951  17.459  1.00  0.00     0.028 A 
HETATM    6  S1  UNL     1      20.977  30.587  17.408  1.00  0.00    -0.055 SA
ENDROOT
BRANCH   4   7
HETATM    7  C6  UNL     1      24.482  32.207  17.288  1.00  0.00     0.315 C 
HETATM    8  O3  UNL     1      24.773  32.801  16.229  1.00  0.00    -0.257 OA
BRANCH   7   9
HETATM    9  O4  UNL     1      25.313  32.352  18.337  1.00  0.00    -0.282 OA
BRANCH   9  10
HETATM   10  C7  UNL     1      25.211  32.310  19.683  1.00  0.00     0.196 C 
BRANCH  10  11
HETATM   11  C8  UNL     1      24.223  31.517  20.391  1.00  0.00     0.174 C 
HETATM   12  O5  UNL     1      24.386  30.261  20.275  1.00  0.00    -0.291 OA
BRANCH  11  13
HETATM   13  C9  UNL     1      23.077  31.878  21.215  1.00  0.00     0.053 C 
HETATM   14  C10 UNL     1      22.727  33.351  21.214  1.00  0.00     0.018 C 
HETATM   15  C11 UNL     1      21.925  30.948  21.042  1.00  0.00     0.018 C 
ENDBRANCH  11  13
ENDBRANCH  10  11
ENDBRANCH   9  10
ENDBRANCH   7   9
ENDBRANCH   4   7
BRANCH   5  16
HETATM   16  C13 UNL     1      21.668  33.403  17.628  1.00  0.00     0.160 C 
BRANCH  16  17
HETATM   17  C14 UNL     1      21.265  33.939  16.326  1.00  0.00     0.263 C 
HETATM   18  O6  UNL     1      21.738  33.493  15.266  1.00  0.00    -0.265 OA
BRANCH  17  19
HETATM   19  O7  UNL     1      20.338  34.970  16.193  1.00  0.00    -0.326 OA
HETATM   20  C15 UNL     1      20.341  35.827  15.058  1.00  0.00     0.213 C 
ENDBRANCH  17  19
ENDBRANCH  16  17
ENDBRANCH   5  16
BRANCH   1  21
HETATM   21  N1  UNL     1      21.968  28.096  17.088  1.00  0.00    -0.282 N 
HETATM   22  C3  UNL     1      21.842  27.253  18.193  1.00  0.00     0.366 C 
HETATM   23  O2  UNL     1      22.754  27.223  19.057  1.00  0.00    -0.238 OA
ATOM     24  H1  UNL     1      21.910  27.690  16.154  1.00  0.00     0.173 HD
BRANCH  22  25
HETATM   25  O1  UNL     1      20.716  26.449  18.340  1.00  0.00    -0.304 OA
BRANCH  25  26
HETATM   26  C2  UNL     1      20.292  26.161  19.665  1.00  0.00     0.176 C 
HETATM   27  C1  UNL     1      18.838  26.452  19.870  1.00  0.00     0.034 C 
ENDBRANCH  25  26
ENDBRANCH  22  25
ENDBRANCH   1  21
TORSDOF 11
ENDMDL
MODEL 4
REMARK VINA RESULT: -6.523534343      1.613      2.512
REMARK  11 active torsions:
REMARK  status: ('A' for Active; 'I' for Inactive)
REMARK    1  A    between atoms: C2_2  and  O1_3 
REMARK    2  A    between atoms: O1_3  and  C3_4 
REMARK       I    between atoms: C3_4  and  N1_6 
REMARK    3  A    between atoms: N1_6  and  C4_8 
REMARK    4  A    between atoms: C5_11  and  C6_12 
REMARK    5  A    between atoms: C6_12  and  O4_14 
REMARK    6  A    between atoms: O4_14  and  C7_15 
REMARK    7  A    between atoms: C7_15  and  C8_16 
REMARK    8  A    between atoms: C8_16  and  C9_18 
REMARK    9  A    between atoms: C12_21  and  C13_22 
REMARK   10  A    between atoms: C13_22  and  C14_23 
REMARK   11  A    between atoms: C14_23  and  O7_25 
ROOT
HETATM    1  C4  UNL     1      22.026  29.269  17.674  1.00  0.00     0.154 A 
HETATM    2  N2  UNL     1      22.917  29.796  18.511  1.00  0.00    -0.331 N 
ATOM      3  H2  UNL     1      23.580  29.202  19.009  1.00  0.00     0.168 HD
HETATM    4  C5  UNL     1      22.921  31.103  18.678  1.00  0.00     0.124 A 
HETATM    5  C12 UNL     1      22.001  31.830  17.973  1.00  0.00     0.028 A 
HETATM    6  S1  UNL     1      21.172  30.617  17.104  1.00  0.00    -0.055 SA
ENDROOT
BRANCH   4   7
HETATM    7  C6  UNL     1      23.896  31.746  19.599  1.00  0.00     0.315 C 
HETATM    8  O3  UNL     1      24.967  32.165  19.116  1.00  0.00    -0.257 OA
BRANCH   7   9
HETATM    9  O4  UNL     1      23.698  31.907  20.921  1.00  0.00    -0.282 OA
BRANCH   9  10
HETATM   10  C7  UNL     1      23.067  32.797  21.719  1.00  0.00     0.196 C 
BRANCH  10  11
HETATM   11  C8  UNL     1      23.710  33.966  22.287  1.00  0.00     0.174 C 
HETATM   12  O5  UNL     1      23.560  35.026  21.601  1.00  0.00    -0.291 OA
BRANCH  11  13
HETATM   13  C9  UNL     1      24.497  34.167  23.497  1.00  0.00     0.053 C 
HETATM   14  C10 UNL     1      24.139  35.402  24.295  1.00  0.00     0.018 C 
HETATM   15  C11 UNL     1      24.663  32.917  24.293  1.00  0.00     0.018 C 
ENDBRANCH  11  13
ENDBRANCH  10  11
ENDBRANCH   9  10
ENDBRANCH   7   9
ENDBRANCH   4   7
BRANCH   5  16
HETATM   16  C13 UNL     1      21.799  33.315  17.985  1.00  0.00     0.160 C 
BRANCH  16  17
HETATM   17  C14 UNL     1      21.921  33.810  16.613  1.00  0.00     0.263 C 
HETATM   18  O6  UNL     1      23.024  33.877  16.042  1.00  0.00    -0.265 OA
BRANCH  17  19
HETATM   19  O7  UNL     1      20.823  34.234  15.867  1.00  0.00    -0.326 OA
HETATM   20  C15 UNL     1      20.816  35.493  15.207  1.00  0.00     0.213 C 
ENDBRANCH  17  19
ENDBRANCH  16  17
ENDBRANCH   5  16
BRANCH   1  21
HETATM   21  N1  UNL     1      21.834  28.010  17.351  1.00  0.00    -0.282 N 
HETATM   22  C3  UNL     1      21.773  26.987  18.299  1.00  0.00     0.366 C 
HETATM   23  O2  UNL     1      22.731  26.820  19.094  1.00  0.00    -0.238 OA
ATOM     24  H1  UNL     1      21.726  27.771  16.365  1.00  0.00     0.173 HD
BRANCH  22  25
HETATM   25  O1  UNL     1      20.659  26.155  18.364  1.00  0.00    -0.304 OA
BRANCH  25  26
HETATM   26  C2  UNL     1      20.131  25.880  19.655  1.00  0.00     0.176 C 
HETATM   27  C1  UNL     1      18.764  26.461  19.842  1.00  0.00     0.034 C 
ENDBRANCH  25  26
ENDBRANCH  22  25
ENDBRANCH   1  21
TORSDOF 11
ENDMDL
MODEL 5
REMARK VINA RESULT: -6.520552991      2.025      3.731
REMARK  11 active torsions:
REMARK  status: ('A' for Active; 'I' for Inactive)
REMARK    1  A    between atoms: C2_2  and  O1_3 
REMARK    2  A    between atoms: O1_3  and  C3_4 
REMARK       I    between atoms: C3_4  and  N1_6 
REMARK    3  A    between atoms: N1_6  and  C4_8 
REMARK    4  A    between atoms: C5_11  and  C6_12 
REMARK    5  A    between atoms: C6_12  and  O4_14 
REMARK    6  A    between atoms: O4_14  and  C7_15 
REMARK    7  A    between atoms: C7_15  and  C8_16 
REMARK    8  A    between atoms: C8_16  and  C9_18 
REMARK    9  A    between atoms: C12_21  and  C13_22 
REMARK   10  A    between atoms: C13_22  and  C14_23 
REMARK   11  A    between atoms: C14_23  and  O7_25 
ROOT
HETATM    1  C4  UNL     1      21.433  29.160  18.607  1.00  0.00     0.154 A 
HETATM    2  N2  UNL     1      22.612  29.722  18.863  1.00  0.00    -0.331 N 
ATOM      3  H2  UNL     1      23.481  29.248  18.617  1.00  0.00     0.168 HD
HETATM    4  C5  UNL     1      22.628  30.906  19.442  1.00  0.00     0.124 A 
HETATM    5  C12 UNL     1      21.420  31.476  19.740  1.00  0.00     0.028 A 
HETATM    6  S1  UNL     1      20.318  30.298  19.181  1.00  0.00    -0.055 SA
ENDROOT
BRANCH   4   7
HETATM    7  C6  UNL     1      23.917  31.581  19.751  1.00  0.00     0.315 C 
HETATM    8  O3  UNL     1      24.408  31.410  20.885  1.00  0.00    -0.257 OA
BRANCH   7   9
HETATM    9  O4  UNL     1      24.590  32.365  18.887  1.00  0.00    -0.282 OA
BRANCH   9  10
HETATM   10  C7  UNL     1      24.579  32.595  17.556  1.00  0.00     0.196 C 
BRANCH  10  11
HETATM   11  C8  UNL     1      24.425  31.550  16.560  1.00  0.00     0.174 C 
HETATM   12  O5  UNL     1      25.407  30.744  16.499  1.00  0.00    -0.291 OA
BRANCH  11  13
HETATM   13  C9  UNL     1      23.362  31.240  15.614  1.00  0.00     0.053 C 
HETATM   14  C10 UNL     1      23.272  29.785  15.208  1.00  0.00     0.018 C 
HETATM   15  C11 UNL     1      22.066  31.885  15.969  1.00  0.00     0.018 C 
ENDBRANCH  11  13
ENDBRANCH  10  11
ENDBRANCH   9  10
ENDBRANCH   7   9
ENDBRANCH   4   7
BRANCH   5  16
HETATM   16  C13 UNL     1      21.167  32.801  20.393  1.00  0.00     0.160 C 
BRANCH  16  17
HETATM   17  C14 UNL     1      20.285  33.583  19.526  1.00  0.00     0.263 C 
HETATM   18  O6  UNL     1      20.676  34.024  18.431  1.00  0.00    -0.265 OA
BRANCH  17  19
HETATM   19  O7  UNL     1      18.967  33.882  19.866  1.00  0.00    -0.326 OA
HETATM   20  C15 UNL     1      18.569  35.205  20.200  1.00  0.00     0.213 C 
ENDBRANCH  17  19
ENDBRANCH  16  17
ENDBRANCH   5  16
BRANCH   1  21
HETATM   21  N1  UNL     1      21.171  28.002  18.045  1.00  0.00    -0.282 N 
HETATM   22  C3  UNL     1      21.435  26.781  18.668  1.00  0.00     0.366 C 
HETATM   23  O2  UNL     1      22.600  26.525  19.062  1.00  0.00    -0.238 OA
ATOM     24  H1  UNL     1      20.756  27.995  17.113  1.00  0.00     0.173 HD
BRANCH  22  25
HETATM   25  O1  UNL     1      20.416  25.852  18.854  1.00  0.00    -0.304 OA
BRANCH  25  26
HETATM   26  C2  UNL     1      19.335  26.234  19.694  1.00  0.00     0.176 C 
HETATM   27  C1  UNL     1      19.761  26.411  21.119  1.00  0.00     0.034 C 
ENDBRANCH  25  26
ENDBRANCH  22  25
ENDBRANCH   1  21
TORSDOF 11
ENDMDL
