MODEL 1
REMARK VINA RESULT: -9.732393384      0.000      0.000
REMARK  15 active torsions:
REMARK  status: ('A' for Active; 'I' for Inactive)
REMARK    1  A    between atoms: O1_2  and  C2_3 
REMARK    2  A    between atoms: C2_3  and  N1_4 
REMARK    3  A    between atoms: C3_9  and  S1_10 
REMARK    4  A    between atoms: S1_10  and  C4_11 
REMARK    5  A    between atoms: C5_12  and  C6_13 
REMARK    6  A    between atoms: C6_13  and  C7_14 
REMARK    7  A    between atoms: C7_14  and  C8_15 
REMARK    8  A    between atoms: C8_15  and  N5_16 
REMARK    9  A    between atoms: C12_25  and  N8_26 
REMARK   10  A    between atoms: C13_31  and  N10_32 
REMARK   11  A    between atoms: N11_36  and  C15_37 
REMARK   12  A    between atoms: C15_37  and  C16_38 
REMARK   13  A    between atoms: C17_42  and  N14_43 
REMARK       I    between atoms: N14_43  and  C18_45 
REMARK   14  A    between atoms: C18_45  and  C19_47 
REMARK       I    between atoms: C19_47  and  N15_49 
REMARK   15  A    between atoms: C22_54  and  N17_55 
ROOT
HETATM    1  N5  UNL     1      16.304  31.185  26.373  1.00  0.00    -0.283 N 
HETATM    2  C9  UNL     1      17.055  32.106  25.786  1.00  0.00     0.328 A 
HETATM    3  O2  UNL     1      17.533  32.098  24.642  1.00  0.00    -0.246 OA
HETATM    4  N6  UNL     1      17.273  33.153  26.617  1.00  0.00    -0.303 N 
ATOM      5  H6  UNL     1      17.817  33.990  26.413  1.00  0.00     0.171 HD
HETATM    6  C10 UNL     1      16.629  32.870  27.766  1.00  0.00     0.111 A 
HETATM    7  C11 UNL     1      16.338  33.347  29.006  1.00  0.00     0.111 A 
HETATM    8  N7  UNL     1      16.689  34.503  29.614  1.00  0.00    -0.187 N 
ATOM      9  H7  UNL     1      17.281  35.173  29.122  1.00  0.00     0.184 HD
HETATM   10  C12 UNL     1      16.268  34.774  30.855  1.00  0.00     0.678 A 
HETATM   11  N9  UNL     1      15.500  33.877  31.460  1.00  0.00    -0.175 N 
ATOM     12  H9  UNL     1      15.172  34.074  32.405  1.00  0.00     0.186 HD
HETATM   13  C13 UNL     1      15.131  32.706  30.872  1.00  0.00     0.144 A 
HETATM   14  C14 UNL     1      15.539  32.395  29.617  1.00  0.00     0.115 A 
HETATM   15  N11 UNL     1      15.340  31.353  28.783  1.00  0.00    -0.297 N 
HETATM   16  C24 UNL     1      15.997  31.623  27.648  1.00  0.00     0.148 A 
ENDROOT
BRANCH  15  17
HETATM   17  C15 UNL     1      14.559  30.220  29.089  1.00  0.00     0.149 C 
BRANCH  17  18
HETATM   18  C16 UNL     1      13.352  29.969  28.264  1.00  0.00     0.153 A 
HETATM   19  N12 UNL     1      12.374  30.804  27.856  1.00  0.00    -0.248 N 
HETATM   20  N13 UNL     1      11.491  30.209  27.085  1.00  0.00     0.093 N 
ATOM     21  H12 UNL     1      12.325  31.788  28.117  1.00  0.00     0.190 HD
HETATM   22  C17 UNL     1      10.373  30.636  26.459  1.00  0.00     0.736 A 
HETATM   23  C23 UNL     1      11.876  28.927  26.960  1.00  0.00     0.735 A 
HETATM   24  N16 UNL     1       9.670  29.770  25.724  1.00  0.00    -0.020 N 
HETATM   25  C22 UNL     1      10.054  28.469  25.593  1.00  0.00     0.705 A 
ATOM     26  H16 UNL     1       8.826  30.090  25.250  1.00  0.00     0.203 HD
HETATM   27  N18 UNL     1      11.162  28.039  26.211  1.00  0.00    -0.020 N 
ATOM     28  H18 UNL     1      11.465  27.070  26.124  1.00  0.00     0.203 HD
HETATM   29  N19 UNL     1      12.985  28.791  27.665  1.00  0.00    -0.171 N 
ATOM     30  H19 UNL     1      13.505  27.918  27.754  1.00  0.00     0.186 HD
BRANCH  22  31
HETATM   31  N14 UNL     1      10.005  31.857  26.583  1.00  0.00    -0.148 N 
HETATM   32  C18 UNL     1      10.338  32.877  25.665  1.00  0.00     0.327 C 
HETATM   33  O3  UNL     1       9.438  33.278  24.885  1.00  0.00    -0.261 OA
ATOM     34  H14 UNL     1       9.436  32.106  27.392  1.00  0.00     0.188 HD
BRANCH  32  35
HETATM   35  C19 UNL     1      11.675  33.462  25.608  1.00  0.00     0.312 C 
HETATM   36  O4  UNL     1      12.233  33.742  26.692  1.00  0.00    -0.262 OA
HETATM   37  N15 UNL     1      12.291  33.693  24.358  1.00  0.00    -0.341 N 
HETATM   38  C20 UNL     1      13.466  34.184  23.655  1.00  0.00     0.146 A 
HETATM   39  C21 UNL     1      12.289  33.651  22.915  1.00  0.00     0.146 A 
ENDBRANCH  32  35
ENDBRANCH  22  31
BRANCH  25  40
HETATM   40  N17 UNL     1       9.344  27.661  24.871  1.00  0.00    -0.234 N 
ATOM     41 2H17 UNL     1       9.520  27.566  23.870  1.00  0.00     0.174 HD
ATOM     42 1H17 UNL     1       8.601  27.114  25.307  1.00  0.00     0.174 HD
ENDBRANCH  25  40
ENDBRANCH  17  18
ENDBRANCH  15  17
BRANCH  13  43
HETATM   43  N10 UNL     1      14.379  31.961  31.554  1.00  0.00    -0.383 N 
ATOM     44 2H10 UNL     1      14.347  31.985  32.573  1.00  0.00     0.157 HD
ATOM     45 1H10 UNL     1      13.806  31.303  31.026  1.00  0.00     0.157 HD
ENDBRANCH  13  43
BRANCH   1  46
HETATM   46  C8  UNL     1      15.856  29.957  25.843  1.00  0.00     0.135 C 
BRANCH  46  47
HETATM   47  C7  UNL     1      16.422  28.698  26.398  1.00  0.00     0.024 C 
BRANCH  47  48
HETATM   48  C6  UNL     1      17.228  27.813  25.492  1.00  0.00     0.029 C 
BRANCH  48  49
HETATM   49  C5  UNL     1      16.430  27.098  24.474  1.00  0.00    -0.019 C 
HETATM   50  C4  UNL     1      16.334  27.306  23.191  1.00  0.00     0.049 C 
BRANCH  50  51
HETATM   51  S1  UNL     1      15.310  26.331  22.112  1.00  0.00    -0.064 SA
BRANCH  51  52
HETATM   52  C3  UNL     1      13.617  26.476  22.648  1.00  0.00     0.178 A 
HETATM   53  N1  UNL     1      12.765  27.485  22.387  1.00  0.00    -0.232 N 
HETATM   54  N2  UNL     1      11.619  27.196  22.975  1.00  0.00    -0.002 NA
HETATM   55  N3  UNL     1      11.697  26.029  23.611  1.00  0.00    -0.007 NA
HETATM   56  N4  UNL     1      12.935  25.598  23.400  1.00  0.00    -0.264 N 
ATOM     57  H4  UNL     1      13.315  24.722  23.759  1.00  0.00     0.186 HD
BRANCH  53  58
HETATM   58  C2  UNL     1      12.996  28.688  21.614  1.00  0.00     0.316 C 
BRANCH  58  59
HETATM   59  O1  UNL     1      12.978  28.473  20.254  1.00  0.00    -0.375 OA
HETATM   60  C1  UNL     1      12.572  29.557  19.507  1.00  0.00     0.203 C 
ENDBRANCH  58  59
ENDBRANCH  53  58
ENDBRANCH  51  52
ENDBRANCH  50  51
ENDBRANCH  48  49
ENDBRANCH  47  48
ENDBRANCH  46  47
ENDBRANCH   1  46
BRANCH  10  61
HETATM   61  N8  UNL     1      16.610  35.893  31.442  1.00  0.00    -0.234 N 
ATOM     62  H82 UNL     1      17.135  36.616  30.951  1.00  0.00     0.174 HD
ATOM     63  H81 UNL     1      16.355  36.065  32.415  1.00  0.00     0.174 HD
ENDBRANCH  10  61
TORSDOF 15
ENDMDL
MODEL 2
REMARK VINA RESULT: -9.621955873      1.881      2.205
REMARK  15 active torsions:
REMARK  status: ('A' for Active; 'I' for Inactive)
REMARK    1  A    between atoms: O1_2  and  C2_3 
REMARK    2  A    between atoms: C2_3  and  N1_4 
REMARK    3  A    between atoms: C3_9  and  S1_10 
REMARK    4  A    between atoms: S1_10  and  C4_11 
REMARK    5  A    between atoms: C5_12  and  C6_13 
REMARK    6  A    between atoms: C6_13  and  C7_14 
REMARK    7  A    between atoms: C7_14  and  C8_15 
REMARK    8  A    between atoms: C8_15  and  N5_16 
REMARK    9  A    between atoms: C12_25  and  N8_26 
REMARK   10  A    between atoms: C13_31  and  N10_32 
REMARK   11  A    between atoms: N11_36  and  C15_37 
REMARK   12  A    between atoms: C15_37  and  C16_38 
REMARK   13  A    between atoms: C17_42  and  N14_43 
REMARK       I    between atoms: N14_43  and  C18_45 
REMARK   14  A    between atoms: C18_45  and  C19_47 
REMARK       I    between atoms: C19_47  and  N15_49 
REMARK   15  A    between atoms: C22_54  and  N17_55 
ROOT
HETATM    1  N5  UNL     1      16.677  31.563  25.400  1.00  0.00    -0.283 N 
HETATM    2  C9  UNL     1      17.386  32.671  25.239  1.00  0.00     0.328 A 
HETATM    3  O2  UNL     1      17.905  33.111  24.204  1.00  0.00    -0.246 OA
HETATM    4  N6  UNL     1      17.503  33.343  26.408  1.00  0.00    -0.303 N 
ATOM      5  H6  UNL     1      17.997  34.222  26.559  1.00  0.00     0.171 HD
HETATM    6  C10 UNL     1      16.837  32.624  27.332  1.00  0.00     0.111 A 
HETATM    7  C11 UNL     1      16.469  32.593  28.641  1.00  0.00     0.111 A 
HETATM    8  N7  UNL     1      16.720  33.455  29.652  1.00  0.00    -0.187 N 
ATOM      9  H7  UNL     1      17.283  34.288  29.477  1.00  0.00     0.184 HD
HETATM   10  C12 UNL     1      16.236  33.226  30.878  1.00  0.00     0.678 A 
HETATM   11  N9  UNL     1      15.508  32.133  31.064  1.00  0.00    -0.175 N 
ATOM     12  H9  UNL     1      15.132  31.949  31.994  1.00  0.00     0.186 HD
HETATM   13  C13 UNL     1      15.239  31.247  30.065  1.00  0.00     0.144 A 
HETATM   14  C14 UNL     1      15.713  31.445  28.810  1.00  0.00     0.115 A 
HETATM   15  N11 UNL     1      15.615  30.777  27.642  1.00  0.00    -0.297 N 
HETATM   16  C24 UNL     1      16.294  31.481  26.726  1.00  0.00     0.148 A 
ENDROOT
BRANCH  15  17
HETATM   17  C15 UNL     1      14.901  29.576  27.462  1.00  0.00     0.149 C 
BRANCH  17  18
HETATM   18  C16 UNL     1      13.545  29.660  26.864  1.00  0.00     0.153 A 
HETATM   19  N12 UNL     1      12.923  30.675  26.231  1.00  0.00    -0.248 N 
HETATM   20  N13 UNL     1      11.728  30.341  25.794  1.00  0.00     0.093 N 
ATOM     21  H12 UNL     1      13.333  31.600  26.104  1.00  0.00     0.190 HD
HETATM   22  C17 UNL     1      10.769  31.013  25.121  1.00  0.00     0.736 A 
HETATM   23  C23 UNL     1      11.526  29.058  26.139  1.00  0.00     0.735 A 
HETATM   24  N16 UNL     1       9.634  30.382  24.809  1.00  0.00    -0.020 N 
HETATM   25  C22 UNL     1       9.422  29.081  25.155  1.00  0.00     0.705 A 
ATOM     26  H16 UNL     1       8.908  30.886  24.300  1.00  0.00     0.203 HD
HETATM   27  N18 UNL     1      10.369  28.410  25.824  1.00  0.00    -0.020 N 
ATOM     28  H18 UNL     1      10.228  27.437  26.090  1.00  0.00     0.203 HD
HETATM   29  N19 UNL     1      12.612  28.658  26.777  1.00  0.00    -0.171 N 
ATOM     30  H19 UNL     1      12.742  27.720  27.157  1.00  0.00     0.186 HD
BRANCH  22  31
HETATM   31  N14 UNL     1      10.961  32.237  24.797  1.00  0.00    -0.148 N 
HETATM   32  C18 UNL     1      11.112  33.286  25.730  1.00  0.00     0.327 C 
HETATM   33  O3  UNL     1      12.268  33.744  25.911  1.00  0.00    -0.261 OA
ATOM     34  H14 UNL     1      11.008  32.468  23.804  1.00  0.00     0.188 HD
BRANCH  32  35
HETATM   35  C19 UNL     1       9.979  33.835  26.470  1.00  0.00     0.312 C 
HETATM   36  O4  UNL     1       9.625  33.242  27.514  1.00  0.00    -0.262 OA
HETATM   37  N15 UNL     1       9.325  34.996  26.000  1.00  0.00    -0.341 N 
HETATM   38  C20 UNL     1       8.261  35.962  26.218  1.00  0.00     0.146 A 
HETATM   39  C21 UNL     1       9.167  36.063  25.041  1.00  0.00     0.146 A 
ENDBRANCH  32  35
ENDBRANCH  22  31
BRANCH  25  40
HETATM   40  N17 UNL     1       8.306  28.506  24.834  1.00  0.00    -0.234 N 
ATOM     41 2H17 UNL     1       7.645  28.965  24.207  1.00  0.00     0.174 HD
ATOM     42 1H17 UNL     1       8.085  27.584  25.213  1.00  0.00     0.174 HD
ENDBRANCH  25  40
ENDBRANCH  17  18
ENDBRANCH  15  17
BRANCH  13  43
HETATM   43  N10 UNL     1      14.514  30.267  30.379  1.00  0.00    -0.383 N 
ATOM     44 2H10 UNL     1      13.534  30.363  30.647  1.00  0.00     0.157 HD
ATOM     45 1H10 UNL     1      14.969  29.354  30.373  1.00  0.00     0.157 HD
ENDBRANCH  13  43
BRANCH   1  46
HETATM   46  C8  UNL     1      16.331  30.599  24.430  1.00  0.00     0.135 C 
BRANCH  46  47
HETATM   47  C7  UNL     1      17.031  29.287  24.455  1.00  0.00     0.024 C 
BRANCH  47  48
HETATM   48  C6  UNL     1      16.211  28.033  24.361  1.00  0.00     0.029 C 
BRANCH  48  49
HETATM   49  C5  UNL     1      14.933  28.197  23.640  1.00  0.00    -0.019 C 
HETATM   50  C4  UNL     1      14.516  27.635  22.539  1.00  0.00     0.049 C 
BRANCH  50  51
HETATM   51  S1  UNL     1      12.926  27.959  21.812  1.00  0.00    -0.064 SA
BRANCH  51  52
HETATM   52  C3  UNL     1      11.695  27.018  22.691  1.00  0.00     0.178 A 
HETATM   53  N1  UNL     1      10.365  27.022  22.481  1.00  0.00    -0.232 N 
HETATM   54  N2  UNL     1       9.826  26.188  23.351  1.00  0.00    -0.002 NA
HETATM   55  N3  UNL     1      10.762  25.642  24.122  1.00  0.00    -0.007 NA
HETATM   56  N4  UNL     1      11.910  26.163  23.703  1.00  0.00    -0.264 N 
ATOM     57  H4  UNL     1      12.826  25.945  24.095  1.00  0.00     0.186 HD
BRANCH  53  58
HETATM   58  C2  UNL     1       9.605  27.771  21.501  1.00  0.00     0.316 C 
BRANCH  58  59
HETATM   59  O1  UNL     1       9.420  29.090  21.849  1.00  0.00    -0.375 OA
HETATM   60  C1  UNL     1       8.274  29.662  21.343  1.00  0.00     0.203 C 
ENDBRANCH  58  59
ENDBRANCH  53  58
ENDBRANCH  51  52
ENDBRANCH  50  51
ENDBRANCH  48  49
ENDBRANCH  47  48
ENDBRANCH  46  47
ENDBRANCH   1  46
BRANCH  10  61
HETATM   61  N8  UNL     1      16.480  34.062  31.856  1.00  0.00    -0.234 N 
ATOM     62  H82 UNL     1      17.301  33.961  32.453  1.00  0.00     0.174 HD
ATOM     63  H81 UNL     1      15.848  34.840  32.041  1.00  0.00     0.174 HD
ENDBRANCH  10  61
TORSDOF 15
ENDMDL
MODEL 3
REMARK VINA RESULT: -9.608559495      1.562      1.929
REMARK  15 active torsions:
REMARK  status: ('A' for Active; 'I' for Inactive)
REMARK    1  A    between atoms: O1_2  and  C2_3 
REMARK    2  A    between atoms: C2_3  and  N1_4 
REMARK    3  A    between atoms: C3_9  and  S1_10 
REMARK    4  A    between atoms: S1_10  and  C4_11 
REMARK    5  A    between atoms: C5_12  and  C6_13 
REMARK    6  A    between atoms: C6_13  and  C7_14 
REMARK    7  A    between atoms: C7_14  and  C8_15 
REMARK    8  A    between atoms: C8_15  and  N5_16 
REMARK    9  A    between atoms: C12_25  and  N8_26 
REMARK   10  A    between atoms: C13_31  and  N10_32 
REMARK   11  A    between atoms: N11_36  and  C15_37 
REMARK   12  A    between atoms: C15_37  and  C16_38 
REMARK   13  A    between atoms: C17_42  and  N14_43 
REMARK       I    between atoms: N14_43  and  C18_45 
REMARK   14  A    between atoms: C18_45  and  C19_47 
REMARK       I    between atoms: C19_47  and  N15_49 
REMARK   15  A    between atoms: C22_54  and  N17_55 
ROOT
HETATM    1  N5  UNL     1      16.827  31.677  25.077  1.00  0.00    -0.283 N 
HETATM    2  C9  UNL     1      17.391  32.853  24.845  1.00  0.00     0.328 A 
HETATM    3  O2  UNL     1      17.846  33.295  23.780  1.00  0.00    -0.246 OA
HETATM    4  N6  UNL     1      17.426  33.602  25.972  1.00  0.00    -0.303 N 
ATOM      5  H6  UNL     1      17.807  34.543  26.067  1.00  0.00     0.171 HD
HETATM    6  C10 UNL     1      16.860  32.860  26.943  1.00  0.00     0.111 A 
HETATM    7  C11 UNL     1      16.505  32.858  28.256  1.00  0.00     0.111 A 
HETATM    8  N7  UNL     1      16.649  33.803  29.213  1.00  0.00    -0.187 N 
ATOM      9  H7  UNL     1      17.102  34.688  28.985  1.00  0.00     0.184 HD
HETATM   10  C12 UNL     1      16.202  33.586  30.456  1.00  0.00     0.678 A 
HETATM   11  N9  UNL     1      15.618  32.423  30.712  1.00  0.00    -0.175 N 
ATOM     12  H9  UNL     1      15.273  32.248  31.655  1.00  0.00     0.186 HD
HETATM   13  C13 UNL     1      15.460  31.454  29.768  1.00  0.00     0.144 A 
HETATM   14  C14 UNL     1      15.900  31.636  28.499  1.00  0.00     0.115 A 
HETATM   15  N11 UNL     1      15.882  30.895  27.371  1.00  0.00    -0.297 N 
HETATM   16  C24 UNL     1      16.464  31.624  26.410  1.00  0.00     0.148 A 
ENDROOT
BRANCH  15  17
HETATM   17  C15 UNL     1      15.324  29.605  27.269  1.00  0.00     0.149 C 
BRANCH  17  18
HETATM   18  C16 UNL     1      13.879  29.501  26.946  1.00  0.00     0.153 A 
HETATM   19  N12 UNL     1      13.077  30.307  26.222  1.00  0.00    -0.248 N 
HETATM   20  N13 UNL     1      11.852  29.842  26.121  1.00  0.00     0.093 N 
ATOM     21  H12 UNL     1      13.387  31.181  25.799  1.00  0.00     0.190 HD
HETATM   22  C17 UNL     1      10.737  30.298  25.508  1.00  0.00     0.736 A 
HETATM   23  C23 UNL     1      11.812  28.681  26.797  1.00  0.00     0.735 A 
HETATM   24  N16 UNL     1       9.615  29.579  25.586  1.00  0.00    -0.020 N 
HETATM   25  C22 UNL     1       9.568  28.400  26.270  1.00  0.00     0.705 A 
ATOM     26  H16 UNL     1       8.772  29.920  25.123  1.00  0.00     0.203 HD
HETATM   27  N18 UNL     1      10.669  27.944  26.880  1.00  0.00    -0.020 N 
ATOM     28  H18 UNL     1      10.652  27.065  27.396  1.00  0.00     0.203 HD
HETATM   29  N19 UNL     1      13.024  28.483  27.287  1.00  0.00    -0.171 N 
ATOM     30  H19 UNL     1      13.291  27.675  27.848  1.00  0.00     0.186 HD
BRANCH  22  31
HETATM   31  N14 UNL     1      10.775  31.406  24.868  1.00  0.00    -0.148 N 
HETATM   32  C18 UNL     1      11.055  32.654  25.466  1.00  0.00     0.327 C 
HETATM   33  O3  UNL     1      12.190  33.154  25.268  1.00  0.00    -0.261 OA
ATOM     34  H14 UNL     1      10.591  31.386  23.864  1.00  0.00     0.188 HD
BRANCH  32  35
HETATM   35  C19 UNL     1      10.075  33.357  26.290  1.00  0.00     0.312 C 
HETATM   36  O4  UNL     1       9.681  32.790  27.334  1.00  0.00    -0.262 OA
HETATM   37  N15 UNL     1       9.606  34.630  25.897  1.00  0.00    -0.341 N 
HETATM   38  C20 UNL     1       8.737  35.754  26.210  1.00  0.00     0.146 A 
HETATM   39  C21 UNL     1       9.582  35.747  24.984  1.00  0.00     0.146 A 
ENDBRANCH  32  35
ENDBRANCH  22  31
BRANCH  25  40
HETATM   40  N17 UNL     1       8.458  27.733  26.321  1.00  0.00    -0.234 N 
ATOM     41 2H17 UNL     1       7.560  28.216  26.330  1.00  0.00     0.174 HD
ATOM     42 1H17 UNL     1       8.483  26.714  26.354  1.00  0.00     0.174 HD
ENDBRANCH  25  40
ENDBRANCH  17  18
ENDBRANCH  15  17
BRANCH  13  43
HETATM   43  N10 UNL     1      14.865  30.411  30.146  1.00  0.00    -0.383 N 
ATOM     44 2H10 UNL     1      14.829  30.112  31.120  1.00  0.00     0.157 HD
ATOM     45 1H10 UNL     1      14.428  29.855  29.410  1.00  0.00     0.157 HD
ENDBRANCH  13  43
BRANCH   1  46
HETATM   46  C8  UNL     1      16.602  30.622  24.167  1.00  0.00     0.135 C 
BRANCH  46  47
HETATM   47  C7  UNL     1      17.661  29.590  24.004  1.00  0.00     0.024 C 
BRANCH  47  48
HETATM   48  C6  UNL     1      17.450  28.240  24.626  1.00  0.00     0.029 C 
BRANCH  48  49
HETATM   49  C5  UNL     1      16.448  27.403  23.934  1.00  0.00    -0.019 C 
HETATM   50  C4  UNL     1      15.209  27.148  24.253  1.00  0.00     0.049 C 
BRANCH  50  51
HETATM   51  S1  UNL     1      14.142  26.105  23.286  1.00  0.00    -0.064 SA
BRANCH  51  52
HETATM   52  C3  UNL     1      12.506  26.810  23.283  1.00  0.00     0.178 A 
HETATM   53  N1  UNL     1      12.145  28.025  22.832  1.00  0.00    -0.232 N 
HETATM   54  N2  UNL     1      10.843  28.146  23.021  1.00  0.00    -0.002 NA
HETATM   55  N3  UNL     1      10.345  27.046  23.581  1.00  0.00    -0.007 NA
HETATM   56  N4  UNL     1      11.382  26.232  23.737  1.00  0.00    -0.264 N 
ATOM     57  H4  UNL     1      11.333  25.297  24.144  1.00  0.00     0.186 HD
BRANCH  53  58
HETATM   58  C2  UNL     1      12.974  29.054  22.239  1.00  0.00     0.316 C 
BRANCH  58  59
HETATM   59  O1  UNL     1      13.196  30.124  23.077  1.00  0.00    -0.375 OA
HETATM   60  C1  UNL     1      13.357  31.332  22.435  1.00  0.00     0.203 C 
ENDBRANCH  58  59
ENDBRANCH  53  58
ENDBRANCH  51  52
ENDBRANCH  50  51
ENDBRANCH  48  49
ENDBRANCH  47  48
ENDBRANCH  46  47
ENDBRANCH   1  46
BRANCH  10  61
HETATM   61  N8  UNL     1      16.344  34.502  31.381  1.00  0.00    -0.234 N 
ATOM     62  H82 UNL     1      16.777  35.403  31.180  1.00  0.00     0.174 HD
ATOM     63  H81 UNL     1      16.019  34.330  32.332  1.00  0.00     0.174 HD
ENDBRANCH  10  61
TORSDOF 15
ENDMDL
MODEL 4
REMARK VINA RESULT: -9.559169943      2.414      5.963
REMARK  15 active torsions:
REMARK  status: ('A' for Active; 'I' for Inactive)
REMARK    1  A    between atoms: O1_2  and  C2_3 
REMARK    2  A    between atoms: C2_3  and  N1_4 
REMARK    3  A    between atoms: C3_9  and  S1_10 
REMARK    4  A    between atoms: S1_10  and  C4_11 
REMARK    5  A    between atoms: C5_12  and  C6_13 
REMARK    6  A    between atoms: C6_13  and  C7_14 
REMARK    7  A    between atoms: C7_14  and  C8_15 
REMARK    8  A    between atoms: C8_15  and  N5_16 
REMARK    9  A    between atoms: C12_25  and  N8_26 
REMARK   10  A    between atoms: C13_31  and  N10_32 
REMARK   11  A    between atoms: N11_36  and  C15_37 
REMARK   12  A    between atoms: C15_37  and  C16_38 
REMARK   13  A    between atoms: C17_42  and  N14_43 
REMARK       I    between atoms: N14_43  and  C18_45 
REMARK   14  A    between atoms: C18_45  and  C19_47 
REMARK       I    between atoms: C19_47  and  N15_49 
REMARK   15  A    between atoms: C22_54  and  N17_55 
ROOT
HETATM    1  N5  UNL     1      15.953  31.989  29.034  1.00  0.00    -0.283 N 
HETATM    2  C9  UNL     1      16.296  33.243  29.290  1.00  0.00     0.328 A 
HETATM    3  O2  UNL     1      16.260  33.848  30.370  1.00  0.00    -0.246 OA
HETATM    4  N6  UNL     1      16.733  33.863  28.167  1.00  0.00    -0.303 N 
ATOM      5  H6  UNL     1      17.055  34.827  28.089  1.00  0.00     0.171 HD
HETATM    6  C10 UNL     1      16.659  32.954  27.175  1.00  0.00     0.111 A 
HETATM    7  C11 UNL     1      16.900  32.755  25.852  1.00  0.00     0.111 A 
HETATM    8  N7  UNL     1      17.385  33.589  24.905  1.00  0.00    -0.187 N 
ATOM      9  H7  UNL     1      17.622  34.550  25.151  1.00  0.00     0.184 HD
HETATM   10  C12 UNL     1      17.557  33.164  23.647  1.00  0.00     0.678 A 
HETATM   11  N9  UNL     1      17.238  31.908  23.367  1.00  0.00    -0.175 N 
ATOM     12  H9  UNL     1      17.366  31.573  22.412  1.00  0.00     0.186 HD
HETATM   13  C13 UNL     1      16.747  31.045  24.300  1.00  0.00     0.144 A 
HETATM   14  C14 UNL     1      16.559  31.439  25.584  1.00  0.00     0.115 A 
HETATM   15  N11 UNL     1      16.114  30.837  26.707  1.00  0.00    -0.297 N 
HETATM   16  C24 UNL     1      16.167  31.746  27.690  1.00  0.00     0.148 A 
ENDROOT
BRANCH  15  17
HETATM   17  C15 UNL     1      15.699  29.492  26.785  1.00  0.00     0.149 C 
BRANCH  17  18
HETATM   18  C16 UNL     1      14.272  29.192  26.509  1.00  0.00     0.153 A 
HETATM   19  N12 UNL     1      13.580  29.188  25.352  1.00  0.00    -0.248 N 
HETATM   20  N13 UNL     1      12.330  28.814  25.512  1.00  0.00     0.093 N 
ATOM     21  H12 UNL     1      13.982  29.448  24.451  1.00  0.00     0.190 HD
HETATM   22  C17 UNL     1      11.293  28.664  24.660  1.00  0.00     0.736 A 
HETATM   23  C23 UNL     1      12.160  28.552  26.820  1.00  0.00     0.735 A 
HETATM   24  N16 UNL     1      10.115  28.254  25.137  1.00  0.00    -0.020 N 
HETATM   25  C22 UNL     1       9.936  27.986  26.462  1.00  0.00     0.705 A 
ATOM     26  H16 UNL     1       9.331  28.139  24.496  1.00  0.00     0.203 HD
HETATM   27  N18 UNL     1      10.961  28.134  27.312  1.00  0.00    -0.020 N 
ATOM     28  H18 UNL     1      10.845  27.938  28.306  1.00  0.00     0.203 HD
HETATM   29  N19 UNL     1      13.322  28.779  27.408  1.00  0.00    -0.171 N 
ATOM     30  H19 UNL     1      13.492  28.663  28.408  1.00  0.00     0.186 HD
BRANCH  22  31
HETATM   31  N14 UNL     1      11.454  28.918  23.415  1.00  0.00    -0.148 N 
HETATM   32  C18 UNL     1      12.045  28.022  22.497  1.00  0.00     0.327 C 
HETATM   33  O3  UNL     1      11.286  27.423  21.695  1.00  0.00    -0.261 OA
ATOM     34  H14 UNL     1      11.136  29.822  23.065  1.00  0.00     0.188 HD
BRANCH  32  35
HETATM   35  C19 UNL     1      13.486  27.785  22.463  1.00  0.00     0.312 C 
HETATM   36  O4  UNL     1      14.239  28.784  22.476  1.00  0.00    -0.262 OA
HETATM   37  N15 UNL     1      13.983  26.463  22.416  1.00  0.00    -0.341 N 
HETATM   38  C20 UNL     1      15.159  25.609  22.371  1.00  0.00     0.146 A 
HETATM   39  C21 UNL     1      13.785  25.034  22.374  1.00  0.00     0.146 A 
ENDBRANCH  32  35
ENDBRANCH  22  31
BRANCH  25  40
HETATM   40  N17 UNL     1       8.777  27.591  26.885  1.00  0.00    -0.234 N 
ATOM     41 2H17 UNL     1       8.636  26.629  27.195  1.00  0.00     0.174 HD
ATOM     42 1H17 UNL     1       7.997  28.248  26.908  1.00  0.00     0.174 HD
ENDBRANCH  25  40
ENDBRANCH  17  18
ENDBRANCH  15  17
BRANCH  13  43
HETATM   43  N10 UNL     1      16.512  29.876  23.899  1.00  0.00    -0.383 N 
ATOM     44 2H10 UNL     1      17.217  29.287  23.456  1.00  0.00     0.157 HD
ATOM     45 1H10 UNL     1      15.555  29.546  24.022  1.00  0.00     0.157 HD
ENDBRANCH  13  43
BRANCH   1  46
HETATM   46  C8  UNL     1      15.456  31.020  29.931  1.00  0.00     0.135 C 
BRANCH  46  47
HETATM   47  C7  UNL     1      13.997  30.733  29.926  1.00  0.00     0.024 C 
BRANCH  47  48
HETATM   48  C6  UNL     1      13.038  31.888  29.899  1.00  0.00     0.029 C 
BRANCH  48  49
HETATM   49  C5  UNL     1      12.303  32.036  28.626  1.00  0.00    -0.019 C 
HETATM   50  C4  UNL     1      12.739  32.364  27.442  1.00  0.00     0.049 C 
BRANCH  50  51
HETATM   51  S1  UNL     1      11.692  32.492  26.011  1.00  0.00    -0.064 SA
BRANCH  51  52
HETATM   52  C3  UNL     1      12.513  33.500  24.793  1.00  0.00     0.178 A 
HETATM   53  N1  UNL     1      11.964  34.466  24.032  1.00  0.00    -0.232 N 
HETATM   54  N2  UNL     1      12.921  34.956  23.265  1.00  0.00    -0.002 NA
HETATM   55  N3  UNL     1      14.077  34.340  23.502  1.00  0.00    -0.007 NA
HETATM   56  N4  UNL     1      13.809  33.445  24.447  1.00  0.00    -0.264 N 
ATOM     57  H4  UNL     1      14.492  32.805  24.852  1.00  0.00     0.186 HD
BRANCH  53  58
HETATM   58  C2  UNL     1      10.593  34.931  24.010  1.00  0.00     0.316 C 
BRANCH  58  59
HETATM   59  O1  UNL     1      10.327  35.886  24.966  1.00  0.00    -0.375 OA
HETATM   60  C1  UNL     1       9.243  35.607  25.770  1.00  0.00     0.203 C 
ENDBRANCH  58  59
ENDBRANCH  53  58
ENDBRANCH  51  52
ENDBRANCH  50  51
ENDBRANCH  48  49
ENDBRANCH  47  48
ENDBRANCH  46  47
ENDBRANCH   1  46
BRANCH  10  61
HETATM   61  N8  UNL     1      18.026  33.974  22.731  1.00  0.00    -0.234 N 
ATOM     62  H82 UNL     1      19.028  34.094  22.587  1.00  0.00     0.174 HD
ATOM     63  H81 UNL     1      17.390  34.506  22.138  1.00  0.00     0.174 HD
ENDBRANCH  10  61
TORSDOF 15
ENDMDL
MODEL 5
REMARK VINA RESULT: -9.489007500      1.443      1.876
REMARK  15 active torsions:
REMARK  status: ('A' for Active; 'I' for Inactive)
REMARK    1  A    between atoms: O1_2  and  C2_3 
REMARK    2  A    between atoms: C2_3  and  N1_4 
REMARK    3  A    between atoms: C3_9  and  S1_10 
REMARK    4  A    between atoms: S1_10  and  C4_11 
REMARK    5  A    between atoms: C5_12  and  C6_13 
REMARK    6  A    between atoms: C6_13  and  C7_14 
REMARK    7  A    between atoms: C7_14  and  C8_15 
REMARK    8  A    between atoms: C8_15  and  N5_16 
REMARK    9  A    between atoms: C12_25  and  N8_26 
REMARK   10  A    between atoms: C13_31  and  N10_32 
REMARK   11  A    between atoms: N11_36  and  C15_37 
REMARK   12  A    between atoms: C15_37  and  C16_38 
REMARK   13  A    between atoms: C17_42  and  N14_43 
REMARK       I    between atoms: N14_43  and  C18_45 
REMARK   14  A    between atoms: C18_45  and  C19_47 
REMARK       I    between atoms: C19_47  and  N15_49 
REMARK   15  A    between atoms: C22_54  and  N17_55 
ROOT
HETATM    1  N5  UNL     1      16.738  31.587  25.067  1.00  0.00    -0.283 N 
HETATM    2  C9  UNL     1      17.261  32.774  24.796  1.00  0.00     0.328 A 
HETATM    3  O2  UNL     1      17.672  33.207  23.710  1.00  0.00    -0.246 OA
HETATM    4  N6  UNL     1      17.309  33.546  25.908  1.00  0.00    -0.303 N 
ATOM      5  H6  UNL     1      17.665  34.499  25.974  1.00  0.00     0.171 HD
HETATM    6  C10 UNL     1      16.793  32.807  26.909  1.00  0.00     0.111 A 
HETATM    7  C11 UNL     1      16.477  32.822  28.232  1.00  0.00     0.111 A 
HETATM    8  N7  UNL     1      16.622  33.789  29.166  1.00  0.00    -0.187 N 
ATOM      9  H7  UNL     1      17.043  34.682  28.908  1.00  0.00     0.184 HD
HETATM   10  C12 UNL     1      16.219  33.585  30.426  1.00  0.00     0.678 A 
HETATM   11  N9  UNL     1      15.676  32.411  30.721  1.00  0.00    -0.175 N 
ATOM     12  H9  UNL     1      15.364  32.245  31.678  1.00  0.00     0.186 HD
HETATM   13  C13 UNL     1      15.517  31.419  29.801  1.00  0.00     0.144 A 
HETATM   14  C14 UNL     1      15.914  31.589  28.516  1.00  0.00     0.115 A 
HETATM   15  N11 UNL     1      15.884  30.826  27.404  1.00  0.00    -0.297 N 
HETATM   16  C24 UNL     1      16.416  31.552  26.412  1.00  0.00     0.148 A 
ENDROOT
BRANCH  15  17
HETATM   17  C15 UNL     1      15.360  29.519  27.343  1.00  0.00     0.149 C 
BRANCH  17  18
HETATM   18  C16 UNL     1      13.948  29.360  26.913  1.00  0.00     0.153 A 
HETATM   19  N12 UNL     1      13.297  29.830  25.830  1.00  0.00    -0.248 N 
HETATM   20  N13 UNL     1      12.048  29.426  25.776  1.00  0.00     0.093 N 
ATOM     21  H12 UNL     1      13.727  30.434  25.130  1.00  0.00     0.190 HD
HETATM   22  C17 UNL     1      11.044  29.639  24.897  1.00  0.00     0.736 A 
HETATM   23  C23 UNL     1      11.835  28.654  26.856  1.00  0.00     0.735 A 
HETATM   24  N16 UNL     1       9.856  29.072  25.120  1.00  0.00    -0.020 N 
HETATM   25  C22 UNL     1       9.633  28.288  26.213  1.00  0.00     0.705 A 
ATOM     26  H16 UNL     1       9.096  29.231  24.458  1.00  0.00     0.203 HD
HETATM   27  N18 UNL     1      10.624  28.074  27.088  1.00  0.00    -0.020 N 
ATOM     28  H18 UNL     1      10.475  27.490  27.910  1.00  0.00     0.203 HD
HETATM   29  N19 UNL     1      12.971  28.619  27.529  1.00  0.00    -0.171 N 
ATOM     30  H19 UNL     1      13.106  28.104  28.400  1.00  0.00     0.186 HD
BRANCH  22  31
HETATM   31  N14 UNL     1      11.246  30.378  23.871  1.00  0.00    -0.148 N 
HETATM   32  C18 UNL     1      11.857  31.651  23.923  1.00  0.00     0.327 C 
HETATM   33  O3  UNL     1      13.043  31.746  23.521  1.00  0.00    -0.261 OA
ATOM     34  H14 UNL     1      10.949  30.026  22.961  1.00  0.00     0.188 HD
BRANCH  32  35
HETATM   35  C19 UNL     1      11.153  32.828  24.424  1.00  0.00     0.312 C 
HETATM   36  O4  UNL     1      10.636  33.597  23.583  1.00  0.00    -0.262 OA
HETATM   37  N15 UNL     1      11.074  33.066  25.815  1.00  0.00    -0.341 N 
HETATM   38  C20 UNL     1      10.585  33.936  26.872  1.00  0.00     0.146 A 
HETATM   39  C21 UNL     1      11.368  32.708  27.182  1.00  0.00     0.146 A 
ENDBRANCH  32  35
ENDBRANCH  22  31
BRANCH  25  40
HETATM   40  N17 UNL     1       8.465  27.757  26.393  1.00  0.00    -0.234 N 
ATOM     41 2H17 UNL     1       8.375  26.793  26.717  1.00  0.00     0.174 HD
ATOM     42 1H17 UNL     1       7.626  28.308  26.209  1.00  0.00     0.174 HD
ENDBRANCH  25  40
ENDBRANCH  17  18
ENDBRANCH  15  17
BRANCH  13  43
HETATM   43  N10 UNL     1      14.963  30.368  30.216  1.00  0.00    -0.383 N 
ATOM     44 2H10 UNL     1      14.952  30.095  31.199  1.00  0.00     0.157 HD
ATOM     45 1H10 UNL     1      14.534  29.778  29.503  1.00  0.00     0.157 HD
ENDBRANCH  13  43
BRANCH   1  46
HETATM   46  C8  UNL     1      16.516  30.509  24.185  1.00  0.00     0.135 C 
BRANCH  46  47
HETATM   47  C7  UNL     1      17.578  29.476  24.048  1.00  0.00     0.024 C 
BRANCH  47  48
HETATM   48  C6  UNL     1      17.406  28.170  24.767  1.00  0.00     0.029 C 
BRANCH  48  49
HETATM   49  C5  UNL     1      16.516  27.211  24.080  1.00  0.00    -0.019 C 
HETATM   50  C4  UNL     1      15.217  27.103  24.117  1.00  0.00     0.049 C 
BRANCH  50  51
HETATM   51  S1  UNL     1      14.309  25.871  23.211  1.00  0.00    -0.064 SA
BRANCH  51  52
HETATM   52  C3  UNL     1      12.638  26.448  22.984  1.00  0.00     0.178 A 
HETATM   53  N1  UNL     1      12.233  27.495  22.243  1.00  0.00    -0.232 N 
HETATM   54  N2  UNL     1      10.919  27.572  22.353  1.00  0.00    -0.002 NA
HETATM   55  N3  UNL     1      10.456  26.607  23.143  1.00  0.00    -0.007 NA
HETATM   56  N4  UNL     1      11.528  25.922  23.525  1.00  0.00    -0.264 N 
ATOM     57  H4  UNL     1      11.510  25.110  24.142  1.00  0.00     0.186 HD
BRANCH  53  58
HETATM   58  C2  UNL     1      13.032  28.405  21.448  1.00  0.00     0.316 C 
BRANCH  58  59
HETATM   59  O1  UNL     1      12.678  28.421  20.118  1.00  0.00    -0.375 OA
HETATM   60  C1  UNL     1      12.550  29.679  19.572  1.00  0.00     0.203 C 
ENDBRANCH  58  59
ENDBRANCH  53  58
ENDBRANCH  51  52
ENDBRANCH  50  51
ENDBRANCH  48  49
ENDBRANCH  47  48
ENDBRANCH  46  47
ENDBRANCH   1  46
BRANCH  10  61
HETATM   61  N8  UNL     1      16.362  34.522  31.329  1.00  0.00    -0.234 N 
ATOM     62  H82 UNL     1      15.751  34.577  32.144  1.00  0.00     0.174 HD
ATOM     63  H81 UNL     1      17.096  35.224  31.233  1.00  0.00     0.174 HD
ENDBRANCH  10  61
TORSDOF 15
ENDMDL
