MODEL 1
REMARK VINA RESULT: -4.488905846      0.000      0.000
REMARK  7 active torsions:
REMARK  status: ('A' for Active; 'I' for Inactive)
REMARK    1  A    between atoms: N1_2  and  C2_5 
REMARK    2  A    between atoms: C2_5  and  C3_6 
REMARK    3  A    between atoms: C3_6  and  C4_7 
REMARK    4  A    between atoms: C4_7  and  C5_8 
REMARK    5  A    between atoms: C5_8  and  N2_9 
REMARK    6  A    between atoms: N2_9  and  C6_11 
REMARK    7  A    between atoms: C8_17  and  N5_18 
ROOT
HETATM    1  C6  UNL     1       6.873  28.661  23.878  1.00  0.00     0.693 A 
HETATM    2  N3  UNL     1       6.240  27.495  23.675  1.00  0.00    -0.187 N 
ATOM      3  H3  UNL     1       5.477  27.194  24.281  1.00  0.00     0.185 HD
HETATM    4  C7  UNL     1       6.657  26.732  22.631  1.00  0.00     0.215 A 
HETATM    5  N4  UNL     1       7.662  27.101  21.815  1.00  0.00    -0.187 N 
ATOM      6  H4  UNL     1       7.956  26.508  21.039  1.00  0.00     0.185 HD
HETATM    7  C8  UNL     1       8.263  28.271  22.056  1.00  0.00     0.691 A 
HETATM    8  N6  UNL     1       7.894  29.062  23.069  1.00  0.00    -0.023 N 
ATOM      9  H6  UNL     1       8.368  29.951  23.234  1.00  0.00     0.203 HD
ENDROOT
BRANCH   1  10
HETATM   10  N2  UNL     1       6.535  29.426  24.832  1.00  0.00    -0.226 N 
ATOM     11  H2  UNL     1       7.233  30.008  25.296  1.00  0.00     0.177 HD
BRANCH  10  12
HETATM   12  C5  UNL     1       5.153  29.466  25.257  1.00  0.00     0.138 C 
BRANCH  12  13
HETATM   13  C4  UNL     1       4.625  30.890  25.253  1.00  0.00     0.022 C 
BRANCH  13  14
HETATM   14  C3  UNL     1       3.334  30.932  26.020  1.00  0.00     0.029 C 
BRANCH  14  15
HETATM   15  C2  UNL     1       2.438  32.054  25.502  1.00  0.00     0.231 C 
BRANCH  15  16
HETATM   16  N1  UNL     1       2.940  32.577  24.248  1.00  0.00    -0.079 N 
HETATM   17  C1  UNL     1       1.879  32.663  23.279  1.00  0.00     0.266 C 
ATOM     18  H12 UNL     1       3.730  32.034  23.898  1.00  0.00     0.276 HD
ATOM     19  H11 UNL     1       3.414  33.471  24.371  1.00  0.00     0.276 HD
ENDBRANCH  15  16
ENDBRANCH  14  15
ENDBRANCH  13  14
ENDBRANCH  12  13
ENDBRANCH  10  12
ENDBRANCH   1  10
BRANCH   7  20
HETATM   20  N5  UNL     1       9.233  28.638  21.277  1.00  0.00    -0.234 N 
ATOM     21  H52 UNL     1       9.028  28.937  20.324  1.00  0.00     0.174 HD
ATOM     22  H51 UNL     1      10.185  28.618  21.644  1.00  0.00     0.174 HD
ENDBRANCH   7  20
TORSDOF 7
ENDMDL
MODEL 2
REMARK VINA RESULT: -4.427681414      3.087      4.811
REMARK  7 active torsions:
REMARK  status: ('A' for Active; 'I' for Inactive)
REMARK    1  A    between atoms: N1_2  and  C2_5 
REMARK    2  A    between atoms: C2_5  and  C3_6 
REMARK    3  A    between atoms: C3_6  and  C4_7 
REMARK    4  A    between atoms: C4_7  and  C5_8 
REMARK    5  A    between atoms: C5_8  and  N2_9 
REMARK    6  A    between atoms: N2_9  and  C6_11 
REMARK    7  A    between atoms: C8_17  and  N5_18 
ROOT
HETATM    1  C6  UNL     1       6.351  26.940  23.446  1.00  0.00     0.693 A 
HETATM    2  N3  UNL     1       6.015  27.910  24.311  1.00  0.00    -0.187 N 
ATOM      3  H3  UNL     1       5.287  27.768  25.010  1.00  0.00     0.185 HD
HETATM    4  C7  UNL     1       6.684  29.089  24.217  1.00  0.00     0.215 A 
HETATM    5  N4  UNL     1       7.650  29.308  23.305  1.00  0.00    -0.187 N 
ATOM      6  H4  UNL     1       8.136  30.203  23.256  1.00  0.00     0.185 HD
HETATM    7  C8  UNL     1       7.951  28.312  22.464  1.00  0.00     0.691 A 
HETATM    8  N6  UNL     1       7.325  27.131  22.511  1.00  0.00    -0.023 N 
ATOM      9  H6  UNL     1       7.571  26.387  21.859  1.00  0.00     0.203 HD
ENDROOT
BRANCH   1  10
HETATM   10  N2  UNL     1       5.770  25.813  23.477  1.00  0.00    -0.226 N 
ATOM     11  H2  UNL     1       6.076  25.060  22.860  1.00  0.00     0.177 HD
BRANCH  10  12
HETATM   12  C5  UNL     1       4.671  25.604  24.393  1.00  0.00     0.138 C 
BRANCH  12  13
HETATM   13  C4  UNL     1       4.692  24.192  24.953  1.00  0.00     0.022 C 
BRANCH  13  14
HETATM   14  C3  UNL     1       3.968  24.180  26.270  1.00  0.00     0.029 C 
BRANCH  14  15
HETATM   15  C2  UNL     1       3.923  25.583  26.870  1.00  0.00     0.231 C 
BRANCH  15  16
HETATM   16  N1  UNL     1       3.568  25.530  28.274  1.00  0.00    -0.079 N 
HETATM   17  C1  UNL     1       2.756  26.665  28.629  1.00  0.00     0.266 C 
ATOM     18  H12 UNL     1       4.390  25.450  28.872  1.00  0.00     0.276 HD
ATOM     19  H11 UNL     1       3.116  24.649  28.519  1.00  0.00     0.276 HD
ENDBRANCH  15  16
ENDBRANCH  14  15
ENDBRANCH  13  14
ENDBRANCH  12  13
ENDBRANCH  10  12
ENDBRANCH   1  10
BRANCH   7  20
HETATM   20  N5  UNL     1       8.880  28.510  21.581  1.00  0.00    -0.234 N 
ATOM     21  H52 UNL     1       8.693  28.309  20.599  1.00  0.00     0.174 HD
ATOM     22  H51 UNL     1       9.782  28.867  21.897  1.00  0.00     0.174 HD
ENDBRANCH   7  20
TORSDOF 7
ENDMDL
MODEL 3
REMARK VINA RESULT: -4.425685472      3.639      5.447
REMARK  7 active torsions:
REMARK  status: ('A' for Active; 'I' for Inactive)
REMARK    1  A    between atoms: N1_2  and  C2_5 
REMARK    2  A    between atoms: C2_5  and  C3_6 
REMARK    3  A    between atoms: C3_6  and  C4_7 
REMARK    4  A    between atoms: C4_7  and  C5_8 
REMARK    5  A    between atoms: C5_8  and  N2_9 
REMARK    6  A    between atoms: N2_9  and  C6_11 
REMARK    7  A    between atoms: C8_17  and  N5_18 
ROOT
HETATM    1  C6  UNL     1       6.117  27.116  23.599  1.00  0.00     0.693 A 
HETATM    2  N3  UNL     1       5.869  28.119  24.455  1.00  0.00    -0.187 N 
ATOM      3  H3  UNL     1       5.138  28.043  25.163  1.00  0.00     0.185 HD
HETATM    4  C7  UNL     1       6.629  29.239  24.342  1.00  0.00     0.215 A 
HETATM    5  N4  UNL     1       7.599  29.370  23.418  1.00  0.00    -0.187 N 
ATOM      6  H4  UNL     1       8.155  30.223  23.355  1.00  0.00     0.185 HD
HETATM    7  C8  UNL     1       7.811  28.344  22.586  1.00  0.00     0.691 A 
HETATM    8  N6  UNL     1       7.093  27.219  22.653  1.00  0.00    -0.023 N 
ATOM      9  H6  UNL     1       7.272  26.450  22.007  1.00  0.00     0.203 HD
ENDROOT
BRANCH   1  10
HETATM   10  N2  UNL     1       5.448  26.040  23.648  1.00  0.00    -0.226 N 
ATOM     11  H2  UNL     1       5.312  25.480  22.806  1.00  0.00     0.177 HD
BRANCH  10  12
HETATM   12  C5  UNL     1       4.879  25.612  24.907  1.00  0.00     0.138 C 
BRANCH  12  13
HETATM   13  C4  UNL     1       4.630  24.114  24.910  1.00  0.00     0.022 C 
BRANCH  13  14
HETATM   14  C3  UNL     1       3.798  23.761  26.110  1.00  0.00     0.029 C 
BRANCH  14  15
HETATM   15  C2  UNL     1       3.854  24.877  27.150  1.00  0.00     0.231 C 
BRANCH  15  16
HETATM   16  N1  UNL     1       3.473  24.383  28.457  1.00  0.00    -0.079 N 
HETATM   17  C1  UNL     1       3.104  22.994  28.381  1.00  0.00     0.266 C 
ATOM     18  H12 UNL     1       2.735  24.949  28.877  1.00  0.00     0.276 HD
ATOM     19  H11 UNL     1       4.202  24.545  29.152  1.00  0.00     0.276 HD
ENDBRANCH  15  16
ENDBRANCH  14  15
ENDBRANCH  13  14
ENDBRANCH  12  13
ENDBRANCH  10  12
ENDBRANCH   1  10
BRANCH   7  20
HETATM   20  N5  UNL     1       8.743  28.458  21.692  1.00  0.00    -0.234 N 
ATOM     21  H52 UNL     1       9.643  28.864  21.950  1.00  0.00     0.174 HD
ATOM     22  H51 UNL     1       8.549  28.135  20.744  1.00  0.00     0.174 HD
ENDBRANCH   7  20
TORSDOF 7
ENDMDL
MODEL 4
REMARK VINA RESULT: -4.400406146      1.915      5.425
REMARK  7 active torsions:
REMARK  status: ('A' for Active; 'I' for Inactive)
REMARK    1  A    between atoms: N1_2  and  C2_5 
REMARK    2  A    between atoms: C2_5  and  C3_6 
REMARK    3  A    between atoms: C3_6  and  C4_7 
REMARK    4  A    between atoms: C4_7  and  C5_8 
REMARK    5  A    between atoms: C5_8  and  N2_9 
REMARK    6  A    between atoms: N2_9  and  C6_11 
REMARK    7  A    between atoms: C8_17  and  N5_18 
ROOT
HETATM    1  C6  UNL     1       4.745  28.333  25.455  1.00  0.00     0.693 A 
HETATM    2  N3  UNL     1       3.677  29.071  25.798  1.00  0.00    -0.187 N 
ATOM      3  H3  UNL     1       2.821  28.636  26.141  1.00  0.00     0.185 HD
HETATM    4  C7  UNL     1       3.783  30.419  25.669  1.00  0.00     0.215 A 
HETATM    5  N4  UNL     1       4.899  31.022  25.217  1.00  0.00    -0.187 N 
ATOM      6  H4  UNL     1       4.952  32.037  25.129  1.00  0.00     0.185 HD
HETATM    7  C8  UNL     1       5.938  30.246  24.888  1.00  0.00     0.691 A 
HETATM    8  N6  UNL     1       5.889  28.914  24.995  1.00  0.00    -0.023 N 
ATOM      9  H6  UNL     1       6.693  28.342  24.737  1.00  0.00     0.203 HD
ENDROOT
BRANCH   1  10
HETATM   10  N2  UNL     1       4.718  27.068  25.552  1.00  0.00    -0.226 N 
ATOM     11  H2  UNL     1       4.774  26.621  26.467  1.00  0.00     0.177 HD
BRANCH  10  12
HETATM   12  C5  UNL     1       4.608  26.265  24.354  1.00  0.00     0.138 C 
BRANCH  12  13
HETATM   13  C4  UNL     1       5.611  25.124  24.371  1.00  0.00     0.022 C 
BRANCH  13  14
HETATM   14  C3  UNL     1       6.733  25.448  23.426  1.00  0.00     0.029 C 
BRANCH  14  15
HETATM   15  C2  UNL     1       6.233  26.321  22.278  1.00  0.00     0.231 C 
BRANCH  15  16
HETATM   16  N1  UNL     1       7.344  26.882  21.536  1.00  0.00    -0.079 N 
HETATM   17  C1  UNL     1       7.946  27.962  22.273  1.00  0.00     0.266 C 
ATOM     18  H12 UNL     1       7.067  27.172  20.597  1.00  0.00     0.276 HD
ATOM     19  H11 UNL     1       8.027  26.170  21.279  1.00  0.00     0.276 HD
ENDBRANCH  15  16
ENDBRANCH  14  15
ENDBRANCH  13  14
ENDBRANCH  12  13
ENDBRANCH  10  12
ENDBRANCH   1  10
BRANCH   7  20
HETATM   20  N5  UNL     1       7.019  30.815  24.452  1.00  0.00    -0.234 N 
ATOM     21  H52 UNL     1       7.057  31.156  23.492  1.00  0.00     0.174 HD
ATOM     22  H51 UNL     1       7.810  30.906  25.089  1.00  0.00     0.174 HD
ENDBRANCH   7  20
TORSDOF 7
ENDMDL
MODEL 5
REMARK VINA RESULT: -4.393587138      1.952      5.775
REMARK  7 active torsions:
REMARK  status: ('A' for Active; 'I' for Inactive)
REMARK    1  A    between atoms: N1_2  and  C2_5 
REMARK    2  A    between atoms: C2_5  and  C3_6 
REMARK    3  A    between atoms: C3_6  and  C4_7 
REMARK    4  A    between atoms: C4_7  and  C5_8 
REMARK    5  A    between atoms: C5_8  and  N2_9 
REMARK    6  A    between atoms: N2_9  and  C6_11 
REMARK    7  A    between atoms: C8_17  and  N5_18 
ROOT
HETATM    1  C6  UNL     1       6.340  29.728  24.513  1.00  0.00     0.693 A 
HETATM    2  N3  UNL     1       5.858  28.574  25.000  1.00  0.00    -0.187 N 
ATOM      3  H3  UNL     1       6.382  27.704  24.916  1.00  0.00     0.185 HD
HETATM    4  C7  UNL     1       4.644  28.613  25.610  1.00  0.00     0.215 A 
HETATM    5  N4  UNL     1       3.929  29.746  25.736  1.00  0.00    -0.187 N 
ATOM      6  H4  UNL     1       3.019  29.747  26.198  1.00  0.00     0.185 HD
HETATM    7  C8  UNL     1       4.450  30.872  25.235  1.00  0.00     0.691 A 
HETATM    8  N6  UNL     1       5.639  30.892  24.626  1.00  0.00    -0.023 N 
ATOM      9  H6  UNL     1       6.016  31.763  24.251  1.00  0.00     0.203 HD
ENDROOT
BRANCH   1  10
HETATM   10  N2  UNL     1       7.468  29.767  23.934  1.00  0.00    -0.226 N 
ATOM     11  H2  UNL     1       7.924  30.662  23.756  1.00  0.00     0.177 HD
BRANCH  10  12
HETATM   12  C5  UNL     1       8.101  28.533  23.526  1.00  0.00     0.138 C 
BRANCH  12  13
HETATM   13  C4  UNL     1       7.622  28.105  22.150  1.00  0.00     0.022 C 
BRANCH  13  14
HETATM   14  C3  UNL     1       7.505  26.607  22.119  1.00  0.00     0.029 C 
BRANCH  14  15
HETATM   15  C2  UNL     1       6.112  26.168  22.562  1.00  0.00     0.231 C 
BRANCH  15  16
HETATM   16  N1  UNL     1       6.191  25.276  23.701  1.00  0.00    -0.079 N 
HETATM   17  C1  UNL     1       7.457  24.590  23.714  1.00  0.00     0.266 C 
ATOM     18  H12 UNL     1       5.407  24.625  23.730  1.00  0.00     0.276 HD
ATOM     19  H11 UNL     1       6.015  25.764  24.579  1.00  0.00     0.276 HD
ENDBRANCH  15  16
ENDBRANCH  14  15
ENDBRANCH  13  14
ENDBRANCH  12  13
ENDBRANCH  10  12
ENDBRANCH   1  10
BRANCH   7  20
HETATM   20  N5  UNL     1       3.770  31.971  25.351  1.00  0.00    -0.234 N 
ATOM     21  H52 UNL     1       3.005  32.022  26.023  1.00  0.00     0.174 HD
ATOM     22  H51 UNL     1       4.023  32.762  24.759  1.00  0.00     0.174 HD
ENDBRANCH   7  20
TORSDOF 7
ENDMDL
