MODEL 1
REMARK VINA RESULT: -6.265323061      0.000      0.000
REMARK  12 active torsions:
REMARK  status: ('A' for Active; 'I' for Inactive)
REMARK    1  A    between atoms: N1_1  and  C1_4 
REMARK    2  A    between atoms: C2_8  and  N3_9 
REMARK    3  A    between atoms: N3_9  and  C3_11 
REMARK    4  A    between atoms: C3_11  and  C4_12 
REMARK    5  A    between atoms: C4_12  and  C5_13 
REMARK    6  A    between atoms: C5_13  and  N4_14 
REMARK    7  A    between atoms: N4_14  and  C6_16 
REMARK    8  A    between atoms: C6_16  and  C7_17 
REMARK    9  A    between atoms: C7_17  and  C8_18 
REMARK   10  A    between atoms: C8_18  and  N5_19 
REMARK   11  A    between atoms: C10_21  and  C11_22 
REMARK   12  A    between atoms: C11_22  and  N6_23 
ROOT
HETATM    1  N4  UNL     1      -4.331  13.426  78.778  1.00  0.00    -0.382 N 
ATOM      2  H4  UNL     1      -4.096  12.495  79.121  1.00  0.00     0.163 HD
ENDROOT
BRANCH   1   3
HETATM    3  C5  UNL     1      -5.584  13.581  78.209  1.00  0.00     0.061 C 
BRANCH   3   4
HETATM    4  C4  UNL     1      -6.080  12.379  77.463  1.00  0.00     0.064 C 
BRANCH   4   5
HETATM    5  C3  UNL     1      -4.858  11.745  76.793  1.00  0.00     0.128 C 
BRANCH   5   6
HETATM    6  N3  UNL     1      -4.818  10.320  76.994  1.00  0.00    -0.354 N 
ATOM      7  H3  UNL     1      -5.666   9.804  77.228  1.00  0.00     0.163 HD
BRANCH   6   8
HETATM    8  C2  UNL     1      -3.670   9.698  76.871  1.00  0.00     0.258 A 
HETATM    9  O1  UNL     1      -3.387   8.748  75.993  1.00  0.00    -0.186 OA
HETATM   10  N2  UNL     1      -2.154   8.344  76.142  1.00  0.00    -0.088 N 
HETATM   11  C1  UNL     1      -1.593   9.040  77.145  1.00  0.00     0.699 A 
ATOM     12  H2  UNL     1      -1.694   7.621  75.589  1.00  0.00     0.214 HD
HETATM   13  N8  UNL     1      -2.549   9.876  77.585  1.00  0.00    -0.152 N 
ATOM     14  H8  UNL     1      -2.439  10.546  78.347  1.00  0.00     0.188 HD
BRANCH  11  15
HETATM   15  N1  UNL     1      -0.371   8.925  77.595  1.00  0.00    -0.233 N 
ATOM     16  H12 UNL     1      -0.011   8.217  78.234  1.00  0.00     0.174 HD
ATOM     17  H11 UNL     1       0.422   9.529  77.379  1.00  0.00     0.174 HD
ENDBRANCH  11  15
ENDBRANCH   6   8
ENDBRANCH   5   6
ENDBRANCH   4   5
ENDBRANCH   3   4
ENDBRANCH   1   3
BRANCH   1  18
HETATM   18  C6  UNL     1      -3.369  14.399  78.930  1.00  0.00     0.061 C 
BRANCH  18  19
HETATM   19  C7  UNL     1      -1.936  14.140  78.660  1.00  0.00     0.064 C 
BRANCH  19  20
HETATM   20  C8  UNL     1      -1.397  12.823  79.117  1.00  0.00     0.132 C 
BRANCH  20  21
HETATM   21  N5  UNL     1       0.021  12.877  79.473  1.00  0.00    -0.332 N 
HETATM   22  C9  UNL     1       0.889  14.005  79.556  1.00  0.00     0.154 C 
HETATM   23  C10 UNL     1       2.263  13.471  79.662  1.00  0.00     0.129 C 
HETATM   24  N7  UNL     1       2.165  12.042  79.692  1.00  0.00    -0.335 N 
HETATM   25  C12 UNL     1       0.785  11.722  79.800  1.00  0.00     0.318 C 
ATOM     26  H7  UNL     1       2.940  11.380  79.645  1.00  0.00     0.164 HD
HETATM   27  O2  UNL     1       0.333  10.582  80.137  1.00  0.00    -0.247 OA
BRANCH  23  28
HETATM   28  C11 UNL     1       3.006  13.990  80.885  1.00  0.00     0.256 C 
BRANCH  28  29
HETATM   29  N6  UNL     1       3.067  15.435  80.862  1.00  0.00    -0.077 N 
ATOM     30  H63 UNL     1       4.025  15.773  80.770  1.00  0.00     0.274 HD
ATOM     31  H62 UNL     1       2.689  15.818  79.995  1.00  0.00     0.274 HD
ATOM     32  H61 UNL     1       2.604  15.825  81.683  1.00  0.00     0.274 HD
ENDBRANCH  28  29
ENDBRANCH  23  28
ENDBRANCH  20  21
ENDBRANCH  19  20
ENDBRANCH  18  19
ENDBRANCH   1  18
TORSDOF 12
ENDMDL
MODEL 2
REMARK VINA RESULT: -6.236842099      1.414      1.879
REMARK  12 active torsions:
REMARK  status: ('A' for Active; 'I' for Inactive)
REMARK    1  A    between atoms: N1_1  and  C1_4 
REMARK    2  A    between atoms: C2_8  and  N3_9 
REMARK    3  A    between atoms: N3_9  and  C3_11 
REMARK    4  A    between atoms: C3_11  and  C4_12 
REMARK    5  A    between atoms: C4_12  and  C5_13 
REMARK    6  A    between atoms: C5_13  and  N4_14 
REMARK    7  A    between atoms: N4_14  and  C6_16 
REMARK    8  A    between atoms: C6_16  and  C7_17 
REMARK    9  A    between atoms: C7_17  and  C8_18 
REMARK   10  A    between atoms: C8_18  and  N5_19 
REMARK   11  A    between atoms: C10_21  and  C11_22 
REMARK   12  A    between atoms: C11_22  and  N6_23 
ROOT
HETATM    1  N4  UNL     1      -3.884  13.399  78.057  1.00  0.00    -0.382 N 
ATOM      2  H4  UNL     1      -3.192  13.183  77.340  1.00  0.00     0.163 HD
ENDROOT
BRANCH   1   3
HETATM    3  C5  UNL     1      -5.175  12.954  77.827  1.00  0.00     0.061 C 
BRANCH   3   4
HETATM    4  C4  UNL     1      -5.272  11.783  76.898  1.00  0.00     0.064 C 
BRANCH   4   5
HETATM    5  C3  UNL     1      -3.842  11.288  76.667  1.00  0.00     0.128 C 
BRANCH   5   6
HETATM    6  N3  UNL     1      -3.636   9.973  77.217  1.00  0.00    -0.354 N 
ATOM      7  H3  UNL     1      -3.315   9.857  78.179  1.00  0.00     0.163 HD
BRANCH   6   8
HETATM    8  C2  UNL     1      -3.869   8.928  76.460  1.00  0.00     0.258 A 
HETATM    9  O1  UNL     1      -3.223   8.610  75.349  1.00  0.00    -0.186 OA
HETATM   10  N2  UNL     1      -3.707   7.508  74.842  1.00  0.00    -0.088 N 
HETATM   11  C1  UNL     1      -4.704   7.074  75.631  1.00  0.00     0.699 A 
ATOM     12  H2  UNL     1      -3.382   7.053  73.989  1.00  0.00     0.214 HD
HETATM   13  N8  UNL     1      -4.790   7.969  76.632  1.00  0.00    -0.152 N 
ATOM     14  H8  UNL     1      -5.454   7.924  77.404  1.00  0.00     0.188 HD
BRANCH  11  15
HETATM   15  N1  UNL     1      -5.434   6.003  75.460  1.00  0.00    -0.233 N 
ATOM     16  H12 UNL     1      -5.250   5.224  74.829  1.00  0.00     0.174 HD
ATOM     17  H11 UNL     1      -6.310   5.776  75.931  1.00  0.00     0.174 HD
ENDBRANCH  11  15
ENDBRANCH   6   8
ENDBRANCH   5   6
ENDBRANCH   4   5
ENDBRANCH   3   4
ENDBRANCH   1   3
BRANCH   1  18
HETATM   18  C6  UNL     1      -3.437  14.101  79.154  1.00  0.00     0.061 C 
BRANCH  18  19
HETATM   19  C7  UNL     1      -2.158  13.779  79.828  1.00  0.00     0.064 C 
BRANCH  19  20
HETATM   20  C8  UNL     1      -1.298  12.746  79.175  1.00  0.00     0.132 C 
BRANCH  20  21
HETATM   21  N5  UNL     1       0.112  12.855  79.549  1.00  0.00    -0.332 N 
HETATM   22  C9  UNL     1       0.942  14.013  79.616  1.00  0.00     0.154 C 
HETATM   23  C10 UNL     1       2.331  13.526  79.755  1.00  0.00     0.129 C 
HETATM   24  N7  UNL     1       2.279  12.096  79.819  1.00  0.00    -0.335 N 
HETATM   25  C12 UNL     1       0.908  11.734  79.915  1.00  0.00     0.318 C 
ATOM     26  H7  UNL     1       3.075  11.459  79.799  1.00  0.00     0.164 HD
HETATM   27  O2  UNL     1       0.488  10.588  80.275  1.00  0.00    -0.247 OA
BRANCH  23  28
HETATM   28  C11 UNL     1       3.038  14.099  80.974  1.00  0.00     0.256 C 
BRANCH  28  29
HETATM   29  N6  UNL     1       3.057  15.545  80.914  1.00  0.00    -0.077 N 
ATOM     30  H63 UNL     1       4.001  15.916  81.023  1.00  0.00     0.274 HD
ATOM     31  H62 UNL     1       2.868  15.888  79.972  1.00  0.00     0.274 HD
ATOM     32  H61 UNL     1       2.412  15.938  81.598  1.00  0.00     0.274 HD
ENDBRANCH  28  29
ENDBRANCH  23  28
ENDBRANCH  20  21
ENDBRANCH  19  20
ENDBRANCH  18  19
ENDBRANCH   1  18
TORSDOF 12
ENDMDL
MODEL 3
REMARK VINA RESULT: -5.997234009      2.804      4.434
REMARK  12 active torsions:
REMARK  status: ('A' for Active; 'I' for Inactive)
REMARK    1  A    between atoms: N1_1  and  C1_4 
REMARK    2  A    between atoms: C2_8  and  N3_9 
REMARK    3  A    between atoms: N3_9  and  C3_11 
REMARK    4  A    between atoms: C3_11  and  C4_12 
REMARK    5  A    between atoms: C4_12  and  C5_13 
REMARK    6  A    between atoms: C5_13  and  N4_14 
REMARK    7  A    between atoms: N4_14  and  C6_16 
REMARK    8  A    between atoms: C6_16  and  C7_17 
REMARK    9  A    between atoms: C7_17  and  C8_18 
REMARK   10  A    between atoms: C8_18  and  N5_19 
REMARK   11  A    between atoms: C10_21  and  C11_22 
REMARK   12  A    between atoms: C11_22  and  N6_23 
ROOT
HETATM    1  N4  UNL     1      -3.032   9.600  77.618  1.00  0.00    -0.382 N 
ATOM      2  H4  UNL     1      -3.387   9.248  78.508  1.00  0.00     0.163 HD
ENDROOT
BRANCH   1   3
HETATM    3  C5  UNL     1      -3.874   9.485  76.525  1.00  0.00     0.061 C 
BRANCH   3   4
HETATM    4  C4  UNL     1      -3.665   8.248  75.707  1.00  0.00     0.064 C 
BRANCH   4   5
HETATM    5  C3  UNL     1      -4.828   7.308  76.031  1.00  0.00     0.128 C 
BRANCH   5   6
HETATM    6  N3  UNL     1      -5.888   7.416  75.062  1.00  0.00    -0.354 N 
ATOM      7  H3  UNL     1      -5.762   7.066  74.112  1.00  0.00     0.163 HD
BRANCH   6   8
HETATM    8  C2  UNL     1      -7.019   7.972  75.425  1.00  0.00     0.258 A 
HETATM    9  O1  UNL     1      -7.322   8.406  76.639  1.00  0.00    -0.186 OA
HETATM   10  N2  UNL     1      -8.529   8.904  76.654  1.00  0.00    -0.088 N 
HETATM   11  C1  UNL     1      -9.052   8.803  75.421  1.00  0.00     0.699 A 
ATOM     12  H2  UNL     1      -8.997   9.304  77.467  1.00  0.00     0.214 HD
HETATM   13  N8  UNL     1      -8.099   8.221  74.670  1.00  0.00    -0.152 N 
ATOM     14  H8  UNL     1      -8.185   8.003  73.678  1.00  0.00     0.188 HD
BRANCH  11  15
HETATM   15  N1  UNL     1     -10.239   9.191  75.034  1.00  0.00    -0.233 N 
ATOM     16  H12 UNL     1     -10.502   9.558  74.121  1.00  0.00     0.174 HD
ATOM     17  H11 UNL     1     -11.096   9.189  75.588  1.00  0.00     0.174 HD
ENDBRANCH  11  15
ENDBRANCH   6   8
ENDBRANCH   5   6
ENDBRANCH   4   5
ENDBRANCH   3   4
ENDBRANCH   1   3
BRANCH   1  18
HETATM   18  C6  UNL     1      -1.765  10.139  77.630  1.00  0.00     0.061 C 
BRANCH  18  19
HETATM   19  C7  UNL     1      -0.860  10.000  78.795  1.00  0.00     0.064 C 
BRANCH  19  20
HETATM   20  C8  UNL     1      -0.888  11.105  79.800  1.00  0.00     0.132 C 
BRANCH  20  21
HETATM   21  N5  UNL     1       0.370  11.850  79.867  1.00  0.00    -0.332 N 
HETATM   22  C9  UNL     1       0.659  13.175  79.426  1.00  0.00     0.154 C 
HETATM   23  C10 UNL     1       2.130  13.317  79.460  1.00  0.00     0.129 C 
HETATM   24  N7  UNL     1       2.666  12.091  79.970  1.00  0.00    -0.335 N 
HETATM   25  C12 UNL     1       1.566  11.309  80.415  1.00  0.00     0.318 C 
ATOM     26  H7  UNL     1       3.651  11.828  80.008  1.00  0.00     0.164 HD
HETATM   27  O2  UNL     1       1.662  10.296  81.179  1.00  0.00    -0.247 OA
BRANCH  23  28
HETATM   28  C11 UNL     1       2.589  14.501  80.298  1.00  0.00     0.256 C 
BRANCH  28  29
HETATM   29  N6  UNL     1       1.451  15.262  80.763  1.00  0.00    -0.077 N 
ATOM     30  H63 UNL     1       0.936  14.768  81.492  1.00  0.00     0.274 HD
ATOM     31  H62 UNL     1       1.735  16.078  81.306  1.00  0.00     0.274 HD
ATOM     32  H61 UNL     1       0.849  15.518  79.980  1.00  0.00     0.274 HD
ENDBRANCH  28  29
ENDBRANCH  23  28
ENDBRANCH  20  21
ENDBRANCH  19  20
ENDBRANCH  18  19
ENDBRANCH   1  18
TORSDOF 12
ENDMDL
MODEL 4
REMARK VINA RESULT: -5.965943482      2.332      6.444
REMARK  12 active torsions:
REMARK  status: ('A' for Active; 'I' for Inactive)
REMARK    1  A    between atoms: N1_1  and  C1_4 
REMARK    2  A    between atoms: C2_8  and  N3_9 
REMARK    3  A    between atoms: N3_9  and  C3_11 
REMARK    4  A    between atoms: C3_11  and  C4_12 
REMARK    5  A    between atoms: C4_12  and  C5_13 
REMARK    6  A    between atoms: C5_13  and  N4_14 
REMARK    7  A    between atoms: N4_14  and  C6_16 
REMARK    8  A    between atoms: C6_16  and  C7_17 
REMARK    9  A    between atoms: C7_17  and  C8_18 
REMARK   10  A    between atoms: C8_18  and  N5_19 
REMARK   11  A    between atoms: C10_21  and  C11_22 
REMARK   12  A    between atoms: C11_22  and  N6_23 
ROOT
HETATM    1  N4  UNL     1      -5.622  13.435  79.430  1.00  0.00    -0.382 N 
ATOM      2  H4  UNL     1      -6.346  13.397  80.148  1.00  0.00     0.163 HD
ENDROOT
BRANCH   1   3
HETATM    3  C5  UNL     1      -4.358  13.818  79.844  1.00  0.00     0.061 C 
BRANCH   3   4
HETATM    4  C4  UNL     1      -3.622  14.686  78.869  1.00  0.00     0.064 C 
BRANCH   4   5
HETATM    5  C3  UNL     1      -2.373  13.908  78.446  1.00  0.00     0.128 C 
BRANCH   5   6
HETATM    6  N3  UNL     1      -1.845  13.117  79.528  1.00  0.00    -0.354 N 
ATOM      7  H3  UNL     1      -1.978  13.407  80.497  1.00  0.00     0.163 HD
BRANCH   6   8
HETATM    8  C2  UNL     1      -1.191  12.016  79.244  1.00  0.00     0.258 A 
HETATM    9  O1  UNL     1      -0.023  11.650  79.749  1.00  0.00    -0.186 OA
HETATM   10  N2  UNL     1       0.345  10.500  79.252  1.00  0.00    -0.088 N 
HETATM   11  C1  UNL     1      -0.597  10.082  78.392  1.00  0.00     0.699 A 
ATOM     12  H2  UNL     1       1.206  10.002  79.480  1.00  0.00     0.214 HD
HETATM   13  N8  UNL     1      -1.544  11.037  78.399  1.00  0.00    -0.152 N 
ATOM     14  H8  UNL     1      -2.401  11.018  77.847  1.00  0.00     0.188 HD
BRANCH  11  15
HETATM   15  N1  UNL     1      -0.592   8.976  77.695  1.00  0.00    -0.233 N 
ATOM     16  H12 UNL     1       0.186   8.582  77.165  1.00  0.00     0.174 HD
ATOM     17  H11 UNL     1      -1.368   8.326  77.567  1.00  0.00     0.174 HD
ENDBRANCH  11  15
ENDBRANCH   6   8
ENDBRANCH   5   6
ENDBRANCH   4   5
ENDBRANCH   3   4
ENDBRANCH   1   3
BRANCH   1  18
HETATM   18  C6  UNL     1      -6.004  13.098  78.151  1.00  0.00     0.061 C 
BRANCH  18  19
HETATM   19  C7  UNL     1      -6.760  11.859  77.855  1.00  0.00     0.064 C 
BRANCH  19  20
HETATM   20  C8  UNL     1      -6.635  11.314  76.469  1.00  0.00     0.132 C 
BRANCH  20  21
HETATM   21  N5  UNL     1      -5.850  10.080  76.406  1.00  0.00    -0.332 N 
HETATM   22  C9  UNL     1      -6.288   8.744  76.172  1.00  0.00     0.154 C 
HETATM   23  C10 UNL     1      -5.147   7.865  76.506  1.00  0.00     0.129 C 
HETATM   24  N7  UNL     1      -4.051   8.709  76.878  1.00  0.00    -0.335 N 
HETATM   25  C12 UNL     1      -4.440  10.046  76.593  1.00  0.00     0.318 C 
ATOM     26  H7  UNL     1      -3.160   8.408  77.272  1.00  0.00     0.164 HD
HETATM   27  O2  UNL     1      -3.639  11.031  76.521  1.00  0.00    -0.247 OA
BRANCH  23  28
HETATM   28  C11 UNL     1      -4.757   6.942  75.361  1.00  0.00     0.256 C 
BRANCH  28  29
HETATM   29  N6  UNL     1      -5.509   5.707  75.430  1.00  0.00    -0.077 N 
ATOM     30  H63 UNL     1      -4.910   4.891  75.312  1.00  0.00     0.274 HD
ATOM     31  H62 UNL     1      -5.841   5.516  76.376  1.00  0.00     0.274 HD
ATOM     32  H61 UNL     1      -6.274   5.718  74.755  1.00  0.00     0.274 HD
ENDBRANCH  28  29
ENDBRANCH  23  28
ENDBRANCH  20  21
ENDBRANCH  19  20
ENDBRANCH  18  19
ENDBRANCH   1  18
TORSDOF 12
ENDMDL
MODEL 5
REMARK VINA RESULT: -5.911295556      2.205      3.143
REMARK  12 active torsions:
REMARK  status: ('A' for Active; 'I' for Inactive)
REMARK    1  A    between atoms: N1_1  and  C1_4 
REMARK    2  A    between atoms: C2_8  and  N3_9 
REMARK    3  A    between atoms: N3_9  and  C3_11 
REMARK    4  A    between atoms: C3_11  and  C4_12 
REMARK    5  A    between atoms: C4_12  and  C5_13 
REMARK    6  A    between atoms: C5_13  and  N4_14 
REMARK    7  A    between atoms: N4_14  and  C6_16 
REMARK    8  A    between atoms: C6_16  and  C7_17 
REMARK    9  A    between atoms: C7_17  and  C8_18 
REMARK   10  A    between atoms: C8_18  and  N5_19 
REMARK   11  A    between atoms: C10_21  and  C11_22 
REMARK   12  A    between atoms: C11_22  and  N6_23 
ROOT
HETATM    1  N4  UNL     1      -2.705  11.239  77.401  1.00  0.00    -0.382 N 
ATOM      2  H4  UNL     1      -2.392  12.005  77.997  1.00  0.00     0.163 HD
ENDROOT
BRANCH   1   3
HETATM    3  C5  UNL     1      -3.779  11.501  76.567  1.00  0.00     0.061 C 
BRANCH   3   4
HETATM    4  C4  UNL     1      -4.932  12.187  77.234  1.00  0.00     0.064 C 
BRANCH   4   5
HETATM    5  C3  UNL     1      -6.204  11.528  76.697  1.00  0.00     0.128 C 
BRANCH   5   6
HETATM    6  N3  UNL     1      -6.452  10.255  77.322  1.00  0.00    -0.354 N 
ATOM      7  H3  UNL     1      -6.614  10.193  78.327  1.00  0.00     0.163 HD
BRANCH   6   8
HETATM    8  C2  UNL     1      -6.467   9.177  76.575  1.00  0.00     0.258 A 
HETATM    9  O1  UNL     1      -7.396   8.854  75.689  1.00  0.00    -0.186 OA
HETATM   10  N2  UNL     1      -7.104   7.715  75.120  1.00  0.00    -0.088 N 
HETATM   11  C1  UNL     1      -5.950   7.261  75.635  1.00  0.00     0.699 A 
ATOM     12  H2  UNL     1      -7.660   7.249  74.403  1.00  0.00     0.214 HD
HETATM   13  N8  UNL     1      -5.568   8.183  76.537  1.00  0.00    -0.152 N 
ATOM     14  H8  UNL     1      -4.723   8.133  77.106  1.00  0.00     0.188 HD
BRANCH  11  15
HETATM   15  N1  UNL     1      -5.329   6.154  75.322  1.00  0.00    -0.233 N 
ATOM     16  H12 UNL     1      -4.793   5.964  74.475  1.00  0.00     0.174 HD
ATOM     17  H11 UNL     1      -5.282   5.298  75.875  1.00  0.00     0.174 HD
ENDBRANCH  11  15
ENDBRANCH   6   8
ENDBRANCH   5   6
ENDBRANCH   4   5
ENDBRANCH   3   4
ENDBRANCH   1   3
BRANCH   1  18
HETATM   18  C6  UNL     1      -2.016  10.053  77.510  1.00  0.00     0.061 C 
BRANCH  18  19
HETATM   19  C7  UNL     1      -0.704   9.963  78.192  1.00  0.00     0.064 C 
BRANCH  19  20
HETATM   20  C8  UNL     1      -0.652  10.431  79.610  1.00  0.00     0.132 C 
BRANCH  20  21
HETATM   21  N5  UNL     1       0.345  11.478  79.832  1.00  0.00    -0.332 N 
HETATM   22  C9  UNL     1       0.297  12.859  79.481  1.00  0.00     0.154 C 
HETATM   23  C10 UNL     1       1.666  13.387  79.664  1.00  0.00     0.129 C 
HETATM   24  N7  UNL     1       2.472  12.316  80.168  1.00  0.00    -0.335 N 
HETATM   25  C12 UNL     1       1.595  11.239  80.469  1.00  0.00     0.318 C 
ATOM     26  H7  UNL     1       3.485  12.325  80.290  1.00  0.00     0.164 HD
HETATM   27  O2  UNL     1       1.900  10.238  81.192  1.00  0.00    -0.247 OA
BRANCH  23  28
HETATM   28  C11 UNL     1       1.716  14.589  80.595  1.00  0.00     0.256 C 
BRANCH  28  29
HETATM   29  N6  UNL     1       0.622  15.493  80.311  1.00  0.00    -0.077 N 
ATOM     30  H63 UNL     1      -0.270  15.003  80.255  1.00  0.00     0.274 HD
ATOM     31  H62 UNL     1       0.413  16.098  81.105  1.00  0.00     0.274 HD
ATOM     32  H61 UNL     1       0.815  16.031  79.465  1.00  0.00     0.274 HD
ENDBRANCH  28  29
ENDBRANCH  23  28
ENDBRANCH  20  21
ENDBRANCH  19  20
ENDBRANCH  18  19
ENDBRANCH   1  18
TORSDOF 12
ENDMDL
