MODEL 1
REMARK VINA RESULT: -5.595247762      0.000      0.000
REMARK  12 active torsions:
REMARK  status: ('A' for Active; 'I' for Inactive)
REMARK    1  A    between atoms: C2_2  and  C3_3 
REMARK    2  A    between atoms: C3_3  and  N1_4 
REMARK    3  A    between atoms: N1_4  and  C4_7 
REMARK    4  A    between atoms: C4_7  and  C5_8 
REMARK    5  A    between atoms: C6_11  and  C8_13 
REMARK    6  A    between atoms: C8_13  and  N3_14 
REMARK    7  A    between atoms: N3_14  and  C9_17 
REMARK    8  A    between atoms: C9_17  and  C10_18 
REMARK    9  A    between atoms: C10_18  and  N4_19 
REMARK   10  A    between atoms: C13_22  and  O1_23 
REMARK   11  A    between atoms: C14_25  and  O2_26 
REMARK   12  A    between atoms: C15_28  and  O3_29 
ROOT
HETATM    1  C5  UNL     1      -4.048   9.453  75.790  1.00  0.00     0.134 C 
HETATM    2  N2  UNL     1      -5.064   9.944  76.670  1.00  0.00    -0.401 N 
ATOM      3  H2  UNL     1      -4.843  10.511  77.489  1.00  0.00     0.154 HD
HETATM    4  C6  UNL     1      -6.393   9.597  76.337  1.00  0.00     0.075 C 
HETATM    5  C7  UNL     1      -6.755  10.376  75.065  1.00  0.00     0.042 C 
HETATM    6  C13 UNL     1      -6.644   8.155  76.063  1.00  0.00     0.178 C 
HETATM    7  C14 UNL     1      -5.429   7.340  75.808  1.00  0.00     0.180 C 
HETATM    8  C15 UNL     1      -4.245   8.081  75.287  1.00  0.00     0.173 C 
ENDROOT
BRANCH   4   9
HETATM    9  C8  UNL     1      -7.322  10.071  77.414  1.00  0.00     0.265 C 
BRANCH   9  10
HETATM   10  N3  UNL     1      -8.483   9.170  77.572  1.00  0.00    -0.071 N 
ATOM     11  H32 UNL     1      -9.187   9.315  76.849  1.00  0.00     0.277 HD
ATOM     12  H31 UNL     1      -8.253   8.201  77.356  1.00  0.00     0.277 HD
BRANCH  10  13
HETATM   13  C9  UNL     1      -9.019   9.320  78.891  1.00  0.00     0.262 C 
BRANCH  13  14
HETATM   14  C10 UNL     1     -10.046   8.320  79.257  1.00  0.00     0.298 C 
BRANCH  14  15
HETATM   15  N4  UNL     1      -9.979   7.875  80.609  1.00  0.00     0.081 N 
HETATM   16  C11 UNL     1      -8.567   8.131  81.044  1.00  0.00     0.309 C 
HETATM   17  C12 UNL     1     -10.183   6.427  80.760  1.00  0.00     0.309 C 
ENDBRANCH  14  15
ENDBRANCH  13  14
ENDBRANCH  10  13
ENDBRANCH   9  10
ENDBRANCH   4   9
BRANCH   6  18
HETATM   18  O1  UNL     1      -7.517   8.012  74.985  1.00  0.00    -0.390 OA
ATOM     19  H1  UNL     1      -7.953   8.837  74.803  1.00  0.00     0.210 HD
ENDBRANCH   6  18
BRANCH   1  20
HETATM   20  C4  UNL     1      -2.706   9.700  76.469  1.00  0.00     0.259 C 
BRANCH  20  21
HETATM   21  N1  UNL     1      -2.801   9.537  77.901  1.00  0.00    -0.070 N 
ATOM     22  H12 UNL     1      -3.353   8.717  78.152  1.00  0.00     0.277 HD
ATOM     23  H11 UNL     1      -3.389  10.254  78.325  1.00  0.00     0.277 HD
BRANCH  21  24
HETATM   24  C3  UNL     1      -1.502   9.500  78.497  1.00  0.00     0.259 C 
BRANCH  24  25
HETATM   25  C2  UNL     1      -0.990  10.869  78.726  1.00  0.00    -0.010 C 
HETATM   26  C1  UNL     1      -0.019  11.057  79.597  1.00  0.00     0.008 C 
ENDBRANCH  24  25
ENDBRANCH  21  24
ENDBRANCH  20  21
ENDBRANCH   1  20
BRANCH   7  27
HETATM   27  O2  UNL     1      -5.052   6.620  76.966  1.00  0.00    -0.390 OA
ATOM     28  H2  UNL     1      -4.552   7.168  77.558  1.00  0.00     0.210 HD
ENDBRANCH   7  27
BRANCH   8  29
HETATM   29  O3  UNL     1      -3.110   7.326  75.669  1.00  0.00    -0.391 OA
ATOM     30  H3  UNL     1      -2.859   6.796  74.922  1.00  0.00     0.210 HD
ENDBRANCH   8  29
TORSDOF 12
ENDMDL
MODEL 2
REMARK VINA RESULT: -5.576325104      2.803      4.172
REMARK  12 active torsions:
REMARK  status: ('A' for Active; 'I' for Inactive)
REMARK    1  A    between atoms: C2_2  and  C3_3 
REMARK    2  A    between atoms: C3_3  and  N1_4 
REMARK    3  A    between atoms: N1_4  and  C4_7 
REMARK    4  A    between atoms: C4_7  and  C5_8 
REMARK    5  A    between atoms: C6_11  and  C8_13 
REMARK    6  A    between atoms: C8_13  and  N3_14 
REMARK    7  A    between atoms: N3_14  and  C9_17 
REMARK    8  A    between atoms: C9_17  and  C10_18 
REMARK    9  A    between atoms: C10_18  and  N4_19 
REMARK   10  A    between atoms: C13_22  and  O1_23 
REMARK   11  A    between atoms: C14_25  and  O2_26 
REMARK   12  A    between atoms: C15_28  and  O3_29 
ROOT
HETATM    1  C5  UNL     1      -3.679   9.654  76.055  1.00  0.00     0.134 C 
HETATM    2  N2  UNL     1      -4.490  10.468  76.908  1.00  0.00    -0.401 N 
ATOM      3  H2  UNL     1      -4.098  10.984  77.697  1.00  0.00     0.154 HD
HETATM    4  C6  UNL     1      -5.867  10.515  76.593  1.00  0.00     0.075 C 
HETATM    5  C7  UNL     1      -5.999  11.302  75.281  1.00  0.00     0.042 C 
HETATM    6  C13 UNL     1      -6.539   9.201  76.394  1.00  0.00     0.178 C 
HETATM    7  C14 UNL     1      -5.625   8.050  76.183  1.00  0.00     0.180 C 
HETATM    8  C15 UNL     1      -4.282   8.378  75.625  1.00  0.00     0.173 C 
ENDROOT
BRANCH   4   9
HETATM    9  C8  UNL     1      -6.597  11.298  77.643  1.00  0.00     0.265 C 
BRANCH   9  10
HETATM   10  N3  UNL     1      -5.980  12.621  77.868  1.00  0.00    -0.071 N 
ATOM     11  H32 UNL     1      -4.963  12.592  77.794  1.00  0.00     0.277 HD
ATOM     12  H31 UNL     1      -6.162  13.269  77.102  1.00  0.00     0.277 HD
BRANCH  10  13
HETATM   13  C9  UNL     1      -6.419  13.137  79.130  1.00  0.00     0.262 C 
BRANCH  13  14
HETATM   14  C10 UNL     1      -5.440  14.011  79.814  1.00  0.00     0.298 C 
BRANCH  14  15
HETATM   15  N4  UNL     1      -4.559  14.707  78.936  1.00  0.00     0.081 N 
HETATM   16  C11 UNL     1      -3.177  14.310  79.360  1.00  0.00     0.309 C 
HETATM   17  C12 UNL     1      -4.615  16.167  79.089  1.00  0.00     0.309 C 
ENDBRANCH  14  15
ENDBRANCH  13  14
ENDBRANCH  10  13
ENDBRANCH   9  10
ENDBRANCH   4   9
BRANCH   6  18
HETATM   18  O1  UNL     1      -7.431   9.272  75.325  1.00  0.00    -0.390 OA
ATOM     19  H1  UNL     1      -8.011   8.519  75.329  1.00  0.00     0.210 HD
ENDBRANCH   6  18
BRANCH   1  20
HETATM   20  C4  UNL     1      -2.314   9.524  76.722  1.00  0.00     0.259 C 
BRANCH  20  21
HETATM   21  N1  UNL     1      -2.411   9.662  78.157  1.00  0.00    -0.070 N 
ATOM     22  H12 UNL     1      -2.966   8.913  78.571  1.00  0.00     0.277 HD
ATOM     23  H11 UNL     1      -2.999  10.452  78.421  1.00  0.00     0.277 HD
BRANCH  21  24
HETATM   24  C3  UNL     1      -1.114   9.747  78.750  1.00  0.00     0.259 C 
BRANCH  24  25
HETATM   25  C2  UNL     1      -0.786  11.149  79.095  1.00  0.00    -0.010 C 
HETATM   26  C1  UNL     1       0.334  11.409  79.737  1.00  0.00     0.008 C 
ENDBRANCH  24  25
ENDBRANCH  21  24
ENDBRANCH  20  21
ENDBRANCH   1  20
BRANCH   7  27
HETATM   27  O2  UNL     1      -5.462   7.310  77.377  1.00  0.00    -0.390 OA
ATOM     28  H2  UNL     1      -5.052   6.471  77.202  1.00  0.00     0.210 HD
ENDBRANCH   7  27
BRANCH   8  29
HETATM   29  O3  UNL     1      -3.418   7.340  76.047  1.00  0.00    -0.391 OA
ATOM     30  H3  UNL     1      -3.544   7.230  76.982  1.00  0.00     0.210 HD
ENDBRANCH   8  29
TORSDOF 12
ENDMDL
MODEL 3
REMARK VINA RESULT: -5.557155752      1.969      2.766
REMARK  12 active torsions:
REMARK  status: ('A' for Active; 'I' for Inactive)
REMARK    1  A    between atoms: C2_2  and  C3_3 
REMARK    2  A    between atoms: C3_3  and  N1_4 
REMARK    3  A    between atoms: N1_4  and  C4_7 
REMARK    4  A    between atoms: C4_7  and  C5_8 
REMARK    5  A    between atoms: C6_11  and  C8_13 
REMARK    6  A    between atoms: C8_13  and  N3_14 
REMARK    7  A    between atoms: N3_14  and  C9_17 
REMARK    8  A    between atoms: C9_17  and  C10_18 
REMARK    9  A    between atoms: C10_18  and  N4_19 
REMARK   10  A    between atoms: C13_22  and  O1_23 
REMARK   11  A    between atoms: C14_25  and  O2_26 
REMARK   12  A    between atoms: C15_28  and  O3_29 
ROOT
HETATM    1  C5  UNL     1      -3.579   9.661  76.043  1.00  0.00     0.134 C 
HETATM    2  N2  UNL     1      -4.456  10.442  76.861  1.00  0.00    -0.401 N 
ATOM      3  H2  UNL     1      -4.118  10.967  77.668  1.00  0.00     0.154 HD
HETATM    4  C6  UNL     1      -5.818  10.445  76.483  1.00  0.00     0.075 C 
HETATM    5  C7  UNL     1      -5.917  11.234  75.170  1.00  0.00     0.042 C 
HETATM    6  C13 UNL     1      -6.435   9.111  76.248  1.00  0.00     0.178 C 
HETATM    7  C14 UNL     1      -5.474   7.992  76.074  1.00  0.00     0.180 C 
HETATM    8  C15 UNL     1      -4.119   8.368  75.580  1.00  0.00     0.173 C 
ENDROOT
BRANCH   4   9
HETATM    9  C8  UNL     1      -6.621  11.197  77.501  1.00  0.00     0.265 C 
BRANCH   9  10
HETATM   10  N3  UNL     1      -7.650  10.341  78.128  1.00  0.00    -0.071 N 
ATOM     11  H32 UNL     1      -8.347  10.019  77.457  1.00  0.00     0.277 HD
ATOM     12  H31 UNL     1      -7.282   9.430  78.401  1.00  0.00     0.277 HD
BRANCH  10  13
HETATM   13  C9  UNL     1      -8.238  11.042  79.230  1.00  0.00     0.262 C 
BRANCH  13  14
HETATM   14  C10 UNL     1      -9.036  12.229  78.851  1.00  0.00     0.298 C 
BRANCH  14  15
HETATM   15  N4  UNL     1      -8.633  13.437  79.489  1.00  0.00     0.081 N 
HETATM   16  C11 UNL     1      -8.271  14.375  78.377  1.00  0.00     0.309 C 
HETATM   17  C12 UNL     1      -7.413  13.293  80.297  1.00  0.00     0.309 C 
ENDBRANCH  14  15
ENDBRANCH  13  14
ENDBRANCH  10  13
ENDBRANCH   9  10
ENDBRANCH   4   9
BRANCH   6  18
HETATM   18  O1  UNL     1      -7.279   9.157  75.139  1.00  0.00    -0.390 OA
ATOM     19  H1  UNL     1      -8.056   8.631  75.294  1.00  0.00     0.210 HD
ENDBRANCH   6  18
BRANCH   1  20
HETATM   20  C4  UNL     1      -2.243   9.573  76.770  1.00  0.00     0.259 C 
BRANCH  20  21
HETATM   21  N1  UNL     1      -2.411   9.691  78.201  1.00  0.00    -0.070 N 
ATOM     22  H12 UNL     1      -3.002   8.947  78.573  1.00  0.00     0.277 HD
ATOM     23  H11 UNL     1      -2.995  10.490  78.448  1.00  0.00     0.277 HD
BRANCH  21  24
HETATM   24  C3  UNL     1      -1.144   9.739  78.860  1.00  0.00     0.259 C 
BRANCH  24  25
HETATM   25  C2  UNL     1      -0.736  11.140  79.110  1.00  0.00    -0.010 C 
HETATM   26  C1  UNL     1       0.380  11.377  79.768  1.00  0.00     0.008 C 
ENDBRANCH  24  25
ENDBRANCH  21  24
ENDBRANCH  20  21
ENDBRANCH   1  20
BRANCH   7  27
HETATM   27  O2  UNL     1      -5.341   7.251  77.271  1.00  0.00    -0.390 OA
ATOM     28  H2  UNL     1      -5.385   6.317  77.099  1.00  0.00     0.210 HD
ENDBRANCH   7  27
BRANCH   8  29
HETATM   29  O3  UNL     1      -3.240   7.358  76.037  1.00  0.00    -0.391 OA
ATOM     30  H3  UNL     1      -3.720   6.827  76.662  1.00  0.00     0.210 HD
ENDBRANCH   8  29
TORSDOF 12
ENDMDL
MODEL 4
REMARK VINA RESULT: -5.537550643      4.614      6.542
REMARK  12 active torsions:
REMARK  status: ('A' for Active; 'I' for Inactive)
REMARK    1  A    between atoms: C2_2  and  C3_3 
REMARK    2  A    between atoms: C3_3  and  N1_4 
REMARK    3  A    between atoms: N1_4  and  C4_7 
REMARK    4  A    between atoms: C4_7  and  C5_8 
REMARK    5  A    between atoms: C6_11  and  C8_13 
REMARK    6  A    between atoms: C8_13  and  N3_14 
REMARK    7  A    between atoms: N3_14  and  C9_17 
REMARK    8  A    between atoms: C9_17  and  C10_18 
REMARK    9  A    between atoms: C10_18  and  N4_19 
REMARK   10  A    between atoms: C13_22  and  O1_23 
REMARK   11  A    between atoms: C14_25  and  O2_26 
REMARK   12  A    between atoms: C15_28  and  O3_29 
ROOT
HETATM    1  C5  UNL     1     -11.590   8.321  74.540  1.00  0.00     0.134 C 
HETATM    2  N2  UNL     1     -11.225   8.138  75.912  1.00  0.00    -0.401 N 
ATOM      3  H2  UNL     1     -10.290   8.359  76.257  1.00  0.00     0.154 HD
HETATM    4  C6  UNL     1     -12.236   7.633  76.760  1.00  0.00     0.075 C 
HETATM    5  C7  UNL     1     -13.285   8.743  76.917  1.00  0.00     0.042 C 
HETATM    6  C13 UNL     1     -12.945   6.415  76.281  1.00  0.00     0.178 C 
HETATM    7  C14 UNL     1     -12.770   6.109  74.839  1.00  0.00     0.180 C 
HETATM    8  C15 UNL     1     -12.447   7.269  73.961  1.00  0.00     0.173 C 
ENDROOT
BRANCH   4   9
HETATM    9  C8  UNL     1     -11.668   7.379  78.124  1.00  0.00     0.265 C 
BRANCH   9  10
HETATM   10  N3  UNL     1     -11.757   5.951  78.497  1.00  0.00    -0.071 N 
ATOM     11  H32 UNL     1     -12.600   5.508  78.132  1.00  0.00     0.277 HD
ATOM     12  H31 UNL     1     -11.070   5.380  78.007  1.00  0.00     0.277 HD
BRANCH  10  13
HETATM   13  C9  UNL     1     -11.651   5.829  79.920  1.00  0.00     0.262 C 
BRANCH  13  14
HETATM   14  C10 UNL     1     -10.536   6.592  80.524  1.00  0.00     0.298 C 
BRANCH  14  15
HETATM   15  N4  UNL     1      -9.929   5.958  81.645  1.00  0.00     0.081 N 
HETATM   16  C11 UNL     1      -9.421   4.642  81.134  1.00  0.00     0.309 C 
HETATM   17  C12 UNL     1     -10.879   5.625  82.716  1.00  0.00     0.309 C 
ENDBRANCH  14  15
ENDBRANCH  13  14
ENDBRANCH  10  13
ENDBRANCH   9  10
ENDBRANCH   4   9
BRANCH   6  18
HETATM   18  O1  UNL     1     -14.308   6.508  76.561  1.00  0.00    -0.390 OA
ATOM     19  H1  UNL     1     -14.538   5.928  77.278  1.00  0.00     0.210 HD
ENDBRANCH   6  18
BRANCH   1  20
HETATM   20  C4  UNL     1     -10.308   8.600  73.766  1.00  0.00     0.259 C 
BRANCH  20  21
HETATM   21  N1  UNL     1      -9.169   7.954  74.378  1.00  0.00    -0.070 N 
ATOM     22  H12 UNL     1      -8.892   7.116  73.868  1.00  0.00     0.277 HD
ATOM     23  H11 UNL     1      -9.415   7.519  75.267  1.00  0.00     0.277 HD
BRANCH  21  24
HETATM   24  C3  UNL     1      -8.080   8.869  74.521  1.00  0.00     0.259 C 
BRANCH  24  25
HETATM   25  C2  UNL     1      -7.241   8.508  75.686  1.00  0.00    -0.010 C 
HETATM   26  C1  UNL     1      -6.190   7.734  75.507  1.00  0.00     0.008 C 
ENDBRANCH  24  25
ENDBRANCH  21  24
ENDBRANCH  20  21
ENDBRANCH   1  20
BRANCH   7  27
HETATM   27  O2  UNL     1     -11.796   5.101  74.651  1.00  0.00    -0.390 OA
ATOM     28  H2  UNL     1     -12.183   4.237  74.728  1.00  0.00     0.210 HD
ENDBRANCH   7  27
BRANCH   8  29
HETATM   29  O3  UNL     1     -11.763   6.737  72.842  1.00  0.00    -0.391 OA
ATOM     30  H3  UNL     1     -12.261   6.972  72.068  1.00  0.00     0.210 HD
ENDBRANCH   8  29
TORSDOF 12
ENDMDL
MODEL 5
REMARK VINA RESULT: -5.418094003      0.852      1.100
REMARK  12 active torsions:
REMARK  status: ('A' for Active; 'I' for Inactive)
REMARK    1  A    between atoms: C2_2  and  C3_3 
REMARK    2  A    between atoms: C3_3  and  N1_4 
REMARK    3  A    between atoms: N1_4  and  C4_7 
REMARK    4  A    between atoms: C4_7  and  C5_8 
REMARK    5  A    between atoms: C6_11  and  C8_13 
REMARK    6  A    between atoms: C8_13  and  N3_14 
REMARK    7  A    between atoms: N3_14  and  C9_17 
REMARK    8  A    between atoms: C9_17  and  C10_18 
REMARK    9  A    between atoms: C10_18  and  N4_19 
REMARK   10  A    between atoms: C13_22  and  O1_23 
REMARK   11  A    between atoms: C14_25  and  O2_26 
REMARK   12  A    between atoms: C15_28  and  O3_29 
ROOT
HETATM    1  C5  UNL     1      -3.842   9.657  75.991  1.00  0.00     0.134 C 
HETATM    2  N2  UNL     1      -4.759  10.341  76.852  1.00  0.00    -0.401 N 
ATOM      3  H2  UNL     1      -4.442  10.902  77.643  1.00  0.00     0.154 HD
HETATM    4  C6  UNL     1      -6.129  10.193  76.540  1.00  0.00     0.075 C 
HETATM    5  C7  UNL     1      -6.378  10.961  75.235  1.00  0.00     0.042 C 
HETATM    6  C13 UNL     1      -6.607   8.797  76.333  1.00  0.00     0.178 C 
HETATM    7  C14 UNL     1      -5.539   7.791  76.111  1.00  0.00     0.180 C 
HETATM    8  C15 UNL     1      -4.258   8.312  75.553  1.00  0.00     0.173 C 
ENDROOT
BRANCH   4   9
HETATM    9  C8  UNL     1      -6.961  10.855  77.598  1.00  0.00     0.265 C 
BRANCH   9  10
HETATM   10  N3  UNL     1      -7.882   9.900  78.249  1.00  0.00    -0.071 N 
ATOM     11  H32 UNL     1      -8.122   9.118  77.640  1.00  0.00     0.277 HD
ATOM     12  H31 UNL     1      -7.427   9.370  78.992  1.00  0.00     0.277 HD
BRANCH  10  13
HETATM   13  C9  UNL     1      -9.039  10.604  78.713  1.00  0.00     0.262 C 
BRANCH  13  14
HETATM   14  C10 UNL     1     -10.204   9.744  79.018  1.00  0.00     0.298 C 
BRANCH  14  15
HETATM   15  N4  UNL     1      -9.882   8.374  79.235  1.00  0.00     0.081 N 
HETATM   16  C11 UNL     1     -11.052   7.599  78.705  1.00  0.00     0.309 C 
HETATM   17  C12 UNL     1      -9.782   8.014  80.657  1.00  0.00     0.309 C 
ENDBRANCH  14  15
ENDBRANCH  13  14
ENDBRANCH  10  13
ENDBRANCH   9  10
ENDBRANCH   4   9
BRANCH   6  18
HETATM   18  O1  UNL     1      -7.504   8.747  75.267  1.00  0.00    -0.390 OA
ATOM     19  H1  UNL     1      -7.052   8.914  74.448  1.00  0.00     0.210 HD
ENDBRANCH   6  18
BRANCH   1  20
HETATM   20  C4  UNL     1      -2.471   9.720  76.652  1.00  0.00     0.259 C 
BRANCH  20  21
HETATM   21  N1  UNL     1      -2.576   9.670  78.093  1.00  0.00    -0.070 N 
ATOM     22  H12 UNL     1      -3.161   8.894  78.401  1.00  0.00     0.277 HD
ATOM     23  H11 UNL     1      -3.137  10.440  78.457  1.00  0.00     0.277 HD
BRANCH  21  24
HETATM   24  C3  UNL     1      -1.282   9.629  78.697  1.00  0.00     0.259 C 
BRANCH  24  25
HETATM   25  C2  UNL     1      -0.775  10.997  78.946  1.00  0.00    -0.010 C 
HETATM   26  C1  UNL     1       0.217  11.172  79.795  1.00  0.00     0.008 C 
ENDBRANCH  24  25
ENDBRANCH  21  24
ENDBRANCH  20  21
ENDBRANCH   1  20
BRANCH   7  27
HETATM   27  O2  UNL     1      -5.267   7.073  77.299  1.00  0.00    -0.390 OA
ATOM     28  H2  UNL     1      -4.560   6.452  77.166  1.00  0.00     0.210 HD
ENDBRANCH   7  27
BRANCH   8  29
HETATM   29  O3  UNL     1      -3.252   7.405  75.964  1.00  0.00    -0.391 OA
ATOM     30  H3  UNL     1      -3.117   6.791  75.252  1.00  0.00     0.210 HD
ENDBRANCH   8  29
TORSDOF 12
ENDMDL
