MODEL 1
REMARK VINA RESULT: -7.932570507      0.000      0.000
REMARK  6 active torsions:
REMARK  status: ('A' for Active; 'I' for Inactive)
REMARK    1  A    between atoms: O1_1  and  C1_3 
REMARK    2  A    between atoms: C1_3  and  C2_4 
REMARK    3  A    between atoms: C2_4  and  C3_5 
REMARK    4  A    between atoms: N1_6  and  O2_8 
REMARK    5  A    between atoms: O2_8  and  C4_9 
REMARK    6  A    between atoms: C4_9  and  C5_10 
ROOT
HETATM    1  C2  UNL     1      19.997  89.702  38.714  1.00  0.00     0.018 C 
HETATM    2  C11 UNL     1      20.013  91.110  38.233  1.00  0.00     0.044 C 
HETATM    3  C12 UNL     1      19.502  91.301  36.839  1.00  0.00     0.233 C 
HETATM    4  N2  UNL     1      18.674  90.200  36.452  1.00  0.00    -0.075 N 
ATOM      5  H21 UNL     1      19.226  89.405  36.131  1.00  0.00     0.277 HD
ATOM      6  H22 UNL     1      18.167  90.392  35.588  1.00  0.00     0.277 HD
HETATM    7  C13 UNL     1      17.792  89.839  37.515  1.00  0.00     0.233 C 
HETATM    8  C14 UNL     1      18.618  89.145  38.588  1.00  0.00     0.044 C 
ENDROOT
BRANCH   1   9
HETATM    9  C1  UNL     1      21.012  88.820  38.038  1.00  0.00     0.179 C 
BRANCH   9  10
HETATM   10  O1  UNL     1      22.302  89.254  38.173  1.00  0.00    -0.400 OA
ATOM     11  H1  UNL     1      22.575  89.379  39.075  1.00  0.00     0.209 HD
ENDBRANCH   9  10
ENDBRANCH   1   9
BRANCH   1  12
HETATM   12  C3  UNL     1      20.344  89.730  40.179  1.00  0.00     0.099 C 
HETATM   13  N1  UNL     1      21.064  88.787  40.684  1.00  0.00    -0.281 N 
ATOM     14  H1  UNL     1      21.403  88.021  40.103  1.00  0.00     0.193 HD
BRANCH  13  15
HETATM   15  O2  UNL     1      21.361  88.841  42.018  1.00  0.00    -0.281 OA
BRANCH  15  16
HETATM   16  C4  UNL     1      21.039  87.773  42.878  1.00  0.00     0.205 C 
BRANCH  16  17
HETATM   17  C5  UNL     1      19.679  88.094  43.512  1.00  0.00     0.012 C 
HETATM   18  C6  UNL     1      18.632  87.638  42.542  1.00  0.00     0.007 C 
HETATM   19  C7  UNL     1      17.266  87.499  43.170  1.00  0.00     0.000 C 
HETATM   20  C8  UNL     1      17.267  86.572  44.353  1.00  0.00     0.000 C 
HETATM   21  C9  UNL     1      18.647  86.209  44.814  1.00  0.00     0.000 C 
HETATM   22  C10 UNL     1      19.579  87.400  44.849  1.00  0.00     0.007 C 
ENDBRANCH  16  17
ENDBRANCH  15  16
ENDBRANCH  13  15
ENDBRANCH   1  12
TORSDOF 6
ENDMDL
MODEL 2
REMARK VINA RESULT: -7.845843037      0.461      1.236
REMARK  6 active torsions:
REMARK  status: ('A' for Active; 'I' for Inactive)
REMARK    1  A    between atoms: O1_1  and  C1_3 
REMARK    2  A    between atoms: C1_3  and  C2_4 
REMARK    3  A    between atoms: C2_4  and  C3_5 
REMARK    4  A    between atoms: N1_6  and  O2_8 
REMARK    5  A    between atoms: O2_8  and  C4_9 
REMARK    6  A    between atoms: C4_9  and  C5_10 
ROOT
HETATM    1  C2  UNL     1      19.957  89.684  38.663  1.00  0.00     0.018 C 
HETATM    2  C11 UNL     1      19.977  91.099  38.204  1.00  0.00     0.044 C 
HETATM    3  C12 UNL     1      19.491  91.310  36.803  1.00  0.00     0.233 C 
HETATM    4  N2  UNL     1      18.675  90.212  36.384  1.00  0.00    -0.075 N 
ATOM      5  H21 UNL     1      19.236  89.424  36.061  1.00  0.00     0.277 HD
ATOM      6  H22 UNL     1      18.184  90.416  35.513  1.00  0.00     0.277 HD
HETATM    7  C13 UNL     1      17.774  89.832  37.424  1.00  0.00     0.233 C 
HETATM    8  C14 UNL     1      18.582  89.124  38.502  1.00  0.00     0.044 C 
ENDROOT
BRANCH   1   9
HETATM    9  C1  UNL     1      20.987  88.815  37.993  1.00  0.00     0.179 C 
BRANCH   9  10
HETATM   10  O1  UNL     1      22.269  89.275  38.124  1.00  0.00    -0.400 OA
ATOM     11  H1  UNL     1      22.452  90.057  37.618  1.00  0.00     0.209 HD
ENDBRANCH   9  10
ENDBRANCH   1   9
BRANCH   1  12
HETATM   12  C3  UNL     1      20.275  89.690  40.135  1.00  0.00     0.099 C 
HETATM   13  N1  UNL     1      21.015  88.760  40.633  1.00  0.00    -0.281 N 
ATOM     14  H1  UNL     1      21.389  88.018  40.043  1.00  0.00     0.193 HD
BRANCH  13  15
HETATM   15  O2  UNL     1      21.285  88.794  41.974  1.00  0.00    -0.281 OA
BRANCH  15  16
HETATM   16  C4  UNL     1      20.248  88.872  42.923  1.00  0.00     0.205 C 
BRANCH  16  17
HETATM   17  C5  UNL     1      19.583  87.491  42.984  1.00  0.00     0.012 C 
HETATM   18  C6  UNL     1      19.738  86.998  44.391  1.00  0.00     0.007 C 
HETATM   19  C7  UNL     1      18.800  85.865  44.727  1.00  0.00     0.000 C 
HETATM   20  C8  UNL     1      17.358  86.222  44.496  1.00  0.00     0.000 C 
HETATM   21  C9  UNL     1      17.185  87.503  43.736  1.00  0.00     0.000 C 
HETATM   22  C10 UNL     1      18.138  87.618  42.567  1.00  0.00     0.007 C 
ENDBRANCH  16  17
ENDBRANCH  15  16
ENDBRANCH  13  15
ENDBRANCH   1  12
TORSDOF 6
ENDMDL
MODEL 3
REMARK VINA RESULT: -7.683646460      2.138      6.635
REMARK  6 active torsions:
REMARK  status: ('A' for Active; 'I' for Inactive)
REMARK    1  A    between atoms: O1_1  and  C1_3 
REMARK    2  A    between atoms: C1_3  and  C2_4 
REMARK    3  A    between atoms: C2_4  and  C3_5 
REMARK    4  A    between atoms: N1_6  and  O2_8 
REMARK    5  A    between atoms: O2_8  and  C4_9 
REMARK    6  A    between atoms: C4_9  and  C5_10 
ROOT
HETATM    1  C2  UNL     1      19.893  87.286  44.200  1.00  0.00     0.018 C 
HETATM    2  C11 UNL     1      19.215  85.966  44.313  1.00  0.00     0.044 C 
HETATM    3  C12 UNL     1      18.854  85.565  45.709  1.00  0.00     0.233 C 
HETATM    4  N2  UNL     1      18.792  86.713  46.561  1.00  0.00    -0.075 N 
ATOM      5  H21 UNL     1      19.716  86.991  46.890  1.00  0.00     0.277 HD
ATOM      6  H22 UNL     1      18.370  86.494  47.463  1.00  0.00     0.277 HD
HETATM    7  C13 UNL     1      18.117  87.787  45.906  1.00  0.00     0.233 C 
HETATM    8  C14 UNL     1      19.049  88.339  44.838  1.00  0.00     0.044 C 
ENDROOT
BRANCH   1   9
HETATM    9  C1  UNL     1      21.294  87.296  44.748  1.00  0.00     0.179 C 
BRANCH   9  10
HETATM   10  O1  UNL     1      22.111  86.345  44.201  1.00  0.00    -0.400 OA
ATOM     11  H1  UNL     1      22.477  86.590  43.359  1.00  0.00     0.209 HD
ENDBRANCH   9  10
ENDBRANCH   1   9
BRANCH   1  12
HETATM   12  C3  UNL     1      19.991  87.611  42.732  1.00  0.00     0.099 C 
HETATM   13  N1  UNL     1      21.077  88.121  42.262  1.00  0.00    -0.281 N 
ATOM     14  H1  UNL     1      21.873  88.309  42.872  1.00  0.00     0.193 HD
BRANCH  13  15
HETATM   15  O2  UNL     1      21.135  88.405  40.925  1.00  0.00    -0.281 OA
BRANCH  15  16
HETATM   16  C4  UNL     1      20.387  89.462  40.373  1.00  0.00     0.205 C 
BRANCH  16  17
HETATM   17  C5  UNL     1      19.548  88.876  39.229  1.00  0.00     0.012 C 
HETATM   18  C6  UNL     1      18.117  88.937  39.668  1.00  0.00     0.007 C 
HETATM   19  C7  UNL     1      17.141  88.789  38.526  1.00  0.00     0.000 C 
HETATM   20  C8  UNL     1      17.360  89.812  37.446  1.00  0.00     0.000 C 
HETATM   21  C9  UNL     1      18.646  90.566  37.603  1.00  0.00     0.000 C 
HETATM   22  C10 UNL     1      19.806  89.666  37.969  1.00  0.00     0.007 C 
ENDBRANCH  16  17
ENDBRANCH  15  16
ENDBRANCH  13  15
ENDBRANCH   1  12
TORSDOF 6
ENDMDL
MODEL 4
REMARK VINA RESULT: -7.619730095      2.430      6.842
REMARK  6 active torsions:
REMARK  status: ('A' for Active; 'I' for Inactive)
REMARK    1  A    between atoms: O1_1  and  C1_3 
REMARK    2  A    between atoms: C1_3  and  C2_4 
REMARK    3  A    between atoms: C2_4  and  C3_5 
REMARK    4  A    between atoms: N1_6  and  O2_8 
REMARK    5  A    between atoms: O2_8  and  C4_9 
REMARK    6  A    between atoms: C4_9  and  C5_10 
ROOT
HETATM    1  C2  UNL     1      18.729  87.492  44.308  1.00  0.00     0.018 C 
HETATM    2  C11 UNL     1      18.659  88.356  45.517  1.00  0.00     0.044 C 
HETATM    3  C12 UNL     1      18.156  87.671  46.749  1.00  0.00     0.233 C 
HETATM    4  N2  UNL     1      18.309  86.253  46.632  1.00  0.00    -0.075 N 
ATOM      5  H21 UNL     1      17.549  85.832  46.099  1.00  0.00     0.277 HD
ATOM      6  H22 UNL     1      18.150  85.780  47.522  1.00  0.00     0.277 HD
HETATM    7  C13 UNL     1      19.586  85.931  46.082  1.00  0.00     0.233 C 
HETATM    8  C14 UNL     1      19.557  86.285  44.602  1.00  0.00     0.044 C 
ENDROOT
BRANCH   1   9
HETATM    9  C1  UNL     1      17.382  87.115  43.754  1.00  0.00     0.179 C 
BRANCH   9  10
HETATM   10  O1  UNL     1      17.035  85.811  43.978  1.00  0.00    -0.400 OA
ATOM     11  H1  UNL     1      16.290  85.704  44.558  1.00  0.00     0.209 HD
ENDBRANCH   9  10
ENDBRANCH   1   9
BRANCH   1  12
HETATM   12  C3  UNL     1      19.440  88.280  43.239  1.00  0.00     0.099 C 
HETATM   13  N1  UNL     1      20.297  87.694  42.476  1.00  0.00    -0.281 N 
ATOM     14  H1  UNL     1      20.502  86.701  42.587  1.00  0.00     0.193 HD
BRANCH  13  15
HETATM   15  O2  UNL     1      20.927  88.437  41.515  1.00  0.00    -0.281 OA
BRANCH  15  16
HETATM   16  C4  UNL     1      20.262  89.492  40.861  1.00  0.00     0.205 C 
BRANCH  16  17
HETATM   17  C5  UNL     1      19.668  88.922  39.567  1.00  0.00     0.012 C 
HETATM   18  C6  UNL     1      18.178  88.938  39.731  1.00  0.00     0.007 C 
HETATM   19  C7  UNL     1      17.438  88.803  38.423  1.00  0.00     0.000 C 
HETATM   20  C8  UNL     1      17.826  89.862  37.429  1.00  0.00     0.000 C 
HETATM   21  C9  UNL     1      19.039  90.639  37.844  1.00  0.00     0.000 C 
HETATM   22  C10 UNL     1      20.134  89.755  38.398  1.00  0.00     0.007 C 
ENDBRANCH  16  17
ENDBRANCH  15  16
ENDBRANCH  13  15
ENDBRANCH   1  12
TORSDOF 6
ENDMDL
MODEL 5
REMARK VINA RESULT: -7.554171485      2.396      6.783
REMARK  6 active torsions:
REMARK  status: ('A' for Active; 'I' for Inactive)
REMARK    1  A    between atoms: O1_1  and  C1_3 
REMARK    2  A    between atoms: C1_3  and  C2_4 
REMARK    3  A    between atoms: C2_4  and  C3_5 
REMARK    4  A    between atoms: N1_6  and  O2_8 
REMARK    5  A    between atoms: O2_8  and  C4_9 
REMARK    6  A    between atoms: C4_9  and  C5_10 
ROOT
HETATM    1  C2  UNL     1      18.713  87.437  44.509  1.00  0.00     0.018 C 
HETATM    2  C11 UNL     1      19.389  86.112  44.573  1.00  0.00     0.044 C 
HETATM    3  C12 UNL     1      18.709  85.103  45.444  1.00  0.00     0.233 C 
HETATM    4  N2  UNL     1      17.334  85.451  45.636  1.00  0.00    -0.075 N 
ATOM      5  H21 UNL     1      17.218  86.148  46.370  1.00  0.00     0.277 HD
ATOM      6  H22 UNL     1      16.807  84.690  46.065  1.00  0.00     0.277 HD
HETATM    7  C13 UNL     1      16.748  85.873  44.405  1.00  0.00     0.233 C 
HETATM    8  C14 UNL     1      17.295  87.255  44.080  1.00  0.00     0.044 C 
ENDROOT
BRANCH   1   9
HETATM    9  C1  UNL     1      18.805  88.225  45.788  1.00  0.00     0.179 C 
BRANCH   9  10
HETATM   10  O1  UNL     1      17.614  88.354  46.448  1.00  0.00    -0.400 OA
ATOM     11  H1  UNL     1      17.591  89.076  47.065  1.00  0.00     0.209 HD
ENDBRANCH   9  10
ENDBRANCH   1   9
BRANCH   1  12
HETATM   12  C3  UNL     1      19.411  88.241  43.444  1.00  0.00     0.099 C 
HETATM   13  N1  UNL     1      20.241  87.662  42.647  1.00  0.00    -0.281 N 
ATOM     14  H1  UNL     1      20.433  86.663  42.728  1.00  0.00     0.193 HD
BRANCH  13  15
HETATM   15  O2  UNL     1      20.859  88.419  41.690  1.00  0.00    -0.281 OA
BRANCH  15  16
HETATM   16  C4  UNL     1      20.174  89.459  41.032  1.00  0.00     0.205 C 
BRANCH  16  17
HETATM   17  C5  UNL     1      19.628  88.884  39.718  1.00  0.00     0.012 C 
HETATM   18  C6  UNL     1      18.134  88.903  39.826  1.00  0.00     0.007 C 
HETATM   19  C7  UNL     1      17.444  88.764  38.491  1.00  0.00     0.000 C 
HETATM   20  C8  UNL     1      17.872  89.818  37.508  1.00  0.00     0.000 C 
HETATM   21  C9  UNL     1      19.070  90.595  37.965  1.00  0.00     0.000 C 
HETATM   22  C10 UNL     1      20.141  89.711  38.564  1.00  0.00     0.007 C 
ENDBRANCH  16  17
ENDBRANCH  15  16
ENDBRANCH  13  15
ENDBRANCH   1  12
TORSDOF 6
ENDMDL
