MODEL 1
REMARK VINA RESULT: -3.314973995      0.000      0.000
REMARK  2 active torsions:
REMARK  status: ('A' for Active; 'I' for Inactive)
REMARK    1  A    between atoms: C1_4  and  N2_5 
REMARK    2  A    between atoms: N2_5  and  C2_7 
ROOT
HETATM    1  C2  UNL     1      21.311  33.875   5.970  1.00  0.00     0.035 A 
HETATM    2  C3  UNL     1      20.184  34.171   6.706  1.00  0.00     0.046 A 
HETATM    3  C4  UNL     1      20.115  33.884   8.049  1.00  0.00     0.090 A 
HETATM    4  N3  UNL     1      21.124  33.308   8.717  1.00  0.00    -0.375 N 
ATOM      5  H3  UNL     1      21.047  33.104   9.713  1.00  0.00     0.164 HD
HETATM    6  C5  UNL     1      22.241  33.006   8.030  1.00  0.00     0.090 A 
HETATM    7  C6  UNL     1      22.341  33.280   6.688  1.00  0.00     0.046 A 
ENDROOT
BRANCH   1   8
HETATM    8  N2  UNL     1      21.408  34.132   4.707  1.00  0.00    -0.353 N 
ATOM      9  H2  UNL     1      20.710  34.702   4.229  1.00  0.00     0.166 HD
BRANCH   8  10
HETATM   10  C1  UNL     1      22.516  33.592   4.013  1.00  0.00     0.173 C 
HETATM   11  N1  UNL     1      22.435  32.460   3.424  1.00  0.00    -0.395 N 
ATOM     12  H12 UNL     1      21.551  31.952   3.465  1.00  0.00     0.156 HD
ATOM     13  H11 UNL     1      23.234  32.071   2.924  1.00  0.00     0.156 HD
ENDBRANCH   8  10
ENDBRANCH   1   8
TORSDOF 2
ENDMDL
MODEL 2
REMARK VINA RESULT: -3.269288894      0.021      1.545
REMARK  2 active torsions:
REMARK  status: ('A' for Active; 'I' for Inactive)
REMARK    1  A    between atoms: C1_4  and  N2_5 
REMARK    2  A    between atoms: N2_5  and  C2_7 
ROOT
HETATM    1  C2  UNL     1      21.325  33.863   5.982  1.00  0.00     0.035 A 
HETATM    2  C3  UNL     1      22.353  33.268   6.683  1.00  0.00     0.046 A 
HETATM    3  C4  UNL     1      22.238  33.001   8.027  1.00  0.00     0.090 A 
HETATM    4  N3  UNL     1      21.136  33.298   8.730  1.00  0.00    -0.375 N 
ATOM      5  H3  UNL     1      21.076  33.091   9.727  1.00  0.00     0.164 HD
HETATM    6  C5  UNL     1      20.113  33.879   8.078  1.00  0.00     0.090 A 
HETATM    7  C6  UNL     1      20.196  34.160   6.736  1.00  0.00     0.046 A 
ENDROOT
BRANCH   1   8
HETATM    8  N2  UNL     1      21.403  34.128   4.720  1.00  0.00    -0.353 N 
ATOM      9  H2  UNL     1      20.692  34.693   4.254  1.00  0.00     0.166 HD
BRANCH   8  10
HETATM   10  C1  UNL     1      22.508  33.604   4.009  1.00  0.00     0.173 C 
HETATM   11  N1  UNL     1      22.436  32.468   3.428  1.00  0.00    -0.395 N 
ATOM     12  H12 UNL     1      21.563  31.944   3.488  1.00  0.00     0.156 HD
ATOM     13  H11 UNL     1      23.233  32.090   2.915  1.00  0.00     0.156 HD
ENDBRANCH   8  10
ENDBRANCH   1   8
TORSDOF 2
ENDMDL
MODEL 3
REMARK VINA RESULT: -2.953616171      1.304      3.345
REMARK  2 active torsions:
REMARK  status: ('A' for Active; 'I' for Inactive)
REMARK    1  A    between atoms: C1_4  and  N2_5 
REMARK    2  A    between atoms: N2_5  and  C2_7 
ROOT
HETATM    1  C2  UNL     1      21.447  33.785   7.046  1.00  0.00     0.035 A 
HETATM    2  C3  UNL     1      20.172  34.246   6.796  1.00  0.00     0.046 A 
HETATM    3  C4  UNL     1      19.749  34.511   5.515  1.00  0.00     0.090 A 
HETATM    4  N3  UNL     1      20.536  34.340   4.444  1.00  0.00    -0.375 N 
ATOM      5  H3  UNL     1      20.198  34.545   3.504  1.00  0.00     0.164 HD
HETATM    6  C5  UNL     1      21.787  33.890   4.650  1.00  0.00     0.090 A 
HETATM    7  C6  UNL     1      22.241  33.616   5.918  1.00  0.00     0.046 A 
ENDROOT
BRANCH   1   8
HETATM    8  N2  UNL     1      21.876  33.527   8.237  1.00  0.00    -0.353 N 
ATOM      9  H2  UNL     1      22.042  34.274   8.913  1.00  0.00     0.166 HD
BRANCH   8  10
HETATM   10  C1  UNL     1      22.106  32.171   8.570  1.00  0.00     0.173 C 
HETATM   11  N1  UNL     1      21.416  31.238   8.034  1.00  0.00    -0.395 N 
ATOM     12  H12 UNL     1      20.694  31.491   7.360  1.00  0.00     0.156 HD
ATOM     13  H11 UNL     1      21.582  30.260   8.274  1.00  0.00     0.156 HD
ENDBRANCH   8  10
ENDBRANCH   1   8
TORSDOF 2
ENDMDL
MODEL 4
REMARK VINA RESULT: -2.901881770      1.317      3.661
REMARK  2 active torsions:
REMARK  status: ('A' for Active; 'I' for Inactive)
REMARK    1  A    between atoms: C1_4  and  N2_5 
REMARK    2  A    between atoms: N2_5  and  C2_7 
ROOT
HETATM    1  C2  UNL     1      21.444  33.782   7.044  1.00  0.00     0.035 A 
HETATM    2  C3  UNL     1      22.230  33.625   5.923  1.00  0.00     0.046 A 
HETATM    3  C4  UNL     1      21.744  33.906   4.667  1.00  0.00     0.090 A 
HETATM    4  N3  UNL     1      20.495  34.344   4.458  1.00  0.00    -0.375 N 
ATOM      5  H3  UNL     1      20.158  34.544   3.516  1.00  0.00     0.164 HD
HETATM    6  C5  UNL     1      19.700  34.510   5.530  1.00  0.00     0.090 A 
HETATM    7  C6  UNL     1      20.155  34.238   6.798  1.00  0.00     0.046 A 
ENDROOT
BRANCH   1   8
HETATM    8  N2  UNL     1      21.870  33.527   8.237  1.00  0.00    -0.353 N 
ATOM      9  H2  UNL     1      22.022  34.274   8.916  1.00  0.00     0.166 HD
BRANCH   8  10
HETATM   10  C1  UNL     1      22.118  32.174   8.567  1.00  0.00     0.173 C 
HETATM   11  N1  UNL     1      21.414  31.235   8.061  1.00  0.00    -0.395 N 
ATOM     12  H12 UNL     1      20.666  31.482   7.412  1.00  0.00     0.156 HD
ATOM     13  H11 UNL     1      21.592  30.259   8.298  1.00  0.00     0.156 HD
ENDBRANCH   8  10
ENDBRANCH   1   8
TORSDOF 2
ENDMDL
MODEL 5
REMARK VINA RESULT: -2.693267472      8.292      9.669
REMARK  2 active torsions:
REMARK  status: ('A' for Active; 'I' for Inactive)
REMARK    1  A    between atoms: C1_4  and  N2_5 
REMARK    2  A    between atoms: N2_5  and  C2_7 
ROOT
HETATM    1  C2  UNL     1      16.401  36.383  13.795  1.00  0.00     0.035 A 
HETATM    2  C3  UNL     1      15.945  35.646  12.722  1.00  0.00     0.046 A 
HETATM    3  C4  UNL     1      14.941  34.718  12.872  1.00  0.00     0.090 A 
HETATM    4  N3  UNL     1      14.352  34.474  14.051  1.00  0.00    -0.375 N 
ATOM      5  H3  UNL     1      13.611  33.780  14.136  1.00  0.00     0.164 HD
HETATM    6  C5  UNL     1      14.772  35.177  15.119  1.00  0.00     0.090 A 
HETATM    7  C6  UNL     1      15.773  36.111  15.003  1.00  0.00     0.046 A 
ENDROOT
BRANCH   1   8
HETATM    8  N2  UNL     1      17.343  37.262  13.687  1.00  0.00    -0.353 N 
ATOM      9  H2  UNL     1      17.250  38.189  14.104  1.00  0.00     0.166 HD
BRANCH   8  10
HETATM   10  C1  UNL     1      18.505  36.891  12.971  1.00  0.00     0.173 C 
HETATM   11  N1  UNL     1      19.352  37.771  12.594  1.00  0.00    -0.395 N 
ATOM     12  H12 UNL     1      19.173  38.749  12.820  1.00  0.00     0.156 HD
ATOM     13  H11 UNL     1      20.191  37.504  12.078  1.00  0.00     0.156 HD
ENDBRANCH   8  10
ENDBRANCH   1   8
TORSDOF 2
ENDMDL
