MODEL 1
REMARK VINA RESULT: -2.598844008      0.000      0.000
REMARK  2 active torsions:
REMARK  status: ('A' for Active; 'I' for Inactive)
REMARK    1  A    between atoms: C5_7  and  C6_8 
REMARK    2  A    between atoms: C6_8  and  N2_9 
ROOT
HETATM    1  C1  UNL     1      19.336  34.687   5.102  1.00  0.00     0.044 C 
HETATM    2  C2  UNL     1      20.204  34.195   5.979  1.00  0.00     0.034 A 
HETATM    3  N1  UNL     1      19.966  33.917   7.291  1.00  0.00    -0.366 N 
ATOM      4  H1  UNL     1      19.073  34.056   7.763  1.00  0.00     0.165 HD
HETATM    5  C3  UNL     1      21.073  33.432   7.872  1.00  0.00     0.089 A 
HETATM    6  C4  UNL     1      22.035  33.409   6.884  1.00  0.00     0.032 A 
HETATM    7  C5  UNL     1      21.508  33.887   5.681  1.00  0.00     0.006 A 
ENDROOT
BRANCH   7   8
HETATM    8  C6  UNL     1      22.155  34.000   4.531  1.00  0.00     0.096 C 
BRANCH   8   9
HETATM    9  N2  UNL     1      22.890  32.927   3.964  1.00  0.00    -0.402 N 
HETATM   10  C7  UNL     1      22.477  32.243   2.751  1.00  0.00     0.145 C 
ATOM     11  H2  UNL     1      23.746  32.622   4.429  1.00  0.00     0.158 HD
ENDBRANCH   8   9
ENDBRANCH   7   8
TORSDOF 2
ENDMDL
MODEL 2
REMARK VINA RESULT: -2.557709591      1.748      2.539
REMARK  2 active torsions:
REMARK  status: ('A' for Active; 'I' for Inactive)
REMARK    1  A    between atoms: C5_7  and  C6_8 
REMARK    2  A    between atoms: C6_8  and  N2_9 
ROOT
HETATM    1  C1  UNL     1      19.287  32.641   8.139  1.00  0.00     0.044 C 
HETATM    2  C2  UNL     1      20.612  32.724   8.180  1.00  0.00     0.034 A 
HETATM    3  N1  UNL     1      21.453  31.969   8.941  1.00  0.00    -0.366 N 
ATOM      4  H1  UNL     1      21.156  31.235   9.583  1.00  0.00     0.165 HD
HETATM    5  C3  UNL     1      22.727  32.329   8.725  1.00  0.00     0.089 A 
HETATM    6  C4  UNL     1      22.676  33.346   7.794  1.00  0.00     0.032 A 
HETATM    7  C5  UNL     1      21.351  33.612   7.437  1.00  0.00     0.006 A 
ENDROOT
BRANCH   7   8
HETATM    8  C6  UNL     1      20.941  34.525   6.569  1.00  0.00     0.096 C 
BRANCH   8   9
HETATM    9  N2  UNL     1      20.840  34.261   5.179  1.00  0.00    -0.402 N 
HETATM   10  C7  UNL     1      22.000  34.128   4.316  1.00  0.00     0.145 C 
ATOM     11  H2  UNL     1      19.911  34.159   4.768  1.00  0.00     0.158 HD
ENDBRANCH   8   9
ENDBRANCH   7   8
TORSDOF 2
ENDMDL
MODEL 3
REMARK VINA RESULT: -1.824306118      1.640      2.632
REMARK  2 active torsions:
REMARK  status: ('A' for Active; 'I' for Inactive)
REMARK    1  A    between atoms: C5_7  and  C6_8 
REMARK    2  A    between atoms: C6_8  and  N2_9 
ROOT
HETATM    1  C1  UNL     1      22.873  32.945   8.088  1.00  0.00     0.044 C 
HETATM    2  C2  UNL     1      21.551  32.967   7.963  1.00  0.00     0.034 A 
HETATM    3  N1  UNL     1      20.653  32.235   8.679  1.00  0.00    -0.366 N 
ATOM      4  H1  UNL     1      20.896  31.569   9.412  1.00  0.00     0.165 HD
HETATM    5  C3  UNL     1      19.402  32.515   8.283  1.00  0.00     0.089 A 
HETATM    6  C4  UNL     1      19.528  33.456   7.283  1.00  0.00     0.032 A 
HETATM    7  C5  UNL     1      20.876  33.756   7.064  1.00  0.00     0.006 A 
ENDROOT
BRANCH   7   8
HETATM    8  C6  UNL     1      21.355  34.616   6.178  1.00  0.00     0.096 C 
BRANCH   8   9
HETATM    9  N2  UNL     1      21.336  34.360   4.783  1.00  0.00    -0.402 N 
HETATM   10  C7  UNL     1      22.433  33.713   4.086  1.00  0.00     0.145 C 
ATOM     11  H2  UNL     1      20.515  34.642   4.246  1.00  0.00     0.158 HD
ENDBRANCH   8   9
ENDBRANCH   7   8
TORSDOF 2
ENDMDL
MODEL 4
REMARK VINA RESULT: -1.791249957      1.133      2.243
REMARK  2 active torsions:
REMARK  status: ('A' for Active; 'I' for Inactive)
REMARK    1  A    between atoms: C5_7  and  C6_8 
REMARK    2  A    between atoms: C6_8  and  N2_9 
ROOT
HETATM    1  C1  UNL     1      22.850  32.797   8.271  1.00  0.00     0.044 C 
HETATM    2  C2  UNL     1      21.673  33.226   7.828  1.00  0.00     0.034 A 
HETATM    3  N1  UNL     1      20.521  33.328   8.546  1.00  0.00    -0.366 N 
ATOM      4  H1  UNL     1      20.424  33.082   9.531  1.00  0.00     0.165 HD
HETATM    5  C3  UNL     1      19.531  33.800   7.774  1.00  0.00     0.089 A 
HETATM    6  C4  UNL     1      20.089  33.998   6.528  1.00  0.00     0.032 A 
HETATM    7  C5  UNL     1      21.441  33.642   6.539  1.00  0.00     0.006 A 
ENDROOT
BRANCH   7   8
HETATM    8  C6  UNL     1      22.278  33.707   5.515  1.00  0.00     0.096 C 
BRANCH   8   9
HETATM    9  N2  UNL     1      21.881  33.396   4.189  1.00  0.00    -0.402 N 
HETATM   10  C7  UNL     1      22.777  32.788   3.221  1.00  0.00     0.145 C 
ATOM     11  H2  UNL     1      20.925  33.609   3.903  1.00  0.00     0.158 HD
ENDBRANCH   8   9
ENDBRANCH   7   8
TORSDOF 2
ENDMDL
MODEL 5
REMARK VINA RESULT: -1.707160548      1.669      3.445
REMARK  2 active torsions:
REMARK  status: ('A' for Active; 'I' for Inactive)
REMARK    1  A    between atoms: C5_7  and  C6_8 
REMARK    2  A    between atoms: C6_8  and  N2_9 
ROOT
HETATM    1  C1  UNL     1      22.575  33.655   4.347  1.00  0.00     0.044 C 
HETATM    2  C2  UNL     1      21.470  33.928   5.031  1.00  0.00     0.034 A 
HETATM    3  N1  UNL     1      20.294  34.392   4.525  1.00  0.00    -0.366 N 
ATOM      4  H1  UNL     1      20.121  34.589   3.539  1.00  0.00     0.165 HD
HETATM    5  C3  UNL     1      19.395  34.554   5.507  1.00  0.00     0.089 A 
HETATM    6  C4  UNL     1      20.037  34.176   6.668  1.00  0.00     0.032 A 
HETATM    7  C5  UNL     1      21.348  33.777   6.391  1.00  0.00     0.006 A 
ENDROOT
BRANCH   7   8
HETATM    8  C6  UNL     1      22.242  33.354   7.271  1.00  0.00     0.096 C 
BRANCH   8   9
HETATM    9  N2  UNL     1      21.992  32.264   8.143  1.00  0.00    -0.402 N 
HETATM   10  C7  UNL     1      22.855  31.938   9.266  1.00  0.00     0.145 C 
ATOM     11  H2  UNL     1      21.170  31.684   7.976  1.00  0.00     0.158 HD
ENDBRANCH   8   9
ENDBRANCH   7   8
TORSDOF 2
ENDMDL
