MODEL 1
REMARK VINA RESULT: -3.453401040      0.000      0.000
REMARK  3 active torsions:
REMARK  status: ('A' for Active; 'I' for Inactive)
REMARK    1  A    between atoms: N1_1  and  C1_5 
REMARK    2  A    between atoms: C1_5  and  C2_6 
REMARK    3  A    between atoms: C2_6  and  N2_7 
ROOT
HETATM    1  C2  UNL     1      21.471  33.826   8.234  1.00  0.00     0.166 C 
ENDROOT
BRANCH   1   2
HETATM    2  C1  UNL     1      22.244  32.506   8.331  1.00  0.00     0.250 C 
BRANCH   2   3
HETATM    3  N1  UNL     1      21.364  31.405   8.071  1.00  0.00    -0.078 N 
ATOM      4  H13 UNL     1      20.401  31.615   8.332  1.00  0.00     0.274 HD
ATOM      5  H12 UNL     1      21.219  31.258   7.073  1.00  0.00     0.274 HD
ATOM      6  H11 UNL     1      21.713  30.565   8.535  1.00  0.00     0.274 HD
ENDBRANCH   2   3
ENDBRANCH   1   2
BRANCH   1   7
HETATM    7  N2  UNL     1      21.060  34.013   6.841  1.00  0.00    -0.298 N 
HETATM    8  C3  UNL     1      19.902  34.349   6.295  1.00  0.00     0.199 A 
HETATM    9  N3  UNL     1      20.300  34.314   5.033  1.00  0.00    -0.308 N 
HETATM   10  S1  UNL     1      21.853  33.885   5.394  1.00  0.00     0.071 SA
ATOM     11  H3  UNL     1      19.820  34.490   4.151  1.00  0.00     0.176 HD
ENDBRANCH   1   7
TORSDOF 3
ENDMDL
MODEL 2
REMARK VINA RESULT: -3.271698921      1.744      3.254
REMARK  3 active torsions:
REMARK  status: ('A' for Active; 'I' for Inactive)
REMARK    1  A    between atoms: N1_1  and  C1_5 
REMARK    2  A    between atoms: C1_5  and  C2_6 
REMARK    3  A    between atoms: C2_6  and  N2_7 
ROOT
HETATM    1  C2  UNL     1      20.382  34.126   6.935  1.00  0.00     0.166 C 
ENDROOT
BRANCH   1   2
HETATM    2  C1  UNL     1      21.199  34.587   5.723  1.00  0.00     0.250 C 
BRANCH   2   3
HETATM    3  N1  UNL     1      21.700  33.449   5.010  1.00  0.00    -0.078 N 
ATOM      4  H13 UNL     1      20.960  32.948   4.519  1.00  0.00     0.274 HD
ATOM      5  H12 UNL     1      22.258  33.720   4.200  1.00  0.00     0.274 HD
ATOM      6  H11 UNL     1      22.218  32.842   5.645  1.00  0.00     0.274 HD
ENDBRANCH   2   3
ENDBRANCH   1   2
BRANCH   1   7
HETATM    7  N2  UNL     1      21.188  33.163   7.688  1.00  0.00    -0.298 N 
HETATM    8  C3  UNL     1      20.991  31.892   8.000  1.00  0.00     0.199 A 
HETATM    9  N3  UNL     1      22.117  31.712   8.671  1.00  0.00    -0.308 N 
HETATM   10  S1  UNL     1      22.652  33.258   8.454  1.00  0.00     0.071 SA
ATOM     11  H3  UNL     1      22.513  30.905   9.152  1.00  0.00     0.176 HD
ENDBRANCH   1   7
TORSDOF 3
ENDMDL
MODEL 3
REMARK VINA RESULT: -3.234021357      1.220      1.220
REMARK  3 active torsions:
REMARK  status: ('A' for Active; 'I' for Inactive)
REMARK    1  A    between atoms: N1_1  and  C1_5 
REMARK    2  A    between atoms: C1_5  and  C2_6 
REMARK    3  A    between atoms: C2_6  and  N2_7 
ROOT
HETATM    1  C2  UNL     1      21.187  33.737   8.163  1.00  0.00     0.166 C 
ENDROOT
BRANCH   1   2
HETATM    2  C1  UNL     1      22.094  32.536   8.450  1.00  0.00     0.250 C 
BRANCH   2   3
HETATM    3  N1  UNL     1      21.438  31.323   8.056  1.00  0.00    -0.078 N 
ATOM      4  H13 UNL     1      21.642  31.075   7.088  1.00  0.00     0.274 HD
ATOM      5  H12 UNL     1      21.844  30.504   8.508  1.00  0.00     0.274 HD
ATOM      6  H11 UNL     1      20.436  31.399   8.230  1.00  0.00     0.274 HD
ENDBRANCH   2   3
ENDBRANCH   1   2
BRANCH   1   7
HETATM    7  N2  UNL     1      21.144  33.941   6.714  1.00  0.00    -0.298 N 
HETATM    8  C3  UNL     1      22.007  33.654   5.752  1.00  0.00     0.199 A 
HETATM    9  N3  UNL     1      21.289  34.124   4.744  1.00  0.00    -0.308 N 
HETATM   10  S1  UNL     1      20.025  34.604   5.691  1.00  0.00     0.071 SA
ATOM     11  H3  UNL     1      21.456  34.173   3.740  1.00  0.00     0.176 HD
ENDBRANCH   1   7
TORSDOF 3
ENDMDL
MODEL 4
REMARK VINA RESULT: -3.049137599      1.837      3.331
REMARK  3 active torsions:
REMARK  status: ('A' for Active; 'I' for Inactive)
REMARK    1  A    between atoms: N1_1  and  C1_5 
REMARK    2  A    between atoms: C1_5  and  C2_6 
REMARK    3  A    between atoms: C2_6  and  N2_7 
ROOT
HETATM    1  C2  UNL     1      20.440  34.168   6.859  1.00  0.00     0.166 C 
ENDROOT
BRANCH   1   2
HETATM    2  C1  UNL     1      21.199  34.557   5.586  1.00  0.00     0.250 C 
BRANCH   2   3
HETATM    3  N1  UNL     1      21.772  33.389   4.983  1.00  0.00    -0.078 N 
ATOM      4  H13 UNL     1      22.775  33.322   5.158  1.00  0.00     0.274 HD
ATOM      5  H12 UNL     1      21.482  32.533   5.455  1.00  0.00     0.274 HD
ATOM      6  H11 UNL     1      21.554  33.369   3.987  1.00  0.00     0.274 HD
ENDBRANCH   2   3
ENDBRANCH   1   2
BRANCH   1   7
HETATM    7  N2  UNL     1      21.343  33.387   7.708  1.00  0.00    -0.298 N 
HETATM    8  C3  UNL     1      22.396  33.730   8.434  1.00  0.00     0.199 A 
HETATM    9  N3  UNL     1      22.673  32.521   8.898  1.00  0.00    -0.308 N 
HETATM   10  S1  UNL     1      21.426  31.784   8.107  1.00  0.00     0.071 SA
ATOM     11  H3  UNL     1      23.399  32.170   9.521  1.00  0.00     0.176 HD
ENDBRANCH   1   7
TORSDOF 3
ENDMDL
MODEL 5
REMARK VINA RESULT: -2.649332649      2.129      3.373
REMARK  3 active torsions:
REMARK  status: ('A' for Active; 'I' for Inactive)
REMARK    1  A    between atoms: N1_1  and  C1_5 
REMARK    2  A    between atoms: C1_5  and  C2_6 
REMARK    3  A    between atoms: C2_6  and  N2_7 
ROOT
HETATM    1  C2  UNL     1      20.892  34.213   5.471  1.00  0.00     0.166 C 
ENDROOT
BRANCH   1   2
HETATM    2  C1  UNL     1      22.162  34.175   4.614  1.00  0.00     0.250 C 
BRANCH   2   3
HETATM    3  N1  UNL     1      22.286  32.895   3.980  1.00  0.00    -0.078 N 
ATOM      4  H13 UNL     1      22.895  32.267   4.504  1.00  0.00     0.274 HD
ATOM      5  H12 UNL     1      21.425  32.353   4.042  1.00  0.00     0.274 HD
ATOM      6  H11 UNL     1      22.595  33.014   3.016  1.00  0.00     0.274 HD
ENDBRANCH   2   3
ENDBRANCH   1   2
BRANCH   1   7
HETATM    7  N2  UNL     1      21.226  33.713   6.805  1.00  0.00    -0.298 N 
HETATM    8  C3  UNL     1      22.363  33.291   7.336  1.00  0.00     0.199 A 
HETATM    9  N3  UNL     1      21.887  33.011   8.539  1.00  0.00    -0.308 N 
HETATM   10  S1  UNL     1      20.342  33.467   8.182  1.00  0.00     0.071 SA
ATOM     11  H3  UNL     1      22.321  32.643   9.385  1.00  0.00     0.176 HD
ENDBRANCH   1   7
TORSDOF 3
ENDMDL
