MODEL 1
REMARK VINA RESULT: -9.062167032      0.000      0.000
REMARK  8 active torsions:
REMARK  status: ('A' for Active; 'I' for Inactive)
REMARK    1  A    between atoms: N1_2  and  C2_3 
REMARK    2  A    between atoms: N1_2  and  C7_20 
REMARK    3  A    between atoms: C2_3  and  C3_4 
REMARK    4  A    between atoms: C4_8  and  C5_9 
REMARK    5  A    between atoms: C5_9  and  O1_10 
REMARK    6  A    between atoms: C6_12  and  N3_13 
REMARK    7  A    between atoms: C6_12  and  O2_17 
REMARK    8  A    between atoms: C9_26  and  N6_27 
ROOT
HETATM    1  C7  UNL     1     -16.184  -7.358  23.760  1.00  0.00     0.686 A 
HETATM    2  N4  UNL     1     -16.167  -7.593  25.094  1.00  0.00    -0.175 N 
ATOM      3  H4  UNL     1     -16.963  -7.269  25.643  1.00  0.00     0.186 HD
HETATM    4  C8  UNL     1     -15.177  -8.220  25.737  1.00  0.00     0.158 A 
HETATM    5  N5  UNL     1     -15.233  -8.425  27.091  1.00  0.00    -0.175 N 
ATOM      6  H5  UNL     1     -16.040  -8.092  27.618  1.00  0.00     0.186 HD
HETATM    7  C9  UNL     1     -14.239  -9.060  27.731  1.00  0.00     0.680 A 
HETATM    8  N7  UNL     1     -13.190  -9.487  27.008  1.00  0.00    -0.155 N 
ATOM      9  H7  UNL     1     -12.430  -9.970  27.489  1.00  0.00     0.187 HD
HETATM   10  C10 UNL     1     -13.096  -9.304  25.669  1.00  0.00     0.279 A 
HETATM   11  O4  UNL     1     -12.124  -9.701  25.000  1.00  0.00    -0.266 OA
HETATM   12  C11 UNL     1     -14.102  -8.657  24.995  1.00  0.00     0.146 A 
HETATM   13  C12 UNL     1     -14.103  -8.428  23.637  1.00  0.00     0.281 A 
HETATM   14  O5  UNL     1     -13.121  -8.824  22.953  1.00  0.00    -0.266 OA
HETATM   15  N8  UNL     1     -15.139  -7.783  23.034  1.00  0.00    -0.151 N 
HETATM   16  C13 UNL     1     -15.095  -7.559  21.600  1.00  0.00     0.179 C 
ENDROOT
BRANCH   1  17
HETATM   17  N1  UNL     1     -17.308  -6.661  23.171  1.00  0.00    -0.217 N 
HETATM   18  C1  UNL     1     -17.090  -5.247  22.932  1.00  0.00     0.169 C 
BRANCH  17  19
HETATM   19  C2  UNL     1     -18.534  -7.282  22.840  1.00  0.00     0.202 C 
BRANCH  19  20
HETATM   20  C3  UNL     1     -18.606  -8.099  21.594  1.00  0.00     0.344 C 
HETATM   21  N2  UNL     1     -18.322  -7.456  20.383  1.00  0.00    -0.034 N 
HETATM   22  C4  UNL     1     -19.397  -7.714  19.446  1.00  0.00     0.304 C 
ATOM     23  H22 UNL     1     -18.145  -6.459  20.505  1.00  0.00     0.281 HD
ATOM     24  H21 UNL     1     -17.410  -7.718  20.009  1.00  0.00     0.281 HD
HETATM   25  C6  UNL     1     -20.370  -8.507  20.249  1.00  0.00     0.366 C 
HETATM   26  O3  UNL     1     -19.918  -8.592  21.531  1.00  0.00    -0.296 OA
BRANCH  22  27
HETATM   27  C5  UNL     1     -20.020  -6.421  18.948  1.00  0.00     0.205 C 
BRANCH  27  28
HETATM   28  O1  UNL     1     -20.570  -6.614  17.669  1.00  0.00    -0.399 OA
ATOM     29  H1  UNL     1     -20.508  -5.811  17.164  1.00  0.00     0.209 HD
ENDBRANCH  27  28
ENDBRANCH  22  27
BRANCH  25  30
HETATM   30  N3  UNL     1     -20.570  -9.825  19.623  1.00  0.00    -0.019 N 
ATOM     31  H33 UNL     1     -21.536 -10.145  19.704  1.00  0.00     0.281 HD
ATOM     32  H32 UNL     1     -20.514  -9.780  18.605  1.00  0.00     0.281 HD
ATOM     33  H31 UNL     1     -19.909 -10.495  20.015  1.00  0.00     0.281 HD
ENDBRANCH  25  30
BRANCH  25  34
HETATM   34  O2  UNL     1     -21.610  -7.871  20.264  1.00  0.00    -0.342 OA
ATOM     35  H2  UNL     1     -22.129  -8.183  20.997  1.00  0.00     0.215 HD
ENDBRANCH  25  34
ENDBRANCH  19  20
ENDBRANCH  17  19
ENDBRANCH   1  17
BRANCH   7  36
HETATM   36  N6  UNL     1     -14.281  -9.273  29.022  1.00  0.00    -0.234 N 
ATOM     37  H62 UNL     1     -14.882  -8.703  29.617  1.00  0.00     0.174 HD
ATOM     38  H61 UNL     1     -13.717 -10.000  29.462  1.00  0.00     0.174 HD
ENDBRANCH   7  36
TORSDOF 8
ENDMDL
MODEL 2
REMARK VINA RESULT: -8.853711032      2.266      3.283
REMARK  8 active torsions:
REMARK  status: ('A' for Active; 'I' for Inactive)
REMARK    1  A    between atoms: N1_2  and  C2_3 
REMARK    2  A    between atoms: N1_2  and  C7_20 
REMARK    3  A    between atoms: C2_3  and  C3_4 
REMARK    4  A    between atoms: C4_8  and  C5_9 
REMARK    5  A    between atoms: C5_9  and  O1_10 
REMARK    6  A    between atoms: C6_12  and  N3_13 
REMARK    7  A    between atoms: C6_12  and  O2_17 
REMARK    8  A    between atoms: C9_26  and  N6_27 
ROOT
HETATM    1  C7  UNL     1     -16.651  -7.427  22.942  1.00  0.00     0.686 A 
HETATM    2  N4  UNL     1     -15.391  -7.922  22.953  1.00  0.00    -0.175 N 
ATOM      3  H4  UNL     1     -14.930  -8.070  22.055  1.00  0.00     0.186 HD
HETATM    4  C8  UNL     1     -14.710  -8.229  24.062  1.00  0.00     0.158 A 
HETATM    5  N5  UNL     1     -13.433  -8.722  23.994  1.00  0.00    -0.175 N 
ATOM      6  H5  UNL     1     -12.995  -8.861  23.084  1.00  0.00     0.186 HD
HETATM    7  C9  UNL     1     -12.753  -9.023  25.111  1.00  0.00     0.680 A 
HETATM    8  N7  UNL     1     -13.358  -8.829  26.295  1.00  0.00    -0.155 N 
ATOM      9  H7  UNL     1     -12.846  -9.056  27.147  1.00  0.00     0.187 HD
HETATM   10  C10 UNL     1     -14.618  -8.343  26.405  1.00  0.00     0.279 A 
HETATM   11  O4  UNL     1     -15.177  -8.162  27.503  1.00  0.00    -0.266 OA
HETATM   12  C11 UNL     1     -15.332  -8.029  25.276  1.00  0.00     0.146 A 
HETATM   13  C12 UNL     1     -16.613  -7.526  25.283  1.00  0.00     0.281 A 
HETATM   14  O5  UNL     1     -17.188  -7.342  26.390  1.00  0.00    -0.266 OA
HETATM   15  N8  UNL     1     -17.259  -7.230  24.122  1.00  0.00    -0.151 N 
HETATM   16  C13 UNL     1     -18.612  -6.706  24.178  1.00  0.00     0.179 C 
ENDROOT
BRANCH   1  17
HETATM   17  N1  UNL     1     -17.295  -7.138  21.678  1.00  0.00    -0.217 N 
HETATM   18  C1  UNL     1     -17.822  -8.297  20.984  1.00  0.00     0.169 C 
BRANCH  17  19
HETATM   19  C2  UNL     1     -17.418  -5.838  21.136  1.00  0.00     0.202 C 
BRANCH  19  20
HETATM   20  C3  UNL     1     -18.783  -5.320  20.830  1.00  0.00     0.344 C 
HETATM   21  N2  UNL     1     -19.810  -6.257  20.678  1.00  0.00    -0.034 N 
HETATM   22  C4  UNL     1     -20.501  -6.004  19.429  1.00  0.00     0.304 C 
ATOM     23  H22 UNL     1     -19.473  -7.217  20.747  1.00  0.00     0.281 HD
ATOM     24  H21 UNL     1     -20.445  -6.271  21.476  1.00  0.00     0.281 HD
HETATM   25  C6  UNL     1     -19.732  -4.877  18.833  1.00  0.00     0.366 C 
HETATM   26  O3  UNL     1     -18.662  -4.602  19.630  1.00  0.00    -0.296 OA
BRANCH  22  27
HETATM   27  C5  UNL     1     -20.476  -7.226  18.526  1.00  0.00     0.205 C 
BRANCH  27  28
HETATM   28  O1  UNL     1     -21.283  -7.005  17.396  1.00  0.00    -0.399 OA
ATOM     29  H1  UNL     1     -21.822  -7.769  17.227  1.00  0.00     0.209 HD
ENDBRANCH  27  28
ENDBRANCH  22  27
BRANCH  25  30
HETATM   30  N3  UNL     1     -20.619  -3.717  18.644  1.00  0.00    -0.019 N 
ATOM     31  H33 UNL     1     -21.118  -3.472  19.499  1.00  0.00     0.281 HD
ATOM     32  H32 UNL     1     -20.097  -2.849  18.523  1.00  0.00     0.281 HD
ATOM     33  H31 UNL     1     -21.255  -3.895  17.866  1.00  0.00     0.281 HD
ENDBRANCH  25  30
BRANCH  25  34
HETATM   34  O2  UNL     1     -19.256  -5.235  17.572  1.00  0.00    -0.342 OA
ATOM     35  H2  UNL     1     -19.969  -5.555  17.032  1.00  0.00     0.215 HD
ENDBRANCH  25  34
ENDBRANCH  19  20
ENDBRANCH  17  19
ENDBRANCH   1  17
BRANCH   7  36
HETATM   36  N6  UNL     1     -11.529  -9.485  25.064  1.00  0.00    -0.234 N 
ATOM     37  H62 UNL     1     -11.206 -10.156  25.761  1.00  0.00     0.174 HD
ATOM     38  H61 UNL     1     -10.872  -9.186  24.344  1.00  0.00     0.174 HD
ENDBRANCH   7  36
TORSDOF 8
ENDMDL
MODEL 3
REMARK VINA RESULT: -8.772552907      4.523      7.982
REMARK  8 active torsions:
REMARK  status: ('A' for Active; 'I' for Inactive)
REMARK    1  A    between atoms: N1_2  and  C2_3 
REMARK    2  A    between atoms: N1_2  and  C7_20 
REMARK    3  A    between atoms: C2_3  and  C3_4 
REMARK    4  A    between atoms: C4_8  and  C5_9 
REMARK    5  A    between atoms: C5_9  and  O1_10 
REMARK    6  A    between atoms: C6_12  and  N3_13 
REMARK    7  A    between atoms: C6_12  and  O2_17 
REMARK    8  A    between atoms: C9_26  and  N6_27 
ROOT
HETATM    1  C7  UNL     1     -20.512  -5.282  22.699  1.00  0.00     0.686 A 
HETATM    2  N4  UNL     1     -21.560  -5.558  21.888  1.00  0.00    -0.175 N 
ATOM      3  H4  UNL     1     -21.755  -6.537  21.679  1.00  0.00     0.186 HD
HETATM    4  C8  UNL     1     -22.357  -4.633  21.342  1.00  0.00     0.158 A 
HETATM    5  N5  UNL     1     -23.404  -4.990  20.534  1.00  0.00    -0.175 N 
ATOM      6  H5  UNL     1     -23.577  -5.976  20.340  1.00  0.00     0.186 HD
HETATM    7  C9  UNL     1     -24.204  -4.057  19.993  1.00  0.00     0.680 A 
HETATM    8  N7  UNL     1     -23.949  -2.767  20.267  1.00  0.00    -0.155 N 
ATOM      9  H7  UNL     1     -24.553  -2.053  19.859  1.00  0.00     0.187 HD
HETATM   10  C10 UNL     1     -22.925  -2.372  21.062  1.00  0.00     0.279 A 
HETATM   11  O4  UNL     1     -22.690  -1.176  21.316  1.00  0.00    -0.266 OA
HETATM   12  C11 UNL     1     -22.094  -3.310  21.624  1.00  0.00     0.146 A 
HETATM   13  C12 UNL     1     -21.033  -3.011  22.448  1.00  0.00     0.281 A 
HETATM   14  O5  UNL     1     -20.787  -1.802  22.708  1.00  0.00    -0.266 OA
HETATM   15  N8  UNL     1     -20.254  -3.994  22.976  1.00  0.00    -0.151 N 
HETATM   16  C13 UNL     1     -19.141  -3.631  23.836  1.00  0.00     0.179 C 
ENDROOT
BRANCH   1  17
HETATM   17  N1  UNL     1     -19.711  -6.366  23.227  1.00  0.00    -0.217 N 
HETATM   18  C1  UNL     1     -20.247  -6.996  24.417  1.00  0.00     0.169 C 
BRANCH  17  19
HETATM   19  C2  UNL     1     -18.497  -6.802  22.647  1.00  0.00     0.202 C 
BRANCH  19  20
HETATM   20  C3  UNL     1     -18.557  -7.740  21.489  1.00  0.00     0.344 C 
HETATM   21  N2  UNL     1     -18.359  -7.202  20.212  1.00  0.00    -0.034 N 
HETATM   22  C4  UNL     1     -19.446  -7.619  19.349  1.00  0.00     0.304 C 
ATOM     23  H22 UNL     1     -18.246  -6.189  20.231  1.00  0.00     0.281 HD
ATOM     24  H21 UNL     1     -17.445  -7.441  19.827  1.00  0.00     0.281 HD
HETATM   25  C6  UNL     1     -20.334  -8.390  20.262  1.00  0.00     0.366 C 
HETATM   26  O3  UNL     1     -19.834  -8.320  21.527  1.00  0.00    -0.296 OA
BRANCH  22  27
HETATM   27  C5  UNL     1     -20.171  -6.423  18.755  1.00  0.00     0.205 C 
BRANCH  27  28
HETATM   28  O1  UNL     1     -20.796  -6.789  17.551  1.00  0.00    -0.399 OA
ATOM     29  H1  UNL     1     -20.205  -7.312  17.022  1.00  0.00     0.209 HD
ENDBRANCH  27  28
ENDBRANCH  22  27
BRANCH  25  30
HETATM   30  N3  UNL     1     -20.467  -9.772  19.773  1.00  0.00    -0.019 N 
ATOM     31  H33 UNL     1     -19.569 -10.171  19.500  1.00  0.00     0.281 HD
ATOM     32  H32 UNL     1     -20.696 -10.425  20.524  1.00  0.00     0.281 HD
ATOM     33  H31 UNL     1     -21.149  -9.805  19.015  1.00  0.00     0.281 HD
ENDBRANCH  25  30
BRANCH  25  34
HETATM   34  O2  UNL     1     -21.614  -7.836  20.266  1.00  0.00    -0.342 OA
ATOM     35  H2  UNL     1     -21.564  -6.899  20.419  1.00  0.00     0.215 HD
ENDBRANCH  25  34
ENDBRANCH  19  20
ENDBRANCH  17  19
ENDBRANCH   1  17
BRANCH   7  36
HETATM   36  N6  UNL     1     -25.214  -4.382  19.227  1.00  0.00    -0.234 N 
ATOM     37  H62 UNL     1     -25.277  -5.319  18.829  1.00  0.00     0.174 HD
ATOM     38  H61 UNL     1     -25.951  -3.713  19.003  1.00  0.00     0.174 HD
ENDBRANCH   7  36
TORSDOF 8
ENDMDL
MODEL 4
REMARK VINA RESULT: -8.600821446      2.072      3.155
REMARK  8 active torsions:
REMARK  status: ('A' for Active; 'I' for Inactive)
REMARK    1  A    between atoms: N1_2  and  C2_3 
REMARK    2  A    between atoms: N1_2  and  C7_20 
REMARK    3  A    between atoms: C2_3  and  C3_4 
REMARK    4  A    between atoms: C4_8  and  C5_9 
REMARK    5  A    between atoms: C5_9  and  O1_10 
REMARK    6  A    between atoms: C6_12  and  N3_13 
REMARK    7  A    between atoms: C6_12  and  O2_17 
REMARK    8  A    between atoms: C9_26  and  N6_27 
ROOT
HETATM    1  C7  UNL     1     -16.456  -6.168  23.627  1.00  0.00     0.686 A 
HETATM    2  N4  UNL     1     -15.398  -5.772  22.880  1.00  0.00    -0.175 N 
ATOM      3  H4  UNL     1     -15.586  -5.221  22.043  1.00  0.00     0.186 HD
HETATM    4  C8  UNL     1     -14.123  -6.056  23.168  1.00  0.00     0.158 A 
HETATM    5  N5  UNL     1     -13.103  -5.615  22.366  1.00  0.00    -0.175 N 
ATOM      6  H5  UNL     1     -13.318  -5.065  21.534  1.00  0.00     0.186 HD
HETATM    7  C9  UNL     1     -11.825  -5.897  22.662  1.00  0.00     0.680 A 
HETATM    8  N7  UNL     1     -11.575  -6.623  23.765  1.00  0.00    -0.155 N 
ATOM      9  H7  UNL     1     -10.605  -6.842  23.995  1.00  0.00     0.187 HD
HETATM   10  C10 UNL     1     -12.554  -7.077  24.584  1.00  0.00     0.279 A 
HETATM   11  O4  UNL     1     -12.321  -7.749  25.606  1.00  0.00    -0.266 OA
HETATM   12  C11 UNL     1     -13.868  -6.800  24.299  1.00  0.00     0.146 A 
HETATM   13  C12 UNL     1     -14.932  -7.211  25.070  1.00  0.00     0.281 A 
HETATM   14  O5  UNL     1     -14.705  -7.894  26.105  1.00  0.00    -0.266 OA
HETATM   15  N8  UNL     1     -16.211  -6.893  24.730  1.00  0.00    -0.151 N 
HETATM   16  C13 UNL     1     -17.302  -7.352  25.570  1.00  0.00     0.179 C 
ENDROOT
BRANCH   1  17
HETATM   17  N1  UNL     1     -17.797  -5.810  23.214  1.00  0.00    -0.217 N 
HETATM   18  C1  UNL     1     -18.044  -4.384  23.119  1.00  0.00     0.169 C 
BRANCH  17  19
HETATM   19  C2  UNL     1     -18.807  -6.753  22.918  1.00  0.00     0.202 C 
BRANCH  19  20
HETATM   20  C3  UNL     1     -18.649  -7.610  21.707  1.00  0.00     0.344 C 
HETATM   21  N2  UNL     1     -18.342  -6.971  20.499  1.00  0.00    -0.034 N 
HETATM   22  C4  UNL     1     -19.279  -7.406  19.482  1.00  0.00     0.304 C 
ATOM     23  H22 UNL     1     -18.316  -5.956  20.593  1.00  0.00     0.281 HD
ATOM     24  H21 UNL     1     -17.372  -7.115  20.219  1.00  0.00     0.281 HD
HETATM   25  C6  UNL     1     -20.206  -8.302  20.228  1.00  0.00     0.366 C 
HETATM   26  O3  UNL     1     -19.870  -8.283  21.549  1.00  0.00    -0.296 OA
BRANCH  22  27
HETATM   27  C5  UNL     1     -20.022  -6.228  18.875  1.00  0.00     0.205 C 
BRANCH  27  28
HETATM   28  O1  UNL     1     -20.524  -6.577  17.609  1.00  0.00    -0.399 OA
ATOM     29  H1  UNL     1     -20.492  -7.520  17.495  1.00  0.00     0.209 HD
ENDBRANCH  27  28
ENDBRANCH  22  27
BRANCH  25  30
HETATM   30  N3  UNL     1     -20.165  -9.653  19.645  1.00  0.00    -0.019 N 
ATOM     31  H33 UNL     1     -19.481  -9.726  18.892  1.00  0.00     0.281 HD
ATOM     32  H32 UNL     1     -19.755 -10.335  20.283  1.00  0.00     0.281 HD
ATOM     33  H31 UNL     1     -21.100  -9.924  19.342  1.00  0.00     0.281 HD
ENDBRANCH  25  30
BRANCH  25  34
HETATM   34  O2  UNL     1     -21.518  -7.845  20.105  1.00  0.00    -0.342 OA
ATOM     35  H2  UNL     1     -22.015  -8.066  20.884  1.00  0.00     0.215 HD
ENDBRANCH  25  34
ENDBRANCH  19  20
ENDBRANCH  17  19
ENDBRANCH   1  17
BRANCH   7  36
HETATM   36  N6  UNL     1     -10.839  -5.476  21.912  1.00  0.00    -0.234 N 
ATOM     37  H62 UNL     1     -10.159  -4.811  22.283  1.00  0.00     0.174 HD
ATOM     38  H61 UNL     1     -10.729  -5.789  20.948  1.00  0.00     0.174 HD
ENDBRANCH   7  36
TORSDOF 8
ENDMDL
MODEL 5
REMARK VINA RESULT: -8.554918207      2.777      8.577
REMARK  8 active torsions:
REMARK  status: ('A' for Active; 'I' for Inactive)
REMARK    1  A    between atoms: N1_2  and  C2_3 
REMARK    2  A    between atoms: N1_2  and  C7_20 
REMARK    3  A    between atoms: C2_3  and  C3_4 
REMARK    4  A    between atoms: C4_8  and  C5_9 
REMARK    5  A    between atoms: C5_9  and  O1_10 
REMARK    6  A    between atoms: C6_12  and  N3_13 
REMARK    7  A    between atoms: C6_12  and  O2_17 
REMARK    8  A    between atoms: C9_26  and  N6_27 
ROOT
HETATM    1  C7  UNL     1     -18.333  -6.389  20.592  1.00  0.00     0.686 A 
HETATM    2  N4  UNL     1     -18.703  -5.284  19.901  1.00  0.00    -0.175 N 
ATOM      3  H4  UNL     1     -17.965  -4.698  19.512  1.00  0.00     0.186 HD
HETATM    4  C8  UNL     1     -19.970  -4.911  19.695  1.00  0.00     0.158 A 
HETATM    5  N5  UNL     1     -20.267  -3.781  18.980  1.00  0.00    -0.175 N 
ATOM      6  H5  UNL     1     -19.510  -3.211  18.601  1.00  0.00     0.186 HD
HETATM    7  C9  UNL     1     -21.541  -3.415  18.771  1.00  0.00     0.680 A 
HETATM    8  N7  UNL     1     -22.515  -4.186  19.283  1.00  0.00    -0.155 N 
ATOM      9  H7  UNL     1     -23.485  -3.912  19.128  1.00  0.00     0.187 HD
HETATM   10  C10 UNL     1     -22.264  -5.311  19.995  1.00  0.00     0.279 A 
HETATM   11  O4  UNL     1     -23.167  -6.025  20.468  1.00  0.00    -0.266 OA
HETATM   12  C11 UNL     1     -20.968  -5.704  20.220  1.00  0.00     0.146 A 
HETATM   13  C12 UNL     1     -20.611  -6.831  20.925  1.00  0.00     0.281 A 
HETATM   14  O5  UNL     1     -21.519  -7.559  21.409  1.00  0.00    -0.266 OA
HETATM   15  N8  UNL     1     -19.303  -7.163  21.104  1.00  0.00    -0.151 N 
HETATM   16  C13 UNL     1     -18.973  -8.359  21.859  1.00  0.00     0.179 C 
ENDROOT
BRANCH   1  17
HETATM   17  N1  UNL     1     -16.927  -6.691  20.760  1.00  0.00    -0.217 N 
HETATM   18  C1  UNL     1     -16.289  -7.284  19.601  1.00  0.00     0.169 C 
BRANCH  17  19
HETATM   19  C2  UNL     1     -16.204  -6.436  21.947  1.00  0.00     0.202 C 
BRANCH  19  20
HETATM   20  C3  UNL     1     -14.800  -6.930  22.047  1.00  0.00     0.344 C 
HETATM   21  N2  UNL     1     -14.593  -8.166  22.668  1.00  0.00    -0.034 N 
HETATM   22  C4  UNL     1     -13.577  -8.018  23.691  1.00  0.00     0.304 C 
ATOM     23  H22 UNL     1     -15.457  -8.566  23.035  1.00  0.00     0.281 HD
ATOM     24  H21 UNL     1     -14.367  -8.904  22.001  1.00  0.00     0.281 HD
HETATM   25  C6  UNL     1     -13.264  -6.563  23.657  1.00  0.00     0.366 C 
HETATM   26  O3  UNL     1     -14.098  -5.953  22.770  1.00  0.00    -0.296 OA
BRANCH  22  27
HETATM   27  C5  UNL     1     -14.099  -8.437  25.055  1.00  0.00     0.205 C 
BRANCH  27  28
HETATM   28  O1  UNL     1     -15.454  -8.087  25.180  1.00  0.00    -0.399 OA
ATOM     29  H1  UNL     1     -15.798  -7.812  24.338  1.00  0.00     0.209 HD
ENDBRANCH  27  28
ENDBRANCH  22  27
BRANCH  25  30
HETATM   30  N3  UNL     1     -11.841  -6.370  23.332  1.00  0.00    -0.019 N 
ATOM     31  H33 UNL     1     -11.499  -5.457  23.633  1.00  0.00     0.281 HD
ATOM     32  H32 UNL     1     -11.233  -6.953  23.908  1.00  0.00     0.281 HD
ATOM     33  H31 UNL     1     -11.692  -6.527  22.335  1.00  0.00     0.281 HD
ENDBRANCH  25  30
BRANCH  25  34
HETATM   34  O2  UNL     1     -13.474  -5.998  24.914  1.00  0.00    -0.342 OA
ATOM     35  H2  UNL     1     -12.902  -6.404  25.555  1.00  0.00     0.215 HD
ENDBRANCH  25  34
ENDBRANCH  19  20
ENDBRANCH  17  19
ENDBRANCH   1  17
BRANCH   7  36
HETATM   36  N6  UNL     1     -21.842  -2.343  18.082  1.00  0.00    -0.234 N 
ATOM     37  H62 UNL     1     -21.159  -1.935  17.444  1.00  0.00     0.174 HD
ATOM     38  H61 UNL     1     -22.751  -1.890  18.169  1.00  0.00     0.174 HD
ENDBRANCH   7  36
TORSDOF 8
ENDMDL
