MODEL 1
REMARK VINA RESULT: -6.553875229      0.000      0.000
REMARK  8 active torsions:
REMARK  status: ('A' for Active; 'I' for Inactive)
REMARK    1  A    between atoms: C2_2  and  N1_3 
REMARK    2  A    between atoms: C2_2  and  C3_7 
REMARK       I    between atoms: C3_7  and  N2_9 
REMARK    3  A    between atoms: N2_9  and  C4_11 
REMARK    4  A    between atoms: C4_11  and  C5_12 
REMARK    5  A    between atoms: C4_11  and  C21_36 
REMARK       I    between atoms: C5_12  and  N3_14 
REMARK    6  A    between atoms: N3_14  and  C6_16 
REMARK    7  A    between atoms: N4_21  and  O3_22 
REMARK    8  A    between atoms: C12_25  and  N5_27 
ROOT
HETATM    1  C6  UNL     1      -0.034   0.751  21.675  1.00  0.00     0.123 C 
HETATM    2  C7  UNL     1      -0.032   0.047  23.026  1.00  0.00     0.054 C 
HETATM    3  C8  UNL     1       1.170  -0.769  23.305  1.00  0.00     0.033 C 
HETATM    4  C9  UNL     1       0.735  -2.042  24.011  1.00  0.00     0.034 C 
HETATM    5  C10 UNL     1       2.164  -0.097  24.251  1.00  0.00     0.034 C 
HETATM    6  N4  UNL     1       1.875  -1.017  22.082  1.00  0.00    -0.188 NA
HETATM    7  C11 UNL     1       0.860  -1.407  21.085  1.00  0.00     0.162 C 
HETATM    8  C12 UNL     1       0.354  -0.059  20.520  1.00  0.00     0.160 C 
HETATM    9  C13 UNL     1       1.609   0.511  19.872  1.00  0.00     0.050 C 
ENDROOT
BRANCH   1  10
HETATM   10  N3  UNL     1      -1.222   1.537  21.650  1.00  0.00    -0.352 N 
HETATM   11  C5  UNL     1      -1.230   2.971  21.431  1.00  0.00     0.241 C 
HETATM   12  O2  UNL     1      -0.113   3.499  21.249  1.00  0.00    -0.271 OA
ATOM     13  H3  UNL     1      -2.115   1.066  21.793  1.00  0.00     0.163 HD
BRANCH  11  14
HETATM   14  C4  UNL     1      -2.431   3.795  21.404  1.00  0.00     0.180 C 
BRANCH  14  15
HETATM   15  N2  UNL     1      -2.059   5.154  21.005  1.00  0.00    -0.346 N 
HETATM   16  C3  UNL     1      -2.793   5.749  19.942  1.00  0.00     0.248 C 
HETATM   17  O1  UNL     1      -3.732   5.118  19.384  1.00  0.00    -0.271 OA
ATOM     18  H2  UNL     1      -1.302   5.654  21.472  1.00  0.00     0.163 HD
BRANCH  16  19
HETATM   19  C2  UNL     1      -2.523   7.108  19.421  1.00  0.00     0.270 C 
HETATM   20  C1  UNL     1      -1.132   7.515  19.878  1.00  0.00     0.050 C 
BRANCH  19  21
HETATM   21  N1  UNL     1      -3.552   8.007  19.853  1.00  0.00    -0.067 N 
ATOM     22  H13 UNL     1      -4.141   7.567  20.560  1.00  0.00     0.275 HD
ATOM     23  H12 UNL     1      -3.158   8.766  20.409  1.00  0.00     0.275 HD
ATOM     24  H11 UNL     1      -4.118   8.374  19.089  1.00  0.00     0.275 HD
ENDBRANCH  19  21
ENDBRANCH  16  19
ENDBRANCH  14  15
BRANCH  14  25
HETATM   25  C21 UNL     1      -3.051   3.951  22.789  1.00  0.00     0.009 C 
HETATM   26  C22 UNL     1      -4.545   3.930  22.760  1.00  0.00     0.012 C 
HETATM   27  C23 UNL     1      -2.559   5.158  23.513  1.00  0.00     0.012 C 
ENDBRANCH  14  25
ENDBRANCH  11  14
ENDBRANCH   1  10
BRANCH   8  28
HETATM   28  N5  UNL     1      -0.581  -0.351  19.476  1.00  0.00    -0.056 N 
HETATM   29  C14 UNL     1      -1.954  -0.467  19.975  1.00  0.00     0.273 C 
HETATM   30  C15 UNL     1      -0.540   0.458  18.317  1.00  0.00     0.266 C 
HETATM   31  C16 UNL     1       0.059  -0.146  17.075  1.00  0.00     0.264 C 
HETATM   32  N6  UNL     1      -0.530  -1.352  16.640  1.00  0.00    -0.071 N 
HETATM   33  C17 UNL     1      -1.585  -1.159  15.648  1.00  0.00     0.272 C 
HETATM   34  C18 UNL     1       0.487  -2.158  15.988  1.00  0.00     0.272 C 
HETATM   35  C19 UNL     1      -1.057  -2.077  17.762  1.00  0.00     0.264 C 
HETATM   36  C20 UNL     1      -0.295  -1.723  19.022  1.00  0.00     0.266 C 
ENDBRANCH   8  28
BRANCH   6  37
HETATM   37  O3  UNL     1       2.634  -2.132  22.287  1.00  0.00    -0.312 OA
ATOM     38  H3  UNL     1       2.063  -2.780  22.685  1.00  0.00     0.237 HD
ENDBRANCH   6  37
TORSDOF 8
ENDMDL
MODEL 2
REMARK VINA RESULT: -6.549312433      2.303      2.976
REMARK  8 active torsions:
REMARK  status: ('A' for Active; 'I' for Inactive)
REMARK    1  A    between atoms: C2_2  and  N1_3 
REMARK    2  A    between atoms: C2_2  and  C3_7 
REMARK       I    between atoms: C3_7  and  N2_9 
REMARK    3  A    between atoms: N2_9  and  C4_11 
REMARK    4  A    between atoms: C4_11  and  C5_12 
REMARK    5  A    between atoms: C4_11  and  C21_36 
REMARK       I    between atoms: C5_12  and  N3_14 
REMARK    6  A    between atoms: N3_14  and  C6_16 
REMARK    7  A    between atoms: N4_21  and  O3_22 
REMARK    8  A    between atoms: C12_25  and  N5_27 
ROOT
HETATM    1  C6  UNL     1       0.488  -0.568  19.310  1.00  0.00     0.123 C 
HETATM    2  C7  UNL     1       1.511  -0.913  20.384  1.00  0.00     0.054 C 
HETATM    3  C8  UNL     1       2.632  -1.764  19.930  1.00  0.00     0.033 C 
HETATM    4  C9  UNL     1       2.951  -2.766  21.026  1.00  0.00     0.034 C 
HETATM    5  C10 UNL     1       3.931  -0.995  19.691  1.00  0.00     0.034 C 
HETATM    6  N4  UNL     1       2.290  -2.382  18.683  1.00  0.00    -0.188 NA
HETATM    7  C11 UNL     1       0.913  -2.890  18.832  1.00  0.00     0.162 C 
HETATM    8  C12 UNL     1       0.026  -1.675  18.472  1.00  0.00     0.160 C 
HETATM    9  C13 UNL     1       0.393  -1.426  17.016  1.00  0.00     0.050 C 
ENDROOT
BRANCH   1  10
HETATM   10  N3  UNL     1      -0.442   0.316  19.931  1.00  0.00    -0.352 N 
HETATM   11  C5  UNL     1      -0.788   1.620  19.397  1.00  0.00     0.241 C 
HETATM   12  O2  UNL     1      -0.224   1.937  18.329  1.00  0.00    -0.271 OA
ATOM     13  H3  UNL     1      -0.889   0.016  20.797  1.00  0.00     0.163 HD
BRANCH  11  14
HETATM   14  C4  UNL     1      -1.733   2.540  20.016  1.00  0.00     0.180 C 
BRANCH  14  15
HETATM   15  N2  UNL     1      -1.059   3.820  20.244  1.00  0.00    -0.346 N 
HETATM   16  C3  UNL     1      -1.779   5.005  19.928  1.00  0.00     0.248 C 
HETATM   17  O1  UNL     1      -2.956   4.936  19.478  1.00  0.00    -0.271 OA
ATOM     18  H2  UNL     1      -0.110   3.860  20.616  1.00  0.00     0.163 HD
BRANCH  16  19
HETATM   19  C2  UNL     1      -1.225   6.369  20.092  1.00  0.00     0.270 C 
HETATM   20  C1  UNL     1      -1.944   7.284  19.114  1.00  0.00     0.050 C 
BRANCH  19  21
HETATM   21  N1  UNL     1       0.195   6.340  19.909  1.00  0.00    -0.067 N 
ATOM     22  H13 UNL     1       0.553   5.390  20.006  1.00  0.00     0.275 HD
ATOM     23  H12 UNL     1       0.438   6.514  18.933  1.00  0.00     0.275 HD
ATOM     24  H11 UNL     1       0.697   6.979  20.525  1.00  0.00     0.275 HD
ENDBRANCH  19  21
ENDBRANCH  16  19
ENDBRANCH  14  15
BRANCH  14  25
HETATM   25  C21 UNL     1      -2.165   2.074  21.403  1.00  0.00     0.009 C 
HETATM   26  C22 UNL     1      -3.639   2.186  21.618  1.00  0.00     0.012 C 
HETATM   27  C23 UNL     1      -1.422   2.755  22.502  1.00  0.00     0.012 C 
ENDBRANCH  14  25
ENDBRANCH  11  14
ENDBRANCH   1  10
BRANCH   8  28
HETATM   28  N5  UNL     1      -1.338  -2.108  18.509  1.00  0.00    -0.056 N 
HETATM   29  C14 UNL     1      -1.808  -2.353  19.876  1.00  0.00     0.273 C 
HETATM   30  C15 UNL     1      -2.285  -1.348  17.787  1.00  0.00     0.266 C 
HETATM   31  C16 UNL     1      -2.804  -1.932  16.500  1.00  0.00     0.264 C 
HETATM   32  N6  UNL     1      -3.388  -3.212  16.605  1.00  0.00    -0.071 N 
HETATM   33  C17 UNL     1      -4.837  -3.175  16.796  1.00  0.00     0.272 C 
HETATM   34  C18 UNL     1      -3.169  -3.928  15.361  1.00  0.00     0.272 C 
HETATM   35  C19 UNL     1      -2.784  -3.944  17.683  1.00  0.00     0.264 C 
HETATM   36  C20 UNL     1      -1.369  -3.459  17.921  1.00  0.00     0.266 C 
ENDBRANCH   8  28
BRANCH   6  37
HETATM   37  O3  UNL     1       3.078  -3.490  18.567  1.00  0.00    -0.312 OA
ATOM     38  H3  UNL     1       2.657  -4.057  17.931  1.00  0.00     0.237 HD
ENDBRANCH   6  37
TORSDOF 8
ENDMDL
MODEL 3
REMARK VINA RESULT: -6.540109386      2.866      5.980
REMARK  8 active torsions:
REMARK  status: ('A' for Active; 'I' for Inactive)
REMARK    1  A    between atoms: C2_2  and  N1_3 
REMARK    2  A    between atoms: C2_2  and  C3_7 
REMARK       I    between atoms: C3_7  and  N2_9 
REMARK    3  A    between atoms: N2_9  and  C4_11 
REMARK    4  A    between atoms: C4_11  and  C5_12 
REMARK    5  A    between atoms: C4_11  and  C21_36 
REMARK       I    between atoms: C5_12  and  N3_14 
REMARK    6  A    between atoms: N3_14  and  C6_16 
REMARK    7  A    between atoms: N4_21  and  O3_22 
REMARK    8  A    between atoms: C12_25  and  N5_27 
ROOT
HETATM    1  C6  UNL     1      -0.541   1.972  21.601  1.00  0.00     0.123 C 
HETATM    2  C7  UNL     1       0.027   0.612  21.219  1.00  0.00     0.054 C 
HETATM    3  C8  UNL     1       0.477   0.494  19.814  1.00  0.00     0.033 C 
HETATM    4  C9  UNL     1       0.091  -0.882  19.299  1.00  0.00     0.034 C 
HETATM    5  C10 UNL     1       1.993   0.584  19.643  1.00  0.00     0.034 C 
HETATM    6  N4  UNL     1      -0.083   1.563  19.041  1.00  0.00    -0.188 NA
HETATM    7  C11 UNL     1      -1.507   1.651  19.418  1.00  0.00     0.162 C 
HETATM    8  C12 UNL     1      -1.506   2.558  20.671  1.00  0.00     0.160 C 
HETATM    9  C13 UNL     1      -0.975   3.874  20.116  1.00  0.00     0.050 C 
ENDROOT
BRANCH   1  10
HETATM   10  N3  UNL     1      -0.826   1.895  22.996  1.00  0.00    -0.352 N 
HETATM   11  C5  UNL     1      -0.293   2.822  23.975  1.00  0.00     0.241 C 
HETATM   12  O2  UNL     1       0.441   3.727  23.525  1.00  0.00    -0.271 OA
ATOM     13  H3  UNL     1      -1.437   1.147  23.322  1.00  0.00     0.163 HD
BRANCH  11  14
HETATM   14  C4  UNL     1      -0.568   2.760  25.405  1.00  0.00     0.180 C 
BRANCH  14  15
HETATM   15  N2  UNL     1      -0.934   4.100  25.870  1.00  0.00    -0.346 N 
HETATM   16  C3  UNL     1      -2.315   4.364  26.082  1.00  0.00     0.248 C 
HETATM   17  O1  UNL     1      -3.176   3.464  25.881  1.00  0.00    -0.271 OA
ATOM     18  H2  UNL     1      -0.226   4.815  26.036  1.00  0.00     0.163 HD
BRANCH  16  19
HETATM   19  C2  UNL     1      -2.838   5.673  26.537  1.00  0.00     0.270 C 
HETATM   20  C1  UNL     1      -2.119   6.040  27.825  1.00  0.00     0.050 C 
BRANCH  19  21
HETATM   21  N1  UNL     1      -4.262   5.604  26.678  1.00  0.00    -0.067 N 
ATOM     22  H13 UNL     1      -4.709   5.471  25.771  1.00  0.00     0.275 HD
ATOM     23  H12 UNL     1      -4.538   4.733  27.133  1.00  0.00     0.275 HD
ATOM     24  H11 UNL     1      -4.662   6.407  27.163  1.00  0.00     0.275 HD
ENDBRANCH  19  21
ENDBRANCH  16  19
ENDBRANCH  14  15
BRANCH  14  25
HETATM   25  C21 UNL     1       0.672   2.392  26.213  1.00  0.00     0.009 C 
HETATM   26  C22 UNL     1       1.406   1.221  25.645  1.00  0.00     0.012 C 
HETATM   27  C23 UNL     1       0.381   2.175  27.659  1.00  0.00     0.012 C 
ENDBRANCH  14  25
ENDBRANCH  11  14
ENDBRANCH   1  10
BRANCH   8  28
HETATM   28  N5  UNL     1      -2.869   2.767  21.055  1.00  0.00    -0.056 N 
HETATM   29  C14 UNL     1      -3.711   1.600  20.777  1.00  0.00     0.273 C 
HETATM   30  C15 UNL     1      -3.113   3.256  22.359  1.00  0.00     0.266 C 
HETATM   31  C16 UNL     1      -3.525   4.698  22.489  1.00  0.00     0.264 C 
HETATM   32  N6  UNL     1      -4.671   5.072  21.754  1.00  0.00    -0.071 N 
HETATM   33  C17 UNL     1      -5.910   4.983  22.525  1.00  0.00     0.272 C 
HETATM   34  C18 UNL     1      -4.541   6.466  21.367  1.00  0.00     0.272 C 
HETATM   35  C19 UNL     1      -4.785   4.263  20.573  1.00  0.00     0.264 C 
HETATM   36  C20 UNL     1      -3.420   3.776  20.134  1.00  0.00     0.266 C 
ENDBRANCH   8  28
BRANCH   6  37
HETATM   37  O3  UNL     1      -0.075   1.150  17.740  1.00  0.00    -0.312 OA
ATOM     38  H3  UNL     1      -0.865   1.495  17.340  1.00  0.00     0.237 HD
ENDBRANCH   6  37
TORSDOF 8
ENDMDL
MODEL 4
REMARK VINA RESULT: -6.492621654      2.872      6.989
REMARK  8 active torsions:
REMARK  status: ('A' for Active; 'I' for Inactive)
REMARK    1  A    between atoms: C2_2  and  N1_3 
REMARK    2  A    between atoms: C2_2  and  C3_7 
REMARK       I    between atoms: C3_7  and  N2_9 
REMARK    3  A    between atoms: N2_9  and  C4_11 
REMARK    4  A    between atoms: C4_11  and  C5_12 
REMARK    5  A    between atoms: C4_11  and  C21_36 
REMARK       I    between atoms: C5_12  and  N3_14 
REMARK    6  A    between atoms: N3_14  and  C6_16 
REMARK    7  A    between atoms: N4_21  and  O3_22 
REMARK    8  A    between atoms: C12_25  and  N5_27 
ROOT
HETATM    1  C6  UNL     1      -0.703   0.428  18.772  1.00  0.00     0.123 C 
HETATM    2  C7  UNL     1      -1.832   1.158  19.487  1.00  0.00     0.054 C 
HETATM    3  C8  UNL     1      -1.404   2.293  20.334  1.00  0.00     0.033 C 
HETATM    4  C9  UNL     1      -2.242   2.290  21.601  1.00  0.00     0.034 C 
HETATM    5  C10 UNL     1      -1.637   3.661  19.695  1.00  0.00     0.034 C 
HETATM    6  N4  UNL     1       0.003   2.197  20.589  1.00  0.00    -0.188 NA
HETATM    7  C11 UNL     1       0.269   0.790  20.945  1.00  0.00     0.162 C 
HETATM    8  C12 UNL     1       0.468   0.091  19.580  1.00  0.00     0.160 C 
HETATM    9  C13 UNL     1       1.706   0.790  19.036  1.00  0.00     0.050 C 
ENDROOT
BRANCH   1  10
HETATM   10  N3  UNL     1      -1.335  -0.556  17.956  1.00  0.00    -0.352 N 
HETATM   11  C5  UNL     1      -0.965  -0.811  16.576  1.00  0.00     0.241 C 
HETATM   12  O2  UNL     1      -0.032  -0.114  16.126  1.00  0.00    -0.271 OA
ATOM     13  H3  UNL     1      -2.087  -1.111  18.364  1.00  0.00     0.163 HD
BRANCH  11  14
HETATM   14  C4  UNL     1      -1.599  -1.808  15.724  1.00  0.00     0.180 C 
BRANCH  14  15
HETATM   15  N2  UNL     1      -2.099  -2.896  16.567  1.00  0.00    -0.346 N 
HETATM   16  C3  UNL     1      -3.449  -2.816  17.007  1.00  0.00     0.248 C 
HETATM   17  O1  UNL     1      -4.175  -1.843  16.665  1.00  0.00    -0.271 OA
ATOM     18  H2  UNL     1      -1.501  -3.681  16.829  1.00  0.00     0.163 HD
BRANCH  16  19
HETATM   19  C2  UNL     1      -4.089  -3.832  17.874  1.00  0.00     0.270 C 
HETATM   20  C1  UNL     1      -5.542  -3.429  18.068  1.00  0.00     0.050 C 
BRANCH  19  21
HETATM   21  N1  UNL     1      -3.360  -3.950  19.102  1.00  0.00    -0.067 N 
ATOM     22  H13 UNL     1      -2.858  -3.087  19.308  1.00  0.00     0.275 HD
ATOM     23  H12 UNL     1      -3.997  -3.971  19.899  1.00  0.00     0.275 HD
ATOM     24  H11 UNL     1      -2.728  -4.750  19.124  1.00  0.00     0.275 HD
ENDBRANCH  19  21
ENDBRANCH  16  19
ENDBRANCH  14  15
BRANCH  14  25
HETATM   25  C21 UNL     1      -0.602  -2.473  14.780  1.00  0.00     0.009 C 
HETATM   26  C22 UNL     1      -1.236  -2.952  13.514  1.00  0.00     0.012 C 
HETATM   27  C23 UNL     1       0.168  -3.573  15.428  1.00  0.00     0.012 C 
ENDBRANCH  14  25
ENDBRANCH  11  14
ENDBRANCH   1  10
BRANCH   8  28
HETATM   28  N5  UNL     1       0.818  -1.273  19.840  1.00  0.00    -0.056 N 
HETATM   29  C14 UNL     1      -0.229  -1.986  20.577  1.00  0.00     0.273 C 
HETATM   30  C15 UNL     1       1.276  -2.049  18.752  1.00  0.00     0.266 C 
HETATM   31  C16 UNL     1       2.750  -2.352  18.691  1.00  0.00     0.264 C 
HETATM   32  N6  UNL     1       3.286  -2.992  19.829  1.00  0.00    -0.071 N 
HETATM   33  C17 UNL     1       3.310  -4.450  19.718  1.00  0.00     0.272 C 
HETATM   34  C18 UNL     1       4.670  -2.582  19.985  1.00  0.00     0.272 C 
HETATM   35  C19 UNL     1       2.548  -2.616  21.001  1.00  0.00     0.264 C 
HETATM   36  C20 UNL     1       1.924  -1.249  20.814  1.00  0.00     0.266 C 
ENDBRANCH   8  28
BRANCH   6  37
HETATM   37  O3  UNL     1       0.244   2.914  21.724  1.00  0.00    -0.312 OA
ATOM     38  H3  UNL     1      -0.414   2.650  22.357  1.00  0.00     0.237 HD
ENDBRANCH   6  37
TORSDOF 8
ENDMDL
MODEL 5
REMARK VINA RESULT: -6.484300177      2.047      7.610
REMARK  8 active torsions:
REMARK  status: ('A' for Active; 'I' for Inactive)
REMARK    1  A    between atoms: C2_2  and  N1_3 
REMARK    2  A    between atoms: C2_2  and  C3_7 
REMARK       I    between atoms: C3_7  and  N2_9 
REMARK    3  A    between atoms: N2_9  and  C4_11 
REMARK    4  A    between atoms: C4_11  and  C5_12 
REMARK    5  A    between atoms: C4_11  and  C21_36 
REMARK       I    between atoms: C5_12  and  N3_14 
REMARK    6  A    between atoms: N3_14  and  C6_16 
REMARK    7  A    between atoms: N4_21  and  O3_22 
REMARK    8  A    between atoms: C12_25  and  N5_27 
ROOT
HETATM    1  C6  UNL     1      -1.951   2.916  20.989  1.00  0.00     0.123 C 
HETATM    2  C7  UNL     1      -3.270   3.371  20.379  1.00  0.00     0.054 C 
HETATM    3  C8  UNL     1      -3.650   4.769  20.681  1.00  0.00     0.033 C 
HETATM    4  C9  UNL     1      -5.148   4.818  20.927  1.00  0.00     0.034 C 
HETATM    5  C10 UNL     1      -3.393   5.739  19.529  1.00  0.00     0.034 C 
HETATM    6  N4  UNL     1      -2.880   5.245  21.792  1.00  0.00    -0.188 NA
HETATM    7  C11 UNL     1      -2.904   4.174  22.808  1.00  0.00     0.162 C 
HETATM    8  C12 UNL     1      -1.738   3.245  22.398  1.00  0.00     0.160 C 
HETATM    9  C13 UNL     1      -0.528   4.156  22.552  1.00  0.00     0.050 C 
ENDROOT
BRANCH   1  10
HETATM   10  N3  UNL     1      -1.739   1.591  20.508  1.00  0.00    -0.352 N 
HETATM   11  C5  UNL     1      -0.933   1.280  19.342  1.00  0.00     0.241 C 
HETATM   12  O2  UNL     1      -0.409   2.258  18.768  1.00  0.00    -0.271 OA
ATOM     13  H3  UNL     1      -2.177   0.820  21.010  1.00  0.00     0.163 HD
BRANCH  11  14
HETATM   14  C4  UNL     1      -0.706  -0.065  18.831  1.00  0.00     0.180 C 
BRANCH  14  15
HETATM   15  N2  UNL     1       0.738  -0.289  18.729  1.00  0.00    -0.346 N 
HETATM   16  C3  UNL     1       1.395  -0.851  19.858  1.00  0.00     0.248 C 
HETATM   17  O1  UNL     1       0.741  -1.147  20.896  1.00  0.00    -0.271 OA
ATOM     18  H2  UNL     1       1.252  -0.052  17.880  1.00  0.00     0.163 HD
BRANCH  16  19
HETATM   19  C2  UNL     1       2.850  -1.122  19.909  1.00  0.00     0.270 C 
HETATM   20  C1  UNL     1       3.184  -2.084  18.781  1.00  0.00     0.050 C 
BRANCH  19  21
HETATM   21  N1  UNL     1       3.207  -1.616  21.205  1.00  0.00    -0.067 N 
ATOM     22  H13 UNL     1       2.406  -1.587  21.836  1.00  0.00     0.275 HD
ATOM     23  H12 UNL     1       3.364  -2.624  21.177  1.00  0.00     0.275 HD
ATOM     24  H11 UNL     1       4.007  -1.137  21.617  1.00  0.00     0.275 HD
ENDBRANCH  19  21
ENDBRANCH  16  19
ENDBRANCH  14  15
BRANCH  14  25
HETATM   25  C21 UNL     1      -1.229  -0.235  17.408  1.00  0.00     0.009 C 
HETATM   26  C22 UNL     1      -2.441  -1.106  17.338  1.00  0.00     0.012 C 
HETATM   27  C23 UNL     1      -0.184  -0.715  16.459  1.00  0.00     0.012 C 
ENDBRANCH  14  25
ENDBRANCH  11  14
ENDBRANCH   1  10
BRANCH   8  28
HETATM   28  N5  UNL     1      -1.637   2.216  23.389  1.00  0.00    -0.056 N 
HETATM   29  C14 UNL     1      -2.946   1.679  23.770  1.00  0.00     0.273 C 
HETATM   30  C15 UNL     1      -0.720   1.167  23.150  1.00  0.00     0.266 C 
HETATM   31  C16 UNL     1       0.558   1.172  23.946  1.00  0.00     0.264 C 
HETATM   32  N6  UNL     1       0.401   1.188  25.348  1.00  0.00    -0.071 N 
HETATM   33  C17 UNL     1       0.410  -0.145  25.949  1.00  0.00     0.272 C 
HETATM   34  C18 UNL     1       1.524   1.897  25.934  1.00  0.00     0.272 C 
HETATM   35  C19 UNL     1      -0.817   1.861  25.701  1.00  0.00     0.264 C 
HETATM   36  C20 UNL     1      -1.191   2.868  24.633  1.00  0.00     0.266 C 
ENDBRANCH   8  28
BRANCH   6  37
HETATM   37  O3  UNL     1      -3.580   6.281  22.337  1.00  0.00    -0.312 OA
ATOM     38  H3  UNL     1      -3.071   6.594  23.077  1.00  0.00     0.237 HD
ENDBRANCH   6  37
TORSDOF 8
ENDMDL
