MODEL 1
REMARK VINA RESULT: -4.312042312      0.000      0.000
REMARK  4 active torsions:
REMARK  status: ('A' for Active; 'I' for Inactive)
REMARK    1  A    between atoms: N1_2  and  N2_4 
REMARK    2  A    between atoms: C2_6  and  C3_7 
REMARK    3  A    between atoms: C4_8  and  C5_9 
REMARK    4  A    between atoms: C7_14  and  C9_16 
REMARK       I    between atoms: N3_19  and  C10_20 
ROOT
HETATM    1  C3  UNL     1      61.025  64.703  26.320  1.00  0.00     0.152 C 
HETATM    2  C4  UNL     1      61.938  63.510  26.068  1.00  0.00     0.176 C 
HETATM    3  S1  UNL     1      63.605  64.203  26.457  1.00  0.00    -0.148 SA
HETATM    4  C6  UNL     1      63.367  65.904  27.084  1.00  0.00     0.117 C 
HETATM    5  C7  UNL     1      62.215  65.937  28.086  1.00  0.00     0.129 C 
HETATM    6  C8  UNL     1      62.820  65.599  29.446  1.00  0.00     0.051 C 
HETATM    7  N3  UNL     1      61.160  65.037  27.713  1.00  0.00    -0.321 N 
HETATM    8  C10 UNL     1      60.313  64.520  28.723  1.00  0.00     0.217 C 
HETATM    9  C11 UNL     1      59.225  63.555  28.505  1.00  0.00     0.117 C 
HETATM   10  O5  UNL     1      60.431  64.861  29.945  1.00  0.00    -0.274 OA
ENDROOT
BRANCH   1  11
HETATM   11  C2  UNL     1      59.690  64.483  25.808  1.00  0.00     0.106 C 
HETATM   12  N2  UNL     1      58.878  65.401  25.413  1.00  0.00    -0.318 N 
ATOM     13  H2  UNL     1      59.193  66.370  25.462  1.00  0.00     0.185 HD
BRANCH  12  14
HETATM   14  N1  UNL     1      57.600  65.156  24.925  1.00  0.00    -0.341 N 
HETATM   15  C1  UNL     1      56.850  66.281  24.355  1.00  0.00     0.167 C 
ATOM     16  H1  UNL     1      57.195  64.221  24.962  1.00  0.00     0.179 HD
ENDBRANCH  12  14
ENDBRANCH   1  11
BRANCH   2  17
HETATM   17  C5  UNL     1      61.827  63.136  24.652  1.00  0.00     0.189 C 
HETATM   18  O1  UNL     1      61.246  62.099  24.242  1.00  0.00    -0.647 OA
HETATM   19  O2  UNL     1      62.393  63.959  23.662  1.00  0.00    -0.647 OA
ENDBRANCH   2  17
BRANCH   5  20
HETATM   20  C9  UNL     1      61.777  67.342  28.165  1.00  0.00     0.203 C 
HETATM   21  O3  UNL     1      62.164  68.118  27.258  1.00  0.00    -0.646 OA
HETATM   22  O4  UNL     1      60.972  67.871  29.158  1.00  0.00    -0.646 OA
ENDBRANCH   5  20
TORSDOF 4
ENDMDL
MODEL 2
REMARK VINA RESULT: -4.243117843      2.304      3.742
REMARK  4 active torsions:
REMARK  status: ('A' for Active; 'I' for Inactive)
REMARK    1  A    between atoms: N1_2  and  N2_4 
REMARK    2  A    between atoms: C2_6  and  C3_7 
REMARK    3  A    between atoms: C4_8  and  C5_9 
REMARK    4  A    between atoms: C7_14  and  C9_16 
REMARK       I    between atoms: N3_19  and  C10_20 
ROOT
HETATM    1  C3  UNL     1      60.791  64.434  28.334  1.00  0.00     0.152 C 
HETATM    2  C4  UNL     1      60.280  63.857  29.648  1.00  0.00     0.176 C 
HETATM    3  S1  UNL     1      61.688  62.786  30.179  1.00  0.00    -0.148 SA
HETATM    4  C6  UNL     1      63.052  63.029  28.986  1.00  0.00     0.117 C 
HETATM    5  C7  UNL     1      63.225  64.516  28.685  1.00  0.00     0.129 C 
HETATM    6  C8  UNL     1      64.164  65.064  29.757  1.00  0.00     0.051 C 
HETATM    7  N3  UNL     1      61.965  65.203  28.652  1.00  0.00    -0.321 N 
HETATM    8  C10 UNL     1      61.934  66.590  28.936  1.00  0.00     0.217 C 
HETATM    9  C11 UNL     1      60.720  67.417  28.989  1.00  0.00     0.117 C 
HETATM   10  O5  UNL     1      62.993  67.254  29.178  1.00  0.00    -0.274 OA
ENDROOT
BRANCH   1  11
HETATM   11  C2  UNL     1      59.741  65.089  27.583  1.00  0.00     0.106 C 
HETATM   12  N2  UNL     1      59.179  64.626  26.521  1.00  0.00    -0.318 N 
ATOM     13  H2  UNL     1      59.494  63.722  26.170  1.00  0.00     0.185 HD
BRANCH  12  14
HETATM   14  N1  UNL     1      58.172  65.281  25.823  1.00  0.00    -0.341 N 
HETATM   15  C1  UNL     1      58.064  65.043  24.379  1.00  0.00     0.167 C 
ATOM     16  H1  UNL     1      57.525  65.909  26.300  1.00  0.00     0.179 HD
ENDBRANCH  12  14
ENDBRANCH   1  11
BRANCH   2  17
HETATM   17  C5  UNL     1      59.077  63.064  29.365  1.00  0.00     0.189 C 
HETATM   18  O1  UNL     1      59.043  62.099  28.560  1.00  0.00    -0.647 OA
HETATM   19  O2  UNL     1      57.865  63.369  30.014  1.00  0.00    -0.647 OA
ENDBRANCH   2  17
BRANCH   5  20
HETATM   20  C9  UNL     1      63.962  64.595  27.410  1.00  0.00     0.203 C 
HETATM   21  O3  UNL     1      63.847  63.630  26.617  1.00  0.00    -0.646 OA
HETATM   22  O4  UNL     1      64.766  65.651  27.019  1.00  0.00    -0.646 OA
ENDBRANCH   5  20
TORSDOF 4
ENDMDL
MODEL 3
REMARK VINA RESULT: -4.133339995      2.177      2.891
REMARK  4 active torsions:
REMARK  status: ('A' for Active; 'I' for Inactive)
REMARK    1  A    between atoms: N1_2  and  N2_4 
REMARK    2  A    between atoms: C2_6  and  C3_7 
REMARK    3  A    between atoms: C4_8  and  C5_9 
REMARK    4  A    between atoms: C7_14  and  C9_16 
REMARK       I    between atoms: N3_19  and  C10_20 
ROOT
HETATM    1  C3  UNL     1      60.887  64.633  27.635  1.00  0.00     0.152 C 
HETATM    2  C4  UNL     1      61.515  64.227  26.308  1.00  0.00     0.176 C 
HETATM    3  S1  UNL     1      62.364  65.781  25.785  1.00  0.00    -0.148 SA
HETATM    4  C6  UNL     1      62.180  66.997  27.137  1.00  0.00     0.117 C 
HETATM    5  C7  UNL     1      62.454  66.330  28.483  1.00  0.00     0.129 C 
HETATM    6  C8  UNL     1      63.962  66.420  28.707  1.00  0.00     0.051 C 
HETATM    7  N3  UNL     1      61.972  64.978  28.514  1.00  0.00    -0.321 N 
HETATM    8  C10 UNL     1      62.584  64.055  29.396  1.00  0.00     0.217 C 
HETATM    9  C11 UNL     1      62.235  62.630  29.507  1.00  0.00     0.117 C 
HETATM   10  O5  UNL     1      63.518  64.395  30.191  1.00  0.00    -0.274 OA
ENDROOT
BRANCH   1  11
HETATM   11  C2  UNL     1      59.926  63.657  28.103  1.00  0.00     0.106 C 
HETATM   12  N2  UNL     1      58.836  63.921  28.735  1.00  0.00    -0.318 N 
ATOM     13  H2  UNL     1      58.621  64.900  28.927  1.00  0.00     0.185 HD
BRANCH  12  14
HETATM   14  N1  UNL     1      57.933  62.959  29.171  1.00  0.00    -0.341 N 
HETATM   15  C1  UNL     1      58.131  62.380  30.505  1.00  0.00     0.167 C 
ATOM     16  H1  UNL     1      57.156  62.664  28.581  1.00  0.00     0.179 HD
ENDBRANCH  12  14
ENDBRANCH   1  11
BRANCH   2  17
HETATM   17  C5  UNL     1      60.436  63.864  25.380  1.00  0.00     0.189 C 
HETATM   18  O1  UNL     1      60.305  62.725  24.864  1.00  0.00    -0.647 OA
HETATM   19  O2  UNL     1      59.468  64.820  25.019  1.00  0.00    -0.647 OA
ENDBRANCH   2  17
BRANCH   5  20
HETATM   20  C9  UNL     1      61.831  67.191  29.505  1.00  0.00     0.203 C 
HETATM   21  O3  UNL     1      62.374  67.230  30.635  1.00  0.00    -0.646 OA
HETATM   22  O4  UNL     1      60.697  67.961  29.314  1.00  0.00    -0.646 OA
ENDBRANCH   5  20
TORSDOF 4
ENDMDL
MODEL 4
REMARK VINA RESULT: -4.098175680      1.837      4.068
REMARK  4 active torsions:
REMARK  status: ('A' for Active; 'I' for Inactive)
REMARK    1  A    between atoms: N1_2  and  N2_4 
REMARK    2  A    between atoms: C2_6  and  C3_7 
REMARK    3  A    between atoms: C4_8  and  C5_9 
REMARK    4  A    between atoms: C7_14  and  C9_16 
REMARK       I    between atoms: N3_19  and  C10_20 
ROOT
HETATM    1  C3  UNL     1      60.803  64.075  26.942  1.00  0.00     0.152 C 
HETATM    2  C4  UNL     1      60.673  63.755  28.426  1.00  0.00     0.176 C 
HETATM    3  S1  UNL     1      61.848  62.345  28.627  1.00  0.00    -0.148 SA
HETATM    4  C6  UNL     1      62.700  62.099  27.028  1.00  0.00     0.117 C 
HETATM    5  C7  UNL     1      63.131  63.446  26.451  1.00  0.00     0.129 C 
HETATM    6  C8  UNL     1      64.502  63.749  27.051  1.00  0.00     0.051 C 
HETATM    7  N3  UNL     1      62.168  64.475  26.727  1.00  0.00    -0.321 N 
HETATM    8  C10 UNL     1      62.604  65.821  26.779  1.00  0.00     0.217 C 
HETATM    9  C11 UNL     1      61.750  66.975  27.096  1.00  0.00     0.117 C 
HETATM   10  O5  UNL     1      63.812  66.151  26.547  1.00  0.00    -0.274 OA
ENDROOT
BRANCH   1  11
HETATM   11  C2  UNL     1      59.761  64.969  26.486  1.00  0.00     0.106 C 
HETATM   12  N2  UNL     1      58.712  64.621  25.824  1.00  0.00    -0.318 N 
ATOM     13  H2  UNL     1      58.597  63.634  25.597  1.00  0.00     0.185 HD
BRANCH  12  14
HETATM   14  N1  UNL     1      57.728  65.506  25.400  1.00  0.00    -0.341 N 
HETATM   15  C1  UNL     1      57.489  65.636  23.958  1.00  0.00     0.167 C 
ATOM     16  H1  UNL     1      57.187  66.050  26.072  1.00  0.00     0.179 HD
ENDBRANCH  12  14
ENDBRANCH   1  11
BRANCH   2  17
HETATM   17  C5  UNL     1      59.288  63.343  28.688  1.00  0.00     0.189 C 
HETATM   18  O1  UNL     1      58.541  63.887  29.541  1.00  0.00    -0.647 OA
HETATM   19  O2  UNL     1      58.722  62.277  27.963  1.00  0.00    -0.647 OA
ENDBRANCH   2  17
BRANCH   5  20
HETATM   20  C9  UNL     1      63.349  63.226  25.010  1.00  0.00     0.203 C 
HETATM   21  O3  UNL     1      64.323  62.510  24.676  1.00  0.00    -0.646 OA
HETATM   22  O4  UNL     1      62.562  63.747  23.998  1.00  0.00    -0.646 OA
ENDBRANCH   5  20
TORSDOF 4
ENDMDL
MODEL 5
REMARK VINA RESULT: -4.062939912      1.427      1.795
REMARK  4 active torsions:
REMARK  status: ('A' for Active; 'I' for Inactive)
REMARK    1  A    between atoms: N1_2  and  N2_4 
REMARK    2  A    between atoms: C2_6  and  C3_7 
REMARK    3  A    between atoms: C4_8  and  C5_9 
REMARK    4  A    between atoms: C7_14  and  C9_16 
REMARK       I    between atoms: N3_19  and  C10_20 
ROOT
HETATM    1  C3  UNL     1      60.632  64.522  25.953  1.00  0.00     0.152 C 
HETATM    2  C4  UNL     1      60.752  63.059  25.546  1.00  0.00     0.176 C 
HETATM    3  S1  UNL     1      62.559  62.896  25.201  1.00  0.00    -0.148 SA
HETATM    4  C6  UNL     1      63.354  64.483  25.639  1.00  0.00     0.117 C 
HETATM    5  C7  UNL     1      62.820  64.984  26.979  1.00  0.00     0.129 C 
HETATM    6  C8  UNL     1      63.689  64.337  28.056  1.00  0.00     0.051 C 
HETATM    7  N3  UNL     1      61.426  64.684  27.142  1.00  0.00    -0.321 N 
HETATM    8  C10 UNL     1      60.902  64.558  28.451  1.00  0.00     0.217 C 
HETATM    9  C11 UNL     1      59.511  64.208  28.778  1.00  0.00     0.117 C 
HETATM   10  O5  UNL     1      61.619  64.743  29.488  1.00  0.00    -0.274 OA
ENDROOT
BRANCH   1  11
HETATM   11  C2  UNL     1      59.254  64.962  25.999  1.00  0.00     0.106 C 
HETATM   12  N2  UNL     1      58.541  65.302  24.982  1.00  0.00    -0.318 N 
ATOM     13  H2  UNL     1      58.976  65.262  24.060  1.00  0.00     0.185 HD
BRANCH  12  14
HETATM   14  N1  UNL     1      57.218  65.720  25.061  1.00  0.00    -0.341 N 
HETATM   15  C1  UNL     1      56.343  65.465  23.911  1.00  0.00     0.167 C 
ATOM     16  H1  UNL     1      56.866  66.190  25.894  1.00  0.00     0.179 HD
ENDBRANCH  12  14
ENDBRANCH   1  11
BRANCH   2  17
HETATM   17  C5  UNL     1      59.951  62.852  24.332  1.00  0.00     0.189 C 
HETATM   18  O1  UNL     1      60.273  63.281  23.195  1.00  0.00    -0.647 OA
HETATM   19  O2  UNL     1      58.743  62.134  24.401  1.00  0.00    -0.647 OA
ENDBRANCH   2  17
BRANCH   5  20
HETATM   20  C9  UNL     1      63.112  66.429  27.025  1.00  0.00     0.203 C 
HETATM   21  O3  UNL     1      64.307  66.771  27.194  1.00  0.00    -0.646 OA
HETATM   22  O4  UNL     1      62.171  67.435  26.895  1.00  0.00    -0.646 OA
ENDBRANCH   5  20
TORSDOF 4
ENDMDL
