MODEL 1
REMARK VINA RESULT: -7.563412375      0.000      0.000
REMARK  3 active torsions:
REMARK  status: ('A' for Active; 'I' for Inactive)
REMARK    1  A    between atoms: C2_2  and  C3_3 
REMARK    2  A    between atoms: C4_4  and  C5_5 
REMARK    3  A    between atoms: C5_5  and  C6_6 
ROOT
HETATM    1  C6  UNL     1      57.220  73.445  22.238  1.00  0.00     0.065 A 
HETATM    2  N1  UNL     1      58.475  73.526  22.708  1.00  0.00    -0.307 N 
ATOM      3  H1  UNL     1      59.014  74.389  22.785  1.00  0.00     0.170 HD
HETATM    4  C7  UNL     1      58.913  72.321  23.057  1.00  0.00     0.347 A 
HETATM    5  O1  UNL     1      60.042  72.003  23.539  1.00  0.00    -0.245 OA
HETATM    6  N2  UNL     1      57.955  71.405  22.828  1.00  0.00    -0.191 N 
HETATM    7  C8  UNL     1      56.919  72.087  22.328  1.00  0.00     0.151 A 
HETATM    8  N3  UNL     1      55.760  71.351  21.982  1.00  0.00    -0.371 N 
ATOM      9  H3  UNL     1      55.058  71.805  21.398  1.00  0.00     0.161 HD
HETATM   10  C9  UNL     1      55.519  69.987  22.414  1.00  0.00     0.142 C 
HETATM   11  C10 UNL     1      56.839  69.202  22.417  1.00  0.00     0.159 C 
HETATM   12  N4  UNL     1      57.878  70.029  23.006  1.00  0.00    -0.323 N 
ATOM     13  H4  UNL     1      58.589  69.577  23.580  1.00  0.00     0.181 HD
ENDROOT
BRANCH   1  14
HETATM   14  C5  UNL     1      56.356  74.517  21.721  1.00  0.00     0.119 C 
BRANCH  14  15
HETATM   15  C4  UNL     1      55.826  74.376  20.377  1.00  0.00     0.031 A 
HETATM   16  C3  UNL     1      54.504  74.579  20.086  1.00  0.00     0.033 A 
HETATM   17  C12 UNL     1      54.124  74.404  18.746  1.00  0.00     0.257 A 
HETATM   18  N6  UNL     1      54.980  74.060  17.793  1.00  0.00    -0.275 N 
HETATM   19  O3  UNL     1      52.913  74.581  18.432  1.00  0.00    -0.267 OA
HETATM   20  C11 UNL     1      56.256  73.870  18.103  1.00  0.00     0.327 A 
ATOM     21  H6  UNL     1      54.660  73.942  16.832  1.00  0.00     0.173 HD
HETATM   22  N5  UNL     1      56.639  74.032  19.369  1.00  0.00    -0.311 N 
HETATM   23  O2  UNL     1      57.050  73.542  17.166  1.00  0.00    -0.247 OA
ATOM     24  H5  UNL     1      57.625  73.883  19.587  1.00  0.00     0.170 HD
BRANCH  16  25
HETATM   25  C2  UNL     1      53.475  74.981  21.027  1.00  0.00     0.042 C 
HETATM   26  C1  UNL     1      53.252  76.495  20.851  1.00  0.00     0.010 C 
ENDBRANCH  16  25
ENDBRANCH  14  15
ENDBRANCH   1  14
TORSDOF 3
ENDMDL
MODEL 2
REMARK VINA RESULT: -6.550776008      1.977      5.965
REMARK  3 active torsions:
REMARK  status: ('A' for Active; 'I' for Inactive)
REMARK    1  A    between atoms: C2_2  and  C3_3 
REMARK    2  A    between atoms: C4_4  and  C5_5 
REMARK    3  A    between atoms: C5_5  and  C6_6 
ROOT
HETATM    1  C6  UNL     1      56.635  74.252  20.369  1.00  0.00     0.065 A 
HETATM    2  N1  UNL     1      57.321  73.770  19.320  1.00  0.00    -0.307 N 
ATOM      3  H1  UNL     1      58.290  73.452  19.353  1.00  0.00     0.170 HD
HETATM    4  C7  UNL     1      56.556  73.767  18.234  1.00  0.00     0.347 A 
HETATM    5  O1  UNL     1      56.853  73.385  17.062  1.00  0.00    -0.245 OA
HETATM    6  N2  UNL     1      55.336  74.249  18.535  1.00  0.00    -0.191 N 
HETATM    7  C8  UNL     1      55.380  74.545  19.838  1.00  0.00     0.151 A 
HETATM    8  N3  UNL     1      54.212  75.091  20.423  1.00  0.00    -0.371 N 
ATOM      9  H3  UNL     1      54.291  75.530  21.340  1.00  0.00     0.161 HD
HETATM   10  C9  UNL     1      52.908  75.057  19.787  1.00  0.00     0.142 C 
HETATM   11  C10 UNL     1      53.063  75.264  18.272  1.00  0.00     0.159 C 
HETATM   12  N4  UNL     1      54.178  74.461  17.799  1.00  0.00    -0.323 N 
ATOM     13  H4  UNL     1      54.106  74.030  16.878  1.00  0.00     0.181 HD
ENDROOT
BRANCH   1  14
HETATM   14  C5  UNL     1      57.088  74.456  21.753  1.00  0.00     0.119 C 
BRANCH  14  15
HETATM   15  C4  UNL     1      58.323  73.816  22.168  1.00  0.00     0.031 A 
HETATM   16  C3  UNL     1      58.338  72.642  22.873  1.00  0.00     0.033 A 
HETATM   17  C12 UNL     1      59.601  72.135  23.215  1.00  0.00     0.257 A 
HETATM   18  N6  UNL     1      60.735  72.740  22.887  1.00  0.00    -0.275 N 
HETATM   19  O3  UNL     1      59.663  71.053  23.865  1.00  0.00    -0.267 OA
HETATM   20  C11 UNL     1      60.690  73.877  22.203  1.00  0.00     0.327 A 
ATOM     21  H6  UNL     1      61.631  72.336  23.157  1.00  0.00     0.173 HD
HETATM   22  N5  UNL     1      59.502  74.376  21.866  1.00  0.00    -0.311 N 
HETATM   23  O2  UNL     1      61.795  74.431  21.904  1.00  0.00    -0.247 OA
ATOM     24  H5  UNL     1      59.489  75.250  21.340  1.00  0.00     0.170 HD
BRANCH  16  25
HETATM   25  C2  UNL     1      57.176  71.870  23.270  1.00  0.00     0.042 C 
HETATM   26  C1  UNL     1      56.808  70.948  22.092  1.00  0.00     0.010 C 
ENDBRANCH  16  25
ENDBRANCH  14  15
ENDBRANCH   1  14
TORSDOF 3
ENDMDL
MODEL 3
REMARK VINA RESULT: -6.393546898      2.463      4.245
REMARK  3 active torsions:
REMARK  status: ('A' for Active; 'I' for Inactive)
REMARK    1  A    between atoms: C2_2  and  C3_3 
REMARK    2  A    between atoms: C4_4  and  C5_5 
REMARK    3  A    between atoms: C5_5  and  C6_6 
ROOT
HETATM    1  C6  UNL     1      55.841  70.163  22.437  1.00  0.00     0.065 A 
HETATM    2  N1  UNL     1      55.444  70.677  23.612  1.00  0.00    -0.307 N 
ATOM      3  H1  UNL     1      55.270  71.667  23.788  1.00  0.00     0.170 HD
HETATM    4  C7  UNL     1      55.311  69.710  24.515  1.00  0.00     0.347 A 
HETATM    5  O1  UNL     1      54.955  69.808  25.728  1.00  0.00    -0.245 OA
HETATM    6  N2  UNL     1      55.617  68.524  23.958  1.00  0.00    -0.191 N 
HETATM    7  C8  UNL     1      55.941  68.796  22.690  1.00  0.00     0.151 A 
HETATM    8  N3  UNL     1      56.322  67.709  21.867  1.00  0.00    -0.371 N 
ATOM      9  H3  UNL     1      56.784  67.914  20.981  1.00  0.00     0.161 HD
HETATM   10  C9  UNL     1      56.089  66.320  22.216  1.00  0.00     0.142 C 
HETATM   11  C10 UNL     1      56.288  66.123  23.727  1.00  0.00     0.159 C 
HETATM   12  N4  UNL     1      55.646  67.219  24.433  1.00  0.00    -0.323 N 
ATOM     13  H4  UNL     1      55.193  67.019  25.324  1.00  0.00     0.181 HD
ENDROOT
BRANCH   1  14
HETATM   14  C5  UNL     1      56.134  70.861  21.176  1.00  0.00     0.119 C 
BRANCH  14  15
HETATM   15  C4  UNL     1      57.163  71.885  21.187  1.00  0.00     0.031 A 
HETATM   16  C3  UNL     1      57.028  73.066  20.509  1.00  0.00     0.033 A 
HETATM   17  C12 UNL     1      58.102  73.965  20.600  1.00  0.00     0.257 A 
HETATM   18  N6  UNL     1      59.201  73.709  21.297  1.00  0.00    -0.275 N 
HETATM   19  O3  UNL     1      58.020  75.069  19.990  1.00  0.00    -0.267 OA
HETATM   20  C11 UNL     1      59.304  72.556  21.945  1.00  0.00     0.327 A 
ATOM     21  H6  UNL     1      59.957  74.391  21.335  1.00  0.00     0.173 HD
HETATM   22  N5  UNL     1      58.297  71.687  21.874  1.00  0.00    -0.311 N 
HETATM   23  O2  UNL     1      60.370  72.342  22.605  1.00  0.00    -0.247 OA
ATOM     24  H5  UNL     1      58.395  70.806  22.381  1.00  0.00     0.170 HD
BRANCH  16  25
HETATM   25  C2  UNL     1      55.873  73.478  19.733  1.00  0.00     0.042 C 
HETATM   26  C1  UNL     1      54.977  74.329  20.654  1.00  0.00     0.010 C 
ENDBRANCH  16  25
ENDBRANCH  14  15
ENDBRANCH   1  14
TORSDOF 3
ENDMDL
MODEL 4
REMARK VINA RESULT: -6.388780045      2.546      4.477
REMARK  3 active torsions:
REMARK  status: ('A' for Active; 'I' for Inactive)
REMARK    1  A    between atoms: C2_2  and  C3_3 
REMARK    2  A    between atoms: C4_4  and  C5_5 
REMARK    3  A    between atoms: C5_5  and  C6_6 
ROOT
HETATM    1  C6  UNL     1      56.014  70.077  22.359  1.00  0.00     0.065 A 
HETATM    2  N1  UNL     1      55.590  70.640  23.502  1.00  0.00    -0.307 N 
ATOM      3  H1  UNL     1      55.452  71.641  23.642  1.00  0.00     0.170 HD
HETATM    4  C7  UNL     1      55.377  69.707  24.423  1.00  0.00     0.347 A 
HETATM    5  O1  UNL     1      54.974  69.855  25.616  1.00  0.00    -0.245 OA
HETATM    6  N2  UNL     1      55.655  68.493  23.913  1.00  0.00    -0.191 N 
HETATM    7  C8  UNL     1      56.044  68.714  22.653  1.00  0.00     0.151 A 
HETATM    8  N3  UNL     1      56.412  67.589  21.877  1.00  0.00    -0.371 N 
ATOM      9  H3  UNL     1      56.921  67.749  21.008  1.00  0.00     0.161 HD
HETATM   10  C9  UNL     1      56.105  66.221  22.253  1.00  0.00     0.142 C 
HETATM   11  C10 UNL     1      56.231  66.061  23.776  1.00  0.00     0.159 C 
HETATM   12  N4  UNL     1      55.607  67.202  24.423  1.00  0.00    -0.323 N 
ATOM     13  H4  UNL     1      55.108  67.047  25.299  1.00  0.00     0.181 HD
ENDROOT
BRANCH   1  14
HETATM   14  C5  UNL     1      56.391  70.725  21.094  1.00  0.00     0.119 C 
BRANCH  14  15
HETATM   15  C4  UNL     1      56.576  72.165  21.094  1.00  0.00     0.031 A 
HETATM   16  C3  UNL     1      57.793  72.747  21.324  1.00  0.00     0.033 A 
HETATM   17  C12 UNL     1      57.830  74.150  21.301  1.00  0.00     0.257 A 
HETATM   18  N6  UNL     1      56.758  74.896  21.071  1.00  0.00    -0.275 N 
HETATM   19  O3  UNL     1      58.933  74.729  21.508  1.00  0.00    -0.267 OA
HETATM   20  C11 UNL     1      55.591  74.304  20.851  1.00  0.00     0.327 A 
ATOM     21  H6  UNL     1      56.830  75.913  21.064  1.00  0.00     0.173 HD
HETATM   22  N5  UNL     1      55.532  72.974  20.867  1.00  0.00    -0.311 N 
HETATM   23  O2  UNL     1      54.583  75.048  20.633  1.00  0.00    -0.247 OA
ATOM     24  H5  UNL     1      54.625  72.538  20.694  1.00  0.00     0.170 HD
BRANCH  16  25
HETATM   25  C2  UNL     1      59.043  72.047  21.562  1.00  0.00     0.042 C 
HETATM   26  C1  UNL     1      59.275  72.020  23.085  1.00  0.00     0.010 C 
ENDBRANCH  16  25
ENDBRANCH  14  15
ENDBRANCH   1  14
TORSDOF 3
ENDMDL
MODEL 5
REMARK VINA RESULT: -6.308592352      1.262      2.364
REMARK  3 active torsions:
REMARK  status: ('A' for Active; 'I' for Inactive)
REMARK    1  A    between atoms: C2_2  and  C3_3 
REMARK    2  A    between atoms: C4_4  and  C5_5 
REMARK    3  A    between atoms: C5_5  and  C6_6 
ROOT
HETATM    1  C6  UNL     1      56.355  72.829  21.946  1.00  0.00     0.065 A 
HETATM    2  N1  UNL     1      56.013  71.542  22.113  1.00  0.00    -0.307 N 
ATOM      3  H1  UNL     1      55.068  71.171  22.007  1.00  0.00     0.170 HD
HETATM    4  C7  UNL     1      57.081  70.820  22.436  1.00  0.00     0.347 A 
HETATM    5  O1  UNL     1      57.150  69.576  22.669  1.00  0.00    -0.245 OA
HETATM    6  N2  UNL     1      58.166  71.615  22.492  1.00  0.00    -0.191 N 
HETATM    7  C8  UNL     1      57.727  72.841  22.193  1.00  0.00     0.151 A 
HETATM    8  N3  UNL     1      58.677  73.891  22.191  1.00  0.00    -0.371 N 
ATOM      9  H3  UNL     1      58.335  74.852  22.192  1.00  0.00     0.161 HD
HETATM   10  C9  UNL     1      60.112  73.673  22.186  1.00  0.00     0.142 C 
HETATM   11  C10 UNL     1      60.455  72.455  23.058  1.00  0.00     0.159 C 
HETATM   12  N4  UNL     1      59.507  71.391  22.775  1.00  0.00    -0.323 N 
ATOM     13  H4  UNL     1      59.844  70.429  22.785  1.00  0.00     0.181 HD
ENDROOT
BRANCH   1  14
HETATM   14  C5  UNL     1      55.499  73.976  21.610  1.00  0.00     0.119 C 
BRANCH  14  15
HETATM   15  C4  UNL     1      55.152  74.183  20.216  1.00  0.00     0.031 A 
HETATM   16  C3  UNL     1      53.948  74.710  19.831  1.00  0.00     0.033 A 
HETATM   17  C12 UNL     1      53.741  74.850  18.450  1.00  0.00     0.257 A 
HETATM   18  N6  UNL     1      54.644  74.499  17.545  1.00  0.00    -0.275 N 
HETATM   19  O3  UNL     1      52.644  75.332  18.049  1.00  0.00    -0.267 OA
HETATM   20  C11 UNL     1      55.803  73.991  17.947  1.00  0.00     0.327 A 
ATOM     21  H6  UNL     1      54.451  74.618  16.551  1.00  0.00     0.173 HD
HETATM   22  N5  UNL     1      56.023  73.850  19.253  1.00  0.00    -0.311 N 
HETATM   23  O2  UNL     1      56.648  73.666  17.054  1.00  0.00    -0.247 OA
ATOM     24  H5  UNL     1      56.920  73.459  19.542  1.00  0.00     0.170 HD
BRANCH  16  25
HETATM   25  C2  UNL     1      52.889  75.156  20.717  1.00  0.00     0.042 C 
HETATM   26  C1  UNL     1      53.204  76.609  21.120  1.00  0.00     0.010 C 
ENDBRANCH  16  25
ENDBRANCH  14  15
ENDBRANCH   1  14
TORSDOF 3
ENDMDL
