MODEL 1
REMARK VINA RESULT: -7.677110605      0.000      0.000
REMARK  8 active torsions:
REMARK  status: ('A' for Active; 'I' for Inactive)
REMARK       I    between atoms: N2_5  and  C3_6 
REMARK    1  A    between atoms: C3_6  and  C4_8 
REMARK    2  A    between atoms: C4_8  and  C5_9 
REMARK    3  A    between atoms: C5_9  and  C6_10 
REMARK    4  A    between atoms: C11_15  and  C12_16 
REMARK    5  A    between atoms: C12_16  and  N3_18 
REMARK    6  A    between atoms: C13_23  and  C14_24 
REMARK    7  A    between atoms: C14_24  and  N6_25 
REMARK    8  A    between atoms: C14_24  and  O2_29 
ROOT
HETATM    1  C12 UNL     1      59.499  59.030  47.373  1.00  0.00     0.225 C 
HETATM    2 BR1  UNL     1      58.922  57.515  48.449  1.00  0.00    -0.062 Br
ENDROOT
BRANCH   1   3
HETATM    3  C11 UNL     1      60.847  59.444  47.879  1.00  0.00     0.153 C 
HETATM    4  N2  UNL     1      61.037  59.185  49.291  1.00  0.00    -0.253 N 
HETATM    5  N1  UNL     1      61.739  58.003  49.402  1.00  0.00    -0.304 N 
HETATM    6  C3  UNL     1      60.602  59.975  50.401  1.00  0.00     0.238 C 
HETATM    7  C2  UNL     1      62.271  57.654  48.282  1.00  0.00     0.002 C 
ATOM      8  H1  UNL     1      61.825  57.469  50.266  1.00  0.00     0.186 HD
HETATM    9  C1  UNL     1      63.082  56.419  48.119  1.00  0.00     0.065 C 
HETATM   10  C15 UNL     1      61.956  58.655  47.208  1.00  0.00     0.084 C 
HETATM   11  O1  UNL     1      59.966  61.039  50.142  1.00  0.00    -0.272 OA
BRANCH   6  12
HETATM   12  C4  UNL     1      60.885  59.574  51.764  1.00  0.00     0.105 C 
BRANCH  12  13
HETATM   13  C5  UNL     1      60.647  60.489  52.889  1.00  0.00     0.014 C 
BRANCH  13  14
HETATM   14  C6  UNL     1      61.319  60.274  54.181  1.00  0.00    -0.014 C 
HETATM   15  C7  UNL     1      61.273  58.940  54.812  1.00  0.00     0.004 C 
HETATM   16  C8  UNL     1      59.907  58.852  55.478  1.00  0.00     0.000 C 
HETATM   17  C9  UNL     1      59.400  60.259  55.547  1.00  0.00     0.000 C 
HETATM   18  C10 UNL     1      60.568  61.147  55.215  1.00  0.00     0.004 C 
ENDBRANCH  13  14
ENDBRANCH  12  13
ENDBRANCH   6  12
ENDBRANCH   1   3
BRANCH   1  19
HETATM   19  N3  UNL     1      58.498  60.069  47.480  1.00  0.00    -0.201 N 
HETATM   20  N4  UNL     1      58.713  61.360  47.504  1.00  0.00    -0.223 N 
HETATM   21  N5  UNL     1      57.576  61.993  47.607  1.00  0.00    -0.268 N 
ATOM     22  H4  UNL     1      59.629  61.803  47.452  1.00  0.00     0.210 HD
HETATM   23  C13 UNL     1      56.597  61.088  47.652  1.00  0.00     0.170 A 
ATOM     24  H5  UNL     1      57.456  63.006  47.646  1.00  0.00     0.190 HD
HETATM   25  N7  UNL     1      57.195  59.887  47.571  1.00  0.00    -0.265 N 
ATOM     26  H7  UNL     1      56.719  58.985  47.578  1.00  0.00     0.190 HD
BRANCH  23  27
HETATM   27  C14 UNL     1      55.124  61.330  47.767  1.00  0.00     0.387 C 
BRANCH  27  28
HETATM   28  N6  UNL     1      54.480  60.035  47.686  1.00  0.00    -0.046 N 
ATOM     29  H63 UNL     1      54.910  59.334  48.289  1.00  0.00     0.277 HD
ATOM     30  H62 UNL     1      53.553  60.021  48.112  1.00  0.00     0.277 HD
ATOM     31  H61 UNL     1      54.474  59.770  46.701  1.00  0.00     0.277 HD
ENDBRANCH  27  28
BRANCH  27  32
HETATM   32  O2  UNL     1      54.820  61.999  48.943  1.00  0.00    -0.364 OA
ATOM     33  H2  UNL     1      55.235  62.853  48.967  1.00  0.00     0.212 HD
ENDBRANCH  27  32
ENDBRANCH  23  27
ENDBRANCH   1  19
TORSDOF 8
ENDMDL
MODEL 2
REMARK VINA RESULT: -7.226067298      2.161      2.881
REMARK  8 active torsions:
REMARK  status: ('A' for Active; 'I' for Inactive)
REMARK       I    between atoms: N2_5  and  C3_6 
REMARK    1  A    between atoms: C3_6  and  C4_8 
REMARK    2  A    between atoms: C4_8  and  C5_9 
REMARK    3  A    between atoms: C5_9  and  C6_10 
REMARK    4  A    between atoms: C11_15  and  C12_16 
REMARK    5  A    between atoms: C12_16  and  N3_18 
REMARK    6  A    between atoms: C13_23  and  C14_24 
REMARK    7  A    between atoms: C14_24  and  N6_25 
REMARK    8  A    between atoms: C14_24  and  O2_29 
ROOT
HETATM    1  C12 UNL     1      60.684  59.441  46.744  1.00  0.00     0.225 C 
HETATM    2 BR1  UNL     1      60.633  58.319  45.156  1.00  0.00    -0.062 Br
ENDROOT
BRANCH   1   3
HETATM    3  C11 UNL     1      61.334  58.640  47.832  1.00  0.00     0.153 C 
HETATM    4  N2  UNL     1      60.921  59.035  49.162  1.00  0.00    -0.253 N 
HETATM    5  N1  UNL     1      59.942  58.151  49.567  1.00  0.00    -0.304 N 
HETATM    6  C3  UNL     1      61.406  60.124  49.952  1.00  0.00     0.238 C 
HETATM    7  C2  UNL     1      59.905  57.101  48.823  1.00  0.00     0.002 C 
ATOM      8  H1  UNL     1      59.322  58.311  50.361  1.00  0.00     0.186 HD
HETATM    9  C1  UNL     1      58.943  55.987  49.037  1.00  0.00     0.065 C 
HETATM   10  C15 UNL     1      60.948  57.175  47.745  1.00  0.00     0.084 C 
HETATM   11  O1  UNL     1      62.309  60.851  49.444  1.00  0.00    -0.272 OA
BRANCH   6  12
HETATM   12  C4  UNL     1      60.886  60.376  51.281  1.00  0.00     0.105 C 
BRANCH  12  13
HETATM   13  C5  UNL     1      60.154  61.613  51.587  1.00  0.00     0.014 C 
BRANCH  13  14
HETATM   14  C6  UNL     1      60.649  62.538  52.618  1.00  0.00    -0.014 C 
HETATM   15  C7  UNL     1      59.849  62.764  53.839  1.00  0.00     0.004 C 
HETATM   16  C8  UNL     1      58.765  63.753  53.435  1.00  0.00     0.000 C 
HETATM   17  C9  UNL     1      59.222  64.351  52.142  1.00  0.00     0.000 C 
HETATM   18  C10 UNL     1      60.661  63.945  51.974  1.00  0.00     0.004 C 
ENDBRANCH  13  14
ENDBRANCH  12  13
ENDBRANCH   6  12
ENDBRANCH   1   3
BRANCH   1  19
HETATM   19  N3  UNL     1      59.331  59.848  47.056  1.00  0.00    -0.201 N 
HETATM   20  N4  UNL     1      58.236  59.183  46.789  1.00  0.00    -0.223 N 
HETATM   21  N5  UNL     1      57.200  59.853  47.216  1.00  0.00    -0.268 N 
ATOM     22  H4  UNL     1      58.198  58.280  46.319  1.00  0.00     0.210 HD
HETATM   23  C13 UNL     1      57.636  60.984  47.774  1.00  0.00     0.170 A 
ATOM     24  H5  UNL     1      56.225  59.562  47.137  1.00  0.00     0.190 HD
HETATM   25  N7  UNL     1      58.975  60.963  47.664  1.00  0.00    -0.265 N 
ATOM     26  H7  UNL     1      59.610  61.688  47.996  1.00  0.00     0.190 HD
BRANCH  23  27
HETATM   27  C14 UNL     1      56.824  62.072  48.404  1.00  0.00     0.387 C 
BRANCH  27  28
HETATM   28  N6  UNL     1      57.732  62.859  49.211  1.00  0.00    -0.046 N 
ATOM     29  H63 UNL     1      58.227  62.308  49.913  1.00  0.00     0.277 HD
ATOM     30  H62 UNL     1      58.553  63.179  48.696  1.00  0.00     0.277 HD
ATOM     31  H61 UNL     1      57.186  63.623  49.610  1.00  0.00     0.277 HD
ENDBRANCH  27  28
BRANCH  27  32
HETATM   32  O2  UNL     1      56.180  62.834  47.440  1.00  0.00    -0.364 OA
ATOM     33  H2  UNL     1      55.850  63.644  47.809  1.00  0.00     0.212 HD
ENDBRANCH  27  32
ENDBRANCH  23  27
ENDBRANCH   1  19
TORSDOF 8
ENDMDL
MODEL 3
REMARK VINA RESULT: -7.188900801      2.972      4.444
REMARK  8 active torsions:
REMARK  status: ('A' for Active; 'I' for Inactive)
REMARK       I    between atoms: N2_5  and  C3_6 
REMARK    1  A    between atoms: C3_6  and  C4_8 
REMARK    2  A    between atoms: C4_8  and  C5_9 
REMARK    3  A    between atoms: C5_9  and  C6_10 
REMARK    4  A    between atoms: C11_15  and  C12_16 
REMARK    5  A    between atoms: C12_16  and  N3_18 
REMARK    6  A    between atoms: C13_23  and  C14_24 
REMARK    7  A    between atoms: C14_24  and  N6_25 
REMARK    8  A    between atoms: C14_24  and  O2_29 
ROOT
HETATM    1  C12 UNL     1      61.348  58.197  47.986  1.00  0.00     0.225 C 
HETATM    2 BR1  UNL     1      62.502  56.895  48.856  1.00  0.00    -0.062 Br
ENDROOT
BRANCH   1   3
HETATM    3  C11 UNL     1      60.145  58.377  48.860  1.00  0.00     0.153 C 
HETATM    4  N2  UNL     1      60.193  59.580  49.666  1.00  0.00    -0.253 N 
HETATM    5  N1  UNL     1      59.441  60.538  49.020  1.00  0.00    -0.304 N 
HETATM    6  C3  UNL     1      60.875  59.786  50.906  1.00  0.00     0.238 C 
HETATM    7  C2  UNL     1      58.693  60.025  48.105  1.00  0.00     0.002 C 
ATOM      8  H1  UNL     1      59.473  61.534  49.239  1.00  0.00     0.186 HD
HETATM    9  C1  UNL     1      57.780  60.835  47.254  1.00  0.00     0.065 C 
HETATM   10  C15 UNL     1      58.881  58.537  48.035  1.00  0.00     0.084 C 
HETATM   11  O1  UNL     1      61.527  58.809  51.378  1.00  0.00    -0.272 OA
BRANCH   6  12
HETATM   12  C4  UNL     1      60.812  61.060  51.593  1.00  0.00     0.105 C 
BRANCH  12  13
HETATM   13  C5  UNL     1      60.212  61.172  52.930  1.00  0.00     0.014 C 
BRANCH  13  14
HETATM   14  C6  UNL     1      61.023  60.938  54.135  1.00  0.00    -0.014 C 
HETATM   15  C7  UNL     1      61.300  59.554  54.568  1.00  0.00     0.004 C 
HETATM   16  C8  UNL     1      60.043  59.096  55.294  1.00  0.00     0.000 C 
HETATM   17  C9  UNL     1      59.273  60.344  55.596  1.00  0.00     0.000 C 
HETATM   18  C10 UNL     1      60.206  61.493  55.327  1.00  0.00     0.004 C 
ENDBRANCH  13  14
ENDBRANCH  12  13
ENDBRANCH   6  12
ENDBRANCH   1   3
BRANCH   1  19
HETATM   19  N3  UNL     1      61.031  57.709  46.661  1.00  0.00    -0.201 N 
HETATM   20  N4  UNL     1      60.713  56.482  46.338  1.00  0.00    -0.223 N 
HETATM   21  N5  UNL     1      60.492  56.409  45.053  1.00  0.00    -0.268 N 
ATOM     22  H4  UNL     1      60.649  55.701  46.990  1.00  0.00     0.210 HD
HETATM   23  C13 UNL     1      60.673  57.623  44.529  1.00  0.00     0.170 A 
ATOM     24  H5  UNL     1      60.227  55.569  44.538  1.00  0.00     0.190 HD
HETATM   25  N7  UNL     1      61.010  58.424  45.553  1.00  0.00    -0.265 N 
ATOM     26  H7  UNL     1      61.216  59.421  45.484  1.00  0.00     0.190 HD
BRANCH  23  27
HETATM   27  C14 UNL     1      60.534  58.037  43.098  1.00  0.00     0.387 C 
BRANCH  27  28
HETATM   28  N6  UNL     1      60.112  59.422  43.102  1.00  0.00    -0.046 N 
ATOM     29  H63 UNL     1      59.163  59.553  43.454  1.00  0.00     0.277 HD
ATOM     30  H62 UNL     1      60.589  59.985  43.806  1.00  0.00     0.277 HD
ATOM     31  H61 UNL     1      60.241  59.773  42.153  1.00  0.00     0.277 HD
ENDBRANCH  27  28
BRANCH  27  32
HETATM   32  O2  UNL     1      61.722  57.849  42.407  1.00  0.00    -0.364 OA
ATOM     33  H2  UNL     1      61.909  56.925  42.294  1.00  0.00     0.212 HD
ENDBRANCH  27  32
ENDBRANCH  23  27
ENDBRANCH   1  19
TORSDOF 8
ENDMDL
MODEL 4
REMARK VINA RESULT: -7.185356877      1.571      2.065
REMARK  8 active torsions:
REMARK  status: ('A' for Active; 'I' for Inactive)
REMARK       I    between atoms: N2_5  and  C3_6 
REMARK    1  A    between atoms: C3_6  and  C4_8 
REMARK    2  A    between atoms: C4_8  and  C5_9 
REMARK    3  A    between atoms: C5_9  and  C6_10 
REMARK    4  A    between atoms: C11_15  and  C12_16 
REMARK    5  A    between atoms: C12_16  and  N3_18 
REMARK    6  A    between atoms: C13_23  and  C14_24 
REMARK    7  A    between atoms: C14_24  and  N6_25 
REMARK    8  A    between atoms: C14_24  and  O2_29 
ROOT
HETATM    1  C12 UNL     1      61.083  59.039  47.027  1.00  0.00     0.225 C 
HETATM    2 BR1  UNL     1      60.880  57.822  45.523  1.00  0.00    -0.062 Br
ENDROOT
BRANCH   1   3
HETATM    3  C11 UNL     1      61.806  58.293  48.106  1.00  0.00     0.153 C 
HETATM    4  N2  UNL     1      61.156  58.372  49.397  1.00  0.00    -0.253 N 
HETATM    5  N1  UNL     1      60.425  57.214  49.562  1.00  0.00    -0.304 N 
HETATM    6  C3  UNL     1      61.227  59.428  50.359  1.00  0.00     0.238 C 
HETATM    7  C2  UNL     1      60.765  56.307  48.713  1.00  0.00     0.002 C 
ATOM      8  H1  UNL     1      59.701  57.091  50.270  1.00  0.00     0.186 HD
HETATM    9  C1  UNL     1      60.135  54.961  48.667  1.00  0.00     0.065 C 
HETATM   10  C15 UNL     1      61.857  56.805  47.810  1.00  0.00     0.084 C 
HETATM   11  O1  UNL     1      61.941  60.432  50.067  1.00  0.00    -0.272 OA
BRANCH   6  12
HETATM   12  C4  UNL     1      60.516  59.345  51.618  1.00  0.00     0.105 C 
BRANCH  12  13
HETATM   13  C5  UNL     1      60.595  60.428  52.608  1.00  0.00     0.014 C 
BRANCH  13  14
HETATM   14  C6  UNL     1      61.292  60.222  53.887  1.00  0.00    -0.014 C 
HETATM   15  C7  UNL     1      61.233  58.900  54.544  1.00  0.00     0.004 C 
HETATM   16  C8  UNL     1      59.881  58.854  55.242  1.00  0.00     0.000 C 
HETATM   17  C9  UNL     1      59.406  60.272  55.298  1.00  0.00     0.000 C 
HETATM   18  C10 UNL     1      60.584  61.129  54.923  1.00  0.00     0.004 C 
ENDBRANCH  13  14
ENDBRANCH  12  13
ENDBRANCH   6  12
ENDBRANCH   1   3
BRANCH   1  19
HETATM   19  N3  UNL     1      59.768  59.495  47.423  1.00  0.00    -0.201 N 
HETATM   20  N4  UNL     1      58.641  58.846  47.276  1.00  0.00    -0.223 N 
HETATM   21  N5  UNL     1      57.656  59.562  47.748  1.00  0.00    -0.268 N 
ATOM     22  H4  UNL     1      58.546  57.921  46.857  1.00  0.00     0.210 HD
HETATM   23  C13 UNL     1      58.159  60.708  48.212  1.00  0.00     0.170 A 
ATOM     24  H5  UNL     1      56.672  59.292  47.760  1.00  0.00     0.190 HD
HETATM   25  N7  UNL     1      59.484  60.647  47.999  1.00  0.00    -0.265 N 
ATOM     26  H7  UNL     1      60.159  61.372  48.243  1.00  0.00     0.190 HD
BRANCH  23  27
HETATM   27  C14 UNL     1      57.423  61.845  48.847  1.00  0.00     0.387 C 
BRANCH  27  28
HETATM   28  N6  UNL     1      58.334  62.460  49.789  1.00  0.00    -0.046 N 
ATOM     29  H63 UNL     1      59.018  61.807  50.172  1.00  0.00     0.277 HD
ATOM     30  H62 UNL     1      58.997  63.098  49.349  1.00  0.00     0.277 HD
ATOM     31  H61 UNL     1      57.761  62.907  50.505  1.00  0.00     0.277 HD
ENDBRANCH  27  28
BRANCH  27  32
HETATM   32  O2  UNL     1      56.970  62.741  47.889  1.00  0.00    -0.364 OA
ATOM     33  H2  UNL     1      56.023  62.721  47.824  1.00  0.00     0.212 HD
ENDBRANCH  27  32
ENDBRANCH  23  27
ENDBRANCH   1  19
TORSDOF 8
ENDMDL
MODEL 5
REMARK VINA RESULT: -7.025196754      2.263      2.894
REMARK  8 active torsions:
REMARK  status: ('A' for Active; 'I' for Inactive)
REMARK       I    between atoms: N2_5  and  C3_6 
REMARK    1  A    between atoms: C3_6  and  C4_8 
REMARK    2  A    between atoms: C4_8  and  C5_9 
REMARK    3  A    between atoms: C5_9  and  C6_10 
REMARK    4  A    between atoms: C11_15  and  C12_16 
REMARK    5  A    between atoms: C12_16  and  N3_18 
REMARK    6  A    between atoms: C13_23  and  C14_24 
REMARK    7  A    between atoms: C14_24  and  N6_25 
REMARK    8  A    between atoms: C14_24  and  O2_29 
ROOT
HETATM    1  C12 UNL     1      61.627  58.360  46.989  1.00  0.00     0.225 C 
HETATM    2 BR1  UNL     1      60.984  56.686  46.235  1.00  0.00    -0.062 Br
ENDROOT
BRANCH   1   3
HETATM    3  C11 UNL     1      62.213  58.046  48.331  1.00  0.00     0.153 C 
HETATM    4  N2  UNL     1      61.471  58.622  49.433  1.00  0.00    -0.253 N 
HETATM    5  N1  UNL     1      60.653  57.634  49.940  1.00  0.00    -0.304 N 
HETATM    6  C3  UNL     1      61.538  59.957  49.941  1.00  0.00     0.238 C 
HETATM    7  C2  UNL     1      60.996  56.465  49.522  1.00  0.00     0.002 C 
ATOM      8  H1  UNL     1      59.870  57.808  50.570  1.00  0.00     0.186 HD
HETATM    9  C1  UNL     1      60.282  55.221  49.913  1.00  0.00     0.065 C 
HETATM   10  C15 UNL     1      62.186  56.554  48.610  1.00  0.00     0.084 C 
HETATM   11  O1  UNL     1      62.338  60.755  49.370  1.00  0.00    -0.272 OA
BRANCH   6  12
HETATM   12  C4  UNL     1      60.727  60.373  51.067  1.00  0.00     0.105 C 
BRANCH  12  13
HETATM   13  C5  UNL     1      60.268  61.763  51.200  1.00  0.00     0.014 C 
BRANCH  13  14
HETATM   14  C6  UNL     1      60.742  62.602  52.312  1.00  0.00    -0.014 C 
HETATM   15  C7  UNL     1      59.999  62.606  53.588  1.00  0.00     0.004 C 
HETATM   16  C8  UNL     1      58.811  63.530  53.363  1.00  0.00     0.000 C 
HETATM   17  C9  UNL     1      59.137  64.317  52.133  1.00  0.00     0.000 C 
HETATM   18  C10 UNL     1      60.593  64.071  51.846  1.00  0.00     0.004 C 
ENDBRANCH  13  14
ENDBRANCH  12  13
ENDBRANCH   6  12
ENDBRANCH   1   3
BRANCH   1  19
HETATM   19  N3  UNL     1      60.517  59.287  47.045  1.00  0.00    -0.201 N 
HETATM   20  N4  UNL     1      60.569  60.579  46.843  1.00  0.00    -0.223 N 
HETATM   21  N5  UNL     1      59.377  61.094  46.976  1.00  0.00    -0.268 N 
ATOM     22  H4  UNL     1      61.414  61.104  46.617  1.00  0.00     0.210 HD
HETATM   23  C13 UNL     1      58.528  60.108  47.273  1.00  0.00     0.170 A 
ATOM     24  H5  UNL     1      59.135  62.079  46.870  1.00  0.00     0.190 HD
HETATM   25  N7  UNL     1      59.262  58.983  47.312  1.00  0.00    -0.265 N 
ATOM     26  H7  UNL     1      58.906  58.049  47.515  1.00  0.00     0.190 HD
BRANCH  23  27
HETATM   27  C14 UNL     1      57.055  60.204  47.517  1.00  0.00     0.387 C 
BRANCH  27  28
HETATM   28  N6  UNL     1      56.550  61.230  46.628  1.00  0.00    -0.046 N 
ATOM     29  H63 UNL     1      55.875  61.852  47.074  1.00  0.00     0.277 HD
ATOM     30  H62 UNL     1      57.246  61.939  46.396  1.00  0.00     0.277 HD
ATOM     31  H61 UNL     1      56.175  60.752  45.808  1.00  0.00     0.277 HD
ENDBRANCH  27  28
BRANCH  27  32
HETATM   32  O2  UNL     1      56.435  58.979  47.315  1.00  0.00    -0.364 OA
ATOM     33  H2  UNL     1      56.093  58.912  46.431  1.00  0.00     0.212 HD
ENDBRANCH  27  32
ENDBRANCH  23  27
ENDBRANCH   1  19
TORSDOF 8
ENDMDL
