MODEL 1
REMARK VINA RESULT: -7.573792044      0.000      0.000
REMARK  6 active torsions:
REMARK  status: ('A' for Active; 'I' for Inactive)
REMARK    1  A    between atoms: C2_2  and  N1_4 
REMARK    2  A    between atoms: N1_4  and  C4_5 
REMARK    3  A    between atoms: N1_4  and  C7_14 
REMARK    4  A    between atoms: C4_5  and  C5_6 
REMARK    5  A    between atoms: N4_18  and  C11_19 
REMARK    6  A    between atoms: C13_23  and  C14_24 
ROOT
HETATM    1  C7  UNL     1      61.076  56.497  47.041  1.00  0.00     0.241 C 
HETATM    2  C8  UNL     1      62.447  56.076  47.349  1.00  0.00     0.039 C 
HETATM    3  C9  UNL     1      63.006  56.368  48.698  1.00  0.00     0.022 C 
HETATM    4  C10 UNL     1      61.988  56.696  49.731  1.00  0.00     0.124 C 
HETATM    5  N4  UNL     1      61.077  57.672  49.207  1.00  0.00    -0.363 N 
HETATM    6  C19 UNL     1      60.357  57.378  47.999  1.00  0.00     0.160 C 
ENDROOT
BRANCH   5   7
HETATM    7  C11 UNL     1      60.917  58.905  49.923  1.00  0.00     0.133 A 
HETATM    8  C12 UNL     1      61.038  58.964  51.286  1.00  0.00     0.139 A 
HETATM    9  N5  UNL     1      60.865  60.096  51.977  1.00  0.00    -0.351 N 
HETATM   10  C13 UNL     1      60.552  61.275  51.339  1.00  0.00     0.100 A 
ATOM     11  H5  UNL     1      60.966  60.085  52.991  1.00  0.00     0.166 HD
HETATM   12  N7  UNL     1      60.439  61.202  50.011  1.00  0.00    -0.287 N 
HETATM   13  N8  UNL     1      60.610  60.070  49.309  1.00  0.00    -0.283 N 
ATOM     14  H7  UNL     1      60.209  62.054  49.500  1.00  0.00     0.188 HD
ATOM     15  H8  UNL     1      60.507  60.089  48.295  1.00  0.00     0.188 HD
BRANCH  10  16
HETATM   16  C14 UNL     1      60.358  62.487  52.148  1.00  0.00     0.058 C 
HETATM   17  C15 UNL     1      59.313  63.397  51.534  1.00  0.00     0.040 C 
HETATM   18  C16 UNL     1      59.160  64.638  52.422  1.00  0.00     0.233 C 
HETATM   19  N6  UNL     1      58.674  64.188  53.709  1.00  0.00    -0.075 N 
HETATM   20  C17 UNL     1      59.726  63.431  54.355  1.00  0.00     0.233 C 
ATOM     21  H62 UNL     1      58.330  64.953  54.288  1.00  0.00     0.277 HD
ATOM     22  H61 UNL     1      57.801  63.664  53.638  1.00  0.00     0.277 HD
HETATM   23  C18 UNL     1      60.065  62.166  53.568  1.00  0.00     0.040 C 
ENDBRANCH  10  16
ENDBRANCH   5   7
BRANCH   1  24
HETATM   24  N1  UNL     1      60.181  55.425  46.627  1.00  0.00     0.105 N 
BRANCH  24  25
HETATM   25  C2  UNL     1      59.135  55.119  47.539  1.00  0.00     0.216 C 
HETATM   26  C1  UNL     1      59.325  54.092  48.573  1.00  0.00     0.042 C 
HETATM   27  C3  UNL     1      57.880  54.775  46.727  1.00  0.00     0.042 C 
ENDBRANCH  24  25
BRANCH  24  28
HETATM   28  C4  UNL     1      59.697  55.674  45.276  1.00  0.00     0.351 C 
BRANCH  28  29
HETATM   29  C5  UNL     1      60.766  55.373  44.306  1.00  0.00     0.135 A 
HETATM   30  N2  UNL     1      61.528  56.159  43.525  1.00  0.00    -0.287 N 
HETATM   31  C6  UNL     1      62.361  55.390  42.793  1.00  0.00     0.388 A 
ATOM     32  H2  UNL     1      61.484  57.177  43.491  1.00  0.00     0.172 HD
HETATM   33  O1  UNL     1      63.237  55.745  41.933  1.00  0.00    -0.236 OA
HETATM   34  O2  UNL     1      62.114  54.158  43.121  1.00  0.00    -0.179 OA
HETATM   35  N3  UNL     1      61.191  54.106  43.998  1.00  0.00    -0.242 N 
ATOM     36  H3  UNL     1      60.822  53.249  44.410  1.00  0.00     0.196 HD
ENDBRANCH  28  29
ENDBRANCH  24  28
ENDBRANCH   1  24
TORSDOF 6
ENDMDL
MODEL 2
REMARK VINA RESULT: -7.555195587      0.830      1.310
REMARK  6 active torsions:
REMARK  status: ('A' for Active; 'I' for Inactive)
REMARK    1  A    between atoms: C2_2  and  N1_4 
REMARK    2  A    between atoms: N1_4  and  C4_5 
REMARK    3  A    between atoms: N1_4  and  C7_14 
REMARK    4  A    between atoms: C4_5  and  C5_6 
REMARK    5  A    between atoms: N4_18  and  C11_19 
REMARK    6  A    between atoms: C13_23  and  C14_24 
ROOT
HETATM    1  C7  UNL     1      61.533  56.628  46.798  1.00  0.00     0.241 C 
HETATM    2  C8  UNL     1      62.799  56.089  47.306  1.00  0.00     0.039 C 
HETATM    3  C9  UNL     1      63.108  56.220  48.757  1.00  0.00     0.022 C 
HETATM    4  C10 UNL     1      61.932  56.523  49.615  1.00  0.00     0.124 C 
HETATM    5  N4  UNL     1      61.185  57.601  49.035  1.00  0.00    -0.363 N 
HETATM    6  C19 UNL     1      60.691  57.466  47.692  1.00  0.00     0.160 C 
ENDROOT
BRANCH   5   7
HETATM    7  C11 UNL     1      60.955  58.772  49.830  1.00  0.00     0.133 A 
HETATM    8  C12 UNL     1      60.587  59.963  49.263  1.00  0.00     0.139 A 
HETATM    9  N5  UNL     1      60.396  61.075  49.982  1.00  0.00    -0.351 N 
HETATM   10  C13 UNL     1      60.561  61.073  51.349  1.00  0.00     0.100 A 
ATOM     11  H5  UNL     1      60.122  61.936  49.510  1.00  0.00     0.166 HD
HETATM   12  N7  UNL     1      60.918  59.905  51.887  1.00  0.00    -0.287 N 
HETATM   13  N8  UNL     1      61.113  58.784  51.173  1.00  0.00    -0.283 N 
ATOM     14  H7  UNL     1      61.050  59.861  52.897  1.00  0.00     0.188 HD
ATOM     15  H8  UNL     1      61.386  57.927  51.653  1.00  0.00     0.188 HD
BRANCH  10  16
HETATM   16  C14 UNL     1      60.352  62.326  52.089  1.00  0.00     0.058 C 
HETATM   17  C15 UNL     1      59.251  63.158  51.462  1.00  0.00     0.040 C 
HETATM   18  C16 UNL     1      59.084  64.447  52.278  1.00  0.00     0.233 C 
HETATM   19  N6  UNL     1      58.664  64.060  53.608  1.00  0.00    -0.075 N 
HETATM   20  C17 UNL     1      59.767  63.383  54.257  1.00  0.00     0.233 C 
ATOM     21  H62 UNL     1      58.313  64.848  54.152  1.00  0.00     0.277 HD
ATOM     22  H61 UNL     1      57.809  63.503  53.603  1.00  0.00     0.277 HD
HETATM   23  C18 UNL     1      60.123  62.084  53.536  1.00  0.00     0.040 C 
ENDBRANCH  10  16
ENDBRANCH   5   7
BRANCH   1  24
HETATM   24  N1  UNL     1      60.679  55.660  46.121  1.00  0.00     0.105 N 
BRANCH  24  25
HETATM   25  C2  UNL     1      59.471  55.338  46.797  1.00  0.00     0.216 C 
HETATM   26  C1  UNL     1      59.416  54.199  47.724  1.00  0.00     0.042 C 
HETATM   27  C3  UNL     1      58.367  55.171  45.744  1.00  0.00     0.042 C 
ENDBRANCH  24  25
BRANCH  24  28
HETATM   28  C4  UNL     1      60.462  56.067  44.740  1.00  0.00     0.351 C 
BRANCH  28  29
HETATM   29  C5  UNL     1      61.641  55.708  43.929  1.00  0.00     0.135 A 
HETATM   30  N2  UNL     1      62.513  54.687  44.001  1.00  0.00    -0.287 N 
HETATM   31  C6  UNL     1      63.438  54.818  43.027  1.00  0.00     0.388 A 
ATOM     32  H2  UNL     1      62.480  53.932  44.685  1.00  0.00     0.172 HD
HETATM   33  O1  UNL     1      64.433  54.065  42.756  1.00  0.00    -0.236 OA
HETATM   34  O2  UNL     1      63.136  55.898  42.371  1.00  0.00    -0.179 OA
HETATM   35  N3  UNL     1      62.097  56.446  42.867  1.00  0.00    -0.242 N 
ATOM     36  H3  UNL     1      61.669  57.305  42.524  1.00  0.00     0.196 HD
ENDBRANCH  28  29
ENDBRANCH  24  28
ENDBRANCH   1  24
TORSDOF 6
ENDMDL
MODEL 3
REMARK VINA RESULT: -7.487267568      2.176      3.001
REMARK  6 active torsions:
REMARK  status: ('A' for Active; 'I' for Inactive)
REMARK    1  A    between atoms: C2_2  and  N1_4 
REMARK    2  A    between atoms: N1_4  and  C4_5 
REMARK    3  A    between atoms: N1_4  and  C7_14 
REMARK    4  A    between atoms: C4_5  and  C5_6 
REMARK    5  A    between atoms: N4_18  and  C11_19 
REMARK    6  A    between atoms: C13_23  and  C14_24 
ROOT
HETATM    1  C7  UNL     1      59.033  55.227  46.623  1.00  0.00     0.241 C 
HETATM    2  C8  UNL     1      58.620  56.368  45.799  1.00  0.00     0.039 C 
HETATM    3  C9  UNL     1      59.224  57.703  46.061  1.00  0.00     0.022 C 
HETATM    4  C10 UNL     1      60.477  57.670  46.860  1.00  0.00     0.124 C 
HETATM    5  N4  UNL     1      60.286  56.834  48.009  1.00  0.00    -0.363 N 
HETATM    6  C19 UNL     1      59.880  55.468  47.821  1.00  0.00     0.160 C 
ENDROOT
BRANCH   5   7
HETATM    7  C11 UNL     1      60.517  57.401  49.307  1.00  0.00     0.133 A 
HETATM    8  C12 UNL     1      60.014  56.823  50.442  1.00  0.00     0.139 A 
HETATM    9  N5  UNL     1      60.193  57.350  51.658  1.00  0.00    -0.351 N 
HETATM   10  C13 UNL     1      60.904  58.516  51.829  1.00  0.00     0.100 A 
ATOM     11  H5  UNL     1      59.797  56.880  52.471  1.00  0.00     0.166 HD
HETATM   12  N7  UNL     1      61.389  59.066  50.713  1.00  0.00    -0.287 N 
HETATM   13  N8  UNL     1      61.214  58.545  49.488  1.00  0.00    -0.283 N 
ATOM     14  H7  UNL     1      61.923  59.931  50.796  1.00  0.00     0.188 HD
ATOM     15  H8  UNL     1      61.613  59.022  48.680  1.00  0.00     0.188 HD
BRANCH  10  16
HETATM   16  C14 UNL     1      61.058  59.059  53.186  1.00  0.00     0.058 C 
HETATM   17  C15 UNL     1      60.513  60.470  53.280  1.00  0.00     0.040 C 
HETATM   18  C16 UNL     1      60.704  60.977  54.715  1.00  0.00     0.233 C 
HETATM   19  N6  UNL     1      59.916  60.124  55.579  1.00  0.00    -0.075 N 
HETATM   20  C17 UNL     1      60.519  58.807  55.596  1.00  0.00     0.233 C 
ATOM     21  H62 UNL     1      59.800  60.513  56.514  1.00  0.00     0.277 HD
ATOM     22  H61 UNL     1      58.931  60.101  55.315  1.00  0.00     0.277 HD
HETATM   23  C18 UNL     1      60.476  58.159  54.213  1.00  0.00     0.040 C 
ENDBRANCH  10  16
ENDBRANCH   5   7
BRANCH   1  24
HETATM   24  N1  UNL     1      59.580  54.098  45.882  1.00  0.00     0.105 N 
BRANCH  24  25
HETATM   25  C2  UNL     1      58.883  52.870  46.043  1.00  0.00     0.216 C 
HETATM   26  C1  UNL     1      59.101  51.761  45.104  1.00  0.00     0.042 C 
HETATM   27  C3  UNL     1      57.382  53.179  46.102  1.00  0.00     0.042 C 
ENDBRANCH  24  25
BRANCH  24  28
HETATM   28  C4  UNL     1      59.765  54.463  44.483  1.00  0.00     0.351 C 
BRANCH  28  29
HETATM   29  C5  UNL     1      61.204  54.467  44.161  1.00  0.00     0.135 A 
HETATM   30  N2  UNL     1      61.922  53.837  43.215  1.00  0.00    -0.287 N 
HETATM   31  C6  UNL     1      63.225  54.161  43.350  1.00  0.00     0.388 A 
ATOM     32  H2  UNL     1      61.541  53.211  42.505  1.00  0.00     0.172 HD
HETATM   33  O1  UNL     1      64.226  53.776  42.657  1.00  0.00    -0.236 OA
HETATM   34  O2  UNL     1      63.302  54.975  44.359  1.00  0.00    -0.179 OA
HETATM   35  N3  UNL     1      62.147  55.177  44.859  1.00  0.00    -0.242 N 
ATOM     36  H3  UNL     1      61.952  55.777  45.660  1.00  0.00     0.196 HD
ENDBRANCH  28  29
ENDBRANCH  24  28
ENDBRANCH   1  24
TORSDOF 6
ENDMDL
MODEL 4
REMARK VINA RESULT: -7.429997687      2.976      3.685
REMARK  6 active torsions:
REMARK  status: ('A' for Active; 'I' for Inactive)
REMARK    1  A    between atoms: C2_2  and  N1_4 
REMARK    2  A    between atoms: N1_4  and  C4_5 
REMARK    3  A    between atoms: N1_4  and  C7_14 
REMARK    4  A    between atoms: C4_5  and  C5_6 
REMARK    5  A    between atoms: N4_18  and  C11_19 
REMARK    6  A    between atoms: C13_23  and  C14_24 
ROOT
HETATM    1  C7  UNL     1      58.645  57.851  46.533  1.00  0.00     0.241 C 
HETATM    2  C8  UNL     1      59.720  58.180  45.591  1.00  0.00     0.039 C 
HETATM    3  C9  UNL     1      60.947  58.852  46.104  1.00  0.00     0.022 C 
HETATM    4  C10 UNL     1      61.133  58.761  47.576  1.00  0.00     0.124 C 
HETATM    5  N4  UNL     1      59.907  59.112  48.232  1.00  0.00    -0.363 N 
HETATM    6  C19 UNL     1      58.712  58.376  47.922  1.00  0.00     0.160 C 
ENDROOT
BRANCH   5   7
HETATM    7  C11 UNL     1      59.929  60.186  49.183  1.00  0.00     0.133 A 
HETATM    8  C12 UNL     1      60.911  60.282  50.133  1.00  0.00     0.139 A 
HETATM    9  N5  UNL     1      60.936  61.257  51.048  1.00  0.00    -0.351 N 
HETATM   10  C13 UNL     1      59.960  62.228  51.077  1.00  0.00     0.100 A 
ATOM     11  H5  UNL     1      61.690  61.283  51.734  1.00  0.00     0.166 HD
HETATM   12  N7  UNL     1      59.011  62.121  50.144  1.00  0.00    -0.287 N 
HETATM   13  N8  UNL     1      58.977  61.145  49.222  1.00  0.00    -0.283 N 
ATOM     14  H7  UNL     1      58.269  62.822  50.130  1.00  0.00     0.188 HD
ATOM     15  H8  UNL     1      58.220  61.127  48.540  1.00  0.00     0.188 HD
BRANCH  10  16
HETATM   16  C14 UNL     1      60.027  63.269  52.112  1.00  0.00     0.058 C 
HETATM   17  C15 UNL     1      59.072  64.406  51.812  1.00  0.00     0.040 C 
HETATM   18  C16 UNL     1      59.191  65.455  52.925  1.00  0.00     0.233 C 
HETATM   19  N6  UNL     1      58.774  64.821  54.158  1.00  0.00    -0.075 N 
HETATM   20  C17 UNL     1      59.762  63.825  54.517  1.00  0.00     0.233 C 
ATOM     21  H62 UNL     1      58.605  65.493  54.906  1.00  0.00     0.277 HD
ATOM     22  H61 UNL     1      57.831  64.436  54.102  1.00  0.00     0.277 HD
HETATM   23  C18 UNL     1      59.832  62.711  53.474  1.00  0.00     0.040 C 
ENDBRANCH  10  16
ENDBRANCH   5   7
BRANCH   1  24
HETATM   24  N1  UNL     1      58.278  56.442  46.581  1.00  0.00     0.105 N 
BRANCH  24  25
HETATM   25  C2  UNL     1      57.303  56.034  45.630  1.00  0.00     0.216 C 
HETATM   26  C1  UNL     1      56.134  55.250  46.051  1.00  0.00     0.042 C 
HETATM   27  C3  UNL     1      58.023  55.281  44.504  1.00  0.00     0.042 C 
ENDBRANCH  24  25
BRANCH  24  28
HETATM   28  C4  UNL     1      59.476  55.614  46.552  1.00  0.00     0.351 C 
BRANCH  28  29
HETATM   29  C5  UNL     1      59.641  54.940  47.852  1.00  0.00     0.135 A 
HETATM   30  N2  UNL     1      59.099  53.823  48.369  1.00  0.00    -0.287 N 
HETATM   31  C6  UNL     1      59.566  53.636  49.622  1.00  0.00     0.388 A 
ATOM     32  H2  UNL     1      58.438  53.213  47.890  1.00  0.00     0.172 HD
HETATM   33  O1  UNL     1      59.297  52.700  50.449  1.00  0.00    -0.236 OA
HETATM   34  O2  UNL     1      60.380  54.618  49.865  1.00  0.00    -0.179 OA
HETATM   35  N3  UNL     1      60.449  55.400  48.861  1.00  0.00    -0.242 N 
ATOM     36  H3  UNL     1      61.021  56.243  48.813  1.00  0.00     0.196 HD
ENDBRANCH  28  29
ENDBRANCH  24  28
ENDBRANCH   1  24
TORSDOF 6
ENDMDL
MODEL 5
REMARK VINA RESULT: -7.357999329      4.260      9.792
REMARK  6 active torsions:
REMARK  status: ('A' for Active; 'I' for Inactive)
REMARK    1  A    between atoms: C2_2  and  N1_4 
REMARK    2  A    between atoms: N1_4  and  C4_5 
REMARK    3  A    between atoms: N1_4  and  C7_14 
REMARK    4  A    between atoms: C4_5  and  C5_6 
REMARK    5  A    between atoms: N4_18  and  C11_19 
REMARK    6  A    between atoms: C13_23  and  C14_24 
ROOT
HETATM    1  C7  UNL     1      61.645  56.778  49.425  1.00  0.00     0.241 C 
HETATM    2  C8  UNL     1      62.934  56.570  48.756  1.00  0.00     0.039 C 
HETATM    3  C9  UNL     1      62.945  56.158  47.325  1.00  0.00     0.022 C 
HETATM    4  C10 UNL     1      61.665  56.389  46.604  1.00  0.00     0.124 C 
HETATM    5  N4  UNL     1      60.578  55.883  47.392  1.00  0.00    -0.363 N 
HETATM    6  C19 UNL     1      60.394  56.378  48.729  1.00  0.00     0.160 C 
ENDROOT
BRANCH   5   7
HETATM    7  C11 UNL     1      59.712  54.904  46.803  1.00  0.00     0.133 A 
HETATM    8  C12 UNL     1      58.647  54.382  47.489  1.00  0.00     0.139 A 
HETATM    9  N5  UNL     1      57.844  53.447  46.970  1.00  0.00    -0.351 N 
HETATM   10  C13 UNL     1      58.052  52.957  45.701  1.00  0.00     0.100 A 
ATOM     11  H5  UNL     1      57.065  53.092  47.524  1.00  0.00     0.166 HD
HETATM   12  N7  UNL     1      59.093  53.476  45.045  1.00  0.00    -0.287 N 
HETATM   13  N8  UNL     1      59.905  54.414  45.557  1.00  0.00    -0.283 N 
ATOM     14  H7  UNL     1      59.281  53.141  44.100  1.00  0.00     0.188 HD
ATOM     15  H8  UNL     1      60.682  54.764  44.997  1.00  0.00     0.188 HD
BRANCH  10  16
HETATM   16  C14 UNL     1      57.147  51.920  45.185  1.00  0.00     0.058 C 
HETATM   17  C15 UNL     1      55.878  52.527  44.621  1.00  0.00     0.040 C 
HETATM   18  C16 UNL     1      54.981  51.396  44.102  1.00  0.00     0.233 C 
HETATM   19  N6  UNL     1      55.694  50.744  43.024  1.00  0.00    -0.075 N 
HETATM   20  C17 UNL     1      56.834  50.048  43.585  1.00  0.00     0.233 C 
ATOM     21  H62 UNL     1      55.094  50.131  42.472  1.00  0.00     0.277 HD
ATOM     22  H61 UNL     1      55.956  51.390  42.280  1.00  0.00     0.277 HD
HETATM   23  C18 UNL     1      57.826  51.025  44.214  1.00  0.00     0.040 C 
ENDBRANCH  10  16
ENDBRANCH   5   7
BRANCH   1  24
HETATM   24  N1  UNL     1      61.458  58.104  50.001  1.00  0.00     0.105 N 
BRANCH  24  25
HETATM   25  C2  UNL     1      61.559  59.185  49.085  1.00  0.00     0.216 C 
HETATM   26  C1  UNL     1      62.567  60.236  49.280  1.00  0.00     0.042 C 
HETATM   27  C3  UNL     1      60.177  59.841  48.970  1.00  0.00     0.042 C 
ENDBRANCH  24  25
BRANCH  24  28
HETATM   28  C4  UNL     1      60.229  58.138  50.782  1.00  0.00     0.351 C 
BRANCH  28  29
HETATM   29  C5  UNL     1      60.550  58.412  52.195  1.00  0.00     0.135 A 
HETATM   30  N2  UNL     1      60.509  57.646  53.299  1.00  0.00    -0.287 N 
HETATM   31  C6  UNL     1      60.890  58.377  54.367  1.00  0.00     0.388 A 
ATOM     32  H2  UNL     1      60.232  56.665  53.325  1.00  0.00     0.172 HD
HETATM   33  O1  UNL     1      60.983  58.025  55.591  1.00  0.00    -0.236 OA
HETATM   34  O2  UNL     1      61.161  59.568  53.924  1.00  0.00    -0.179 OA
HETATM   35  N3  UNL     1      60.974  59.629  52.665  1.00  0.00    -0.242 N 
ATOM     36  H3  UNL     1      61.118  60.460  52.092  1.00  0.00     0.196 HD
ENDBRANCH  28  29
ENDBRANCH  24  28
ENDBRANCH   1  24
TORSDOF 6
ENDMDL
