MODEL 1
REMARK VINA RESULT: -8.016729892      0.000      0.000
REMARK  5 active torsions:
REMARK  status: ('A' for Active; 'I' for Inactive)
REMARK    1  A    between atoms: N1_2  and  C2_5 
REMARK    2  A    between atoms: C2_5  and  O1_6 
REMARK    3  A    between atoms: C2_5  and  C3_8 
REMARK    4  A    between atoms: C4_9  and  N2_10 
REMARK       I    between atoms: N2_10  and  C5_12 
REMARK    5  A    between atoms: C5_12  and  C6_14 
ROOT
HETATM    1  C3  UNL     1       2.919  35.652  -3.699  1.00  0.00     0.041 A 
HETATM    2  C4  UNL     1       2.922  34.470  -3.007  1.00  0.00     0.089 A 
HETATM    3  S1  UNL     1       4.518  34.505  -2.256  1.00  0.00    -0.054 SA
HETATM    4  C12 UNL     1       5.059  35.992  -2.846  1.00  0.00     0.080 A 
HETATM    5  C13 UNL     1       4.003  36.448  -3.624  1.00  0.00    -0.001 A 
HETATM    6  C14 UNL     1       3.932  37.823  -4.347  1.00  0.00     0.122 C 
HETATM    7  C15 UNL     1       4.916  38.635  -3.699  1.00  0.00    -0.178 C 
HETATM    8  C16 UNL     1       5.748  39.640  -3.298  1.00  0.00     0.081 C 
HETATM    9  C17 UNL     1       6.789  38.973  -2.329  1.00  0.00     0.031 C 
HETATM   10  C18 UNL     1       7.206  37.607  -2.721  1.00  0.00     0.121 C 
HETATM   11  N3  UNL     1       6.386  36.469  -2.442  1.00  0.00    -0.384 N 
ATOM     12  H3  UNL     1       6.842  35.823  -1.797  1.00  0.00     0.160 HD
ENDROOT
BRANCH   2  13
HETATM   13  N2  UNL     1       1.950  33.500  -2.643  1.00  0.00    -0.320 N 
HETATM   14  C5  UNL     1       1.784  32.651  -1.567  1.00  0.00     0.227 C 
HETATM   15  O2  UNL     1       2.497  32.460  -0.557  1.00  0.00    -0.273 OA
ATOM     16  H2  UNL     1       1.205  33.411  -3.334  1.00  0.00     0.169 HD
BRANCH  14  17
HETATM   17  C6  UNL     1       0.518  31.781  -1.585  1.00  0.00     0.085 C 
HETATM   18  C7  UNL     1      -0.168  31.849  -0.263  1.00  0.00     0.015 C 
HETATM   19  C8  UNL     1      -1.475  31.108  -0.382  1.00  0.00     0.008 C 
HETATM   20  C9  UNL     1      -2.413  31.995  -1.186  1.00  0.00     0.078 C 
HETATM   21  C10 UNL     1      -1.726  32.487  -2.409  1.00  0.00     0.127 C 
HETATM   22  O3  UNL     1      -2.345  33.201  -3.165  1.00  0.00    -0.298 OA
HETATM   23  C11 UNL     1      -0.329  32.150  -2.752  1.00  0.00     0.092 C 
ENDBRANCH  14  17
ENDBRANCH   2  13
BRANCH   1  24
HETATM   24  C2  UNL     1       1.777  35.958  -4.676  1.00  0.00     0.356 C 
BRANCH  24  25
HETATM   25  N1  UNL     1       1.629  34.932  -5.694  1.00  0.00    -0.049 N 
HETATM   26  C1  UNL     1       0.289  34.406  -5.750  1.00  0.00     0.270 C 
ATOM     27  H12 UNL     1       2.313  34.185  -5.566  1.00  0.00     0.280 HD
ATOM     28  H11 UNL     1       1.929  35.273  -6.607  1.00  0.00     0.280 HD
ENDBRANCH  24  25
BRANCH  24  29
HETATM   29  O1  UNL     1       0.537  35.786  -3.974  1.00  0.00    -0.366 OA
ATOM     30  H1  UNL     1       0.021  36.467  -4.389  1.00  0.00     0.212 HD
ENDBRANCH  24  29
ENDBRANCH   1  24
TORSDOF 5
ENDMDL
MODEL 2
REMARK VINA RESULT: -7.912039334      2.532      7.944
REMARK  5 active torsions:
REMARK  status: ('A' for Active; 'I' for Inactive)
REMARK    1  A    between atoms: N1_2  and  C2_5 
REMARK    2  A    between atoms: C2_5  and  O1_6 
REMARK    3  A    between atoms: C2_5  and  C3_8 
REMARK    4  A    between atoms: C4_9  and  N2_10 
REMARK       I    between atoms: N2_10  and  C5_12 
REMARK    5  A    between atoms: C5_12  and  C6_14 
ROOT
HETATM    1  C3  UNL     1       2.810  34.888  -2.755  1.00  0.00     0.041 A 
HETATM    2  C4  UNL     1       3.067  35.860  -3.685  1.00  0.00     0.089 A 
HETATM    3  S1  UNL     1       1.792  35.563  -4.867  1.00  0.00    -0.054 SA
HETATM    4  C12 UNL     1       1.024  34.262  -4.113  1.00  0.00     0.080 A 
HETATM    5  C13 UNL     1       1.764  34.063  -2.955  1.00  0.00    -0.001 A 
HETATM    6  C14 UNL     1       1.444  33.030  -1.836  1.00  0.00     0.122 C 
HETATM    7  C15 UNL     1       0.069  32.686  -2.030  1.00  0.00    -0.178 C 
HETATM    8  C16 UNL     1      -1.189  32.163  -1.949  1.00  0.00     0.081 C 
HETATM    9  C17 UNL     1      -1.918  32.594  -3.271  1.00  0.00     0.031 C 
HETATM   10  C18 UNL     1      -1.056  32.597  -4.476  1.00  0.00     0.121 C 
HETATM   11  N3  UNL     1      -0.162  33.678  -4.749  1.00  0.00    -0.384 N 
ATOM     12  H3  UNL     1      -0.413  34.169  -5.607  1.00  0.00     0.160 HD
ENDROOT
BRANCH   2  13
HETATM   13  N2  UNL     1       3.881  37.023  -3.746  1.00  0.00    -0.320 N 
HETATM   14  C5  UNL     1       4.457  37.750  -4.767  1.00  0.00     0.227 C 
HETATM   15  O2  UNL     1       4.453  37.568  -6.006  1.00  0.00    -0.273 OA
ATOM     16  H2  UNL     1       4.086  37.408  -2.824  1.00  0.00     0.169 HD
BRANCH  14  17
HETATM   17  C6  UNL     1       5.245  39.000  -4.345  1.00  0.00     0.085 C 
HETATM   18  C7  UNL     1       4.486  39.756  -3.308  1.00  0.00     0.015 C 
HETATM   19  C8  UNL     1       5.366  40.878  -2.819  1.00  0.00     0.008 C 
HETATM   20  C9  UNL     1       6.429  40.252  -1.931  1.00  0.00     0.078 C 
HETATM   21  C10 UNL     1       7.036  39.078  -2.613  1.00  0.00     0.127 C 
HETATM   22  O3  UNL     1       7.911  38.472  -2.038  1.00  0.00    -0.298 OA
HETATM   23  C11 UNL     1       6.628  38.613  -3.955  1.00  0.00     0.092 C 
ENDBRANCH  14  17
ENDBRANCH   2  13
BRANCH   1  24
HETATM   24  C2  UNL     1       3.808  34.642  -1.618  1.00  0.00     0.356 C 
BRANCH  24  25
HETATM   25  N1  UNL     1       5.184  34.859  -2.030  1.00  0.00    -0.049 N 
HETATM   26  C1  UNL     1       5.887  35.752  -1.145  1.00  0.00     0.270 C 
ATOM     27  H12 UNL     1       5.232  35.185  -2.996  1.00  0.00     0.280 HD
ATOM     28  H11 UNL     1       5.682  33.974  -2.132  1.00  0.00     0.280 HD
ENDBRANCH  24  25
BRANCH  24  29
HETATM   29  O1  UNL     1       3.668  35.708  -0.668  1.00  0.00    -0.366 OA
ATOM     30  H1  UNL     1       3.117  36.299  -1.168  1.00  0.00     0.212 HD
ENDBRANCH  24  29
ENDBRANCH   1  24
TORSDOF 5
ENDMDL
MODEL 3
REMARK VINA RESULT: -7.853899408      2.842      7.974
REMARK  5 active torsions:
REMARK  status: ('A' for Active; 'I' for Inactive)
REMARK    1  A    between atoms: N1_2  and  C2_5 
REMARK    2  A    between atoms: C2_5  and  O1_6 
REMARK    3  A    between atoms: C2_5  and  C3_8 
REMARK    4  A    between atoms: C4_9  and  N2_10 
REMARK       I    between atoms: N2_10  and  C5_12 
REMARK    5  A    between atoms: C5_12  and  C6_14 
ROOT
HETATM    1  C3  UNL     1       2.234  34.999  -2.386  1.00  0.00     0.041 A 
HETATM    2  C4  UNL     1       2.041  36.253  -2.901  1.00  0.00     0.089 A 
HETATM    3  S1  UNL     1       0.396  36.129  -3.526  1.00  0.00    -0.054 SA
HETATM    4  C12 UNL     1       0.063  34.532  -3.089  1.00  0.00     0.080 A 
HETATM    5  C13 UNL     1       1.230  34.105  -2.468  1.00  0.00    -0.001 A 
HETATM    6  C14 UNL     1       1.448  32.721  -1.792  1.00  0.00     0.122 C 
HETATM    7  C15 UNL     1       0.132  32.208  -1.564  1.00  0.00    -0.178 C 
HETATM    8  C16 UNL     1      -0.956  31.460  -1.215  1.00  0.00     0.081 C 
HETATM    9  C17 UNL     1      -2.189  32.158  -1.891  1.00  0.00     0.031 C 
HETATM   10  C18 UNL     1      -1.918  32.720  -3.235  1.00  0.00     0.121 C 
HETATM   11  N3  UNL     1      -1.260  33.979  -3.397  1.00  0.00    -0.384 N 
ATOM     12  H3  UNL     1      -1.866  34.669  -3.840  1.00  0.00     0.160 HD
ENDROOT
BRANCH   2  13
HETATM   13  N2  UNL     1       2.714  37.502  -2.822  1.00  0.00    -0.320 N 
HETATM   14  C5  UNL     1       3.107  38.328  -1.789  1.00  0.00     0.227 C 
HETATM   15  O2  UNL     1       2.950  38.222  -0.552  1.00  0.00    -0.273 OA
ATOM     16  H2  UNL     1       2.963  37.873  -3.740  1.00  0.00     0.169 HD
BRANCH  14  17
HETATM   17  C6  UNL     1       3.868  39.600  -2.193  1.00  0.00     0.085 C 
HETATM   18  C7  UNL     1       3.971  40.526  -1.030  1.00  0.00     0.015 C 
HETATM   19  C8  UNL     1       4.854  41.679  -1.434  1.00  0.00     0.008 C 
HETATM   20  C9  UNL     1       6.282  41.156  -1.454  1.00  0.00     0.078 C 
HETATM   21  C10 UNL     1       6.345  39.875  -2.206  1.00  0.00     0.127 C 
HETATM   22  O3  UNL     1       7.420  39.332  -2.323  1.00  0.00    -0.298 OA
HETATM   23  C11 UNL     1       5.166  39.230  -2.820  1.00  0.00     0.092 C 
ENDBRANCH  14  17
ENDBRANCH   2  13
BRANCH   1  24
HETATM   24  C2  UNL     1       3.627  34.584  -1.898  1.00  0.00     0.356 C 
BRANCH  24  25
HETATM   25  N1  UNL     1       4.691  35.172  -2.693  1.00  0.00    -0.049 N 
HETATM   26  C1  UNL     1       5.712  35.779  -1.877  1.00  0.00     0.270 C 
ATOM     27  H12 UNL     1       4.319  35.837  -3.372  1.00  0.00     0.280 HD
ATOM     28  H11 UNL     1       5.091  34.489  -3.336  1.00  0.00     0.280 HD
ENDBRANCH  24  25
BRANCH  24  29
HETATM   29  O1  UNL     1       3.870  35.239  -0.644  1.00  0.00    -0.366 OA
ATOM     30  H1  UNL     1       4.770  34.974  -0.495  1.00  0.00     0.212 HD
ENDBRANCH  24  29
ENDBRANCH   1  24
TORSDOF 5
ENDMDL
MODEL 4
REMARK VINA RESULT: -7.751415707      1.577      1.801
REMARK  5 active torsions:
REMARK  status: ('A' for Active; 'I' for Inactive)
REMARK    1  A    between atoms: N1_2  and  C2_5 
REMARK    2  A    between atoms: C2_5  and  O1_6 
REMARK    3  A    between atoms: C2_5  and  C3_8 
REMARK    4  A    between atoms: C4_9  and  N2_10 
REMARK       I    between atoms: N2_10  and  C5_12 
REMARK    5  A    between atoms: C5_12  and  C6_14 
ROOT
HETATM    1  C3  UNL     1       2.434  36.703  -3.133  1.00  0.00     0.041 A 
HETATM    2  C4  UNL     1       2.750  35.409  -2.813  1.00  0.00     0.089 A 
HETATM    3  S1  UNL     1       4.487  35.530  -2.529  1.00  0.00    -0.054 SA
HETATM    4  C12 UNL     1       4.691  37.182  -2.814  1.00  0.00     0.080 A 
HETATM    5  C13 UNL     1       3.414  37.627  -3.133  1.00  0.00    -0.001 A 
HETATM    6  C14 UNL     1       3.006  39.102  -3.411  1.00  0.00     0.122 C 
HETATM    7  C15 UNL     1       4.061  39.890  -2.849  1.00  0.00    -0.178 C 
HETATM    8  C16 UNL     1       4.879  40.897  -2.424  1.00  0.00     0.081 C 
HETATM    9  C17 UNL     1       6.217  40.203  -1.982  1.00  0.00     0.031 C 
HETATM   10  C18 UNL     1       6.621  39.054  -2.825  1.00  0.00     0.121 C 
HETATM   11  N3  UNL     1       6.029  37.764  -2.660  1.00  0.00    -0.384 N 
ATOM     12  H3  UNL     1       6.712  37.069  -2.357  1.00  0.00     0.160 HD
ENDROOT
BRANCH   2  13
HETATM   13  N2  UNL     1       2.023  34.234  -2.484  1.00  0.00    -0.320 N 
HETATM   14  C5  UNL     1       1.115  33.437  -3.151  1.00  0.00     0.227 C 
HETATM   15  O2  UNL     1       0.620  33.542  -4.296  1.00  0.00    -0.273 OA
ATOM     16  H2  UNL     1       2.216  33.904  -1.538  1.00  0.00     0.169 HD
BRANCH  14  17
HETATM   17  C6  UNL     1       0.608  32.206  -2.385  1.00  0.00     0.085 C 
HETATM   18  C7  UNL     1       1.210  32.167  -1.022  1.00  0.00     0.015 C 
HETATM   19  C8  UNL     1       0.565  31.035  -0.264  1.00  0.00     0.008 C 
HETATM   20  C9  UNL     1      -0.838  31.494   0.105  1.00  0.00     0.078 C 
HETATM   21  C10 UNL     1      -1.515  32.069  -1.086  1.00  0.00     0.127 C 
HETATM   22  O3  UNL     1      -2.650  32.472  -0.960  1.00  0.00    -0.298 OA
HETATM   23  C11 UNL     1      -0.880  32.173  -2.416  1.00  0.00     0.092 C 
ENDBRANCH  14  17
ENDBRANCH   2  13
BRANCH   1  24
HETATM   24  C2  UNL     1       1.031  37.036  -3.654  1.00  0.00     0.356 C 
BRANCH  24  25
HETATM   25  N1  UNL     1       0.777  36.466  -4.966  1.00  0.00    -0.049 N 
HETATM   26  C1  UNL     1      -0.399  37.022  -5.586  1.00  0.00     0.270 C 
ATOM     27  H12 UNL     1       0.723  35.448  -4.921  1.00  0.00     0.280 HD
ATOM     28  H11 UNL     1       1.592  36.560  -5.572  1.00  0.00     0.280 HD
ENDBRANCH  24  25
BRANCH  24  29
HETATM   29  O1  UNL     1       0.082  36.291  -2.877  1.00  0.00    -0.366 OA
ATOM     30  H1  UNL     1       0.631  35.564  -2.606  1.00  0.00     0.212 HD
ENDBRANCH  24  29
ENDBRANCH   1  24
TORSDOF 5
ENDMDL
MODEL 5
REMARK VINA RESULT: -7.703524821      1.739      2.134
REMARK  5 active torsions:
REMARK  status: ('A' for Active; 'I' for Inactive)
REMARK    1  A    between atoms: N1_2  and  C2_5 
REMARK    2  A    between atoms: C2_5  and  O1_6 
REMARK    3  A    between atoms: C2_5  and  C3_8 
REMARK    4  A    between atoms: C4_9  and  N2_10 
REMARK       I    between atoms: N2_10  and  C5_12 
REMARK    5  A    between atoms: C5_12  and  C6_14 
ROOT
HETATM    1  C3  UNL     1       1.564  36.246  -4.046  1.00  0.00     0.041 A 
HETATM    2  C4  UNL     1       2.000  35.087  -3.462  1.00  0.00     0.089 A 
HETATM    3  S1  UNL     1       3.724  35.413  -3.277  1.00  0.00    -0.054 SA
HETATM    4  C12 UNL     1       3.774  36.971  -3.926  1.00  0.00     0.080 A 
HETATM    5  C13 UNL     1       2.457  37.225  -4.286  1.00  0.00    -0.001 A 
HETATM    6  C14 UNL     1       1.913  38.563  -4.866  1.00  0.00     0.122 C 
HETATM    7  C15 UNL     1       2.903  39.541  -4.533  1.00  0.00    -0.178 C 
HETATM    8  C16 UNL     1       3.635  40.682  -4.370  1.00  0.00     0.081 C 
HETATM    9  C17 UNL     1       5.038  40.217  -3.838  1.00  0.00     0.031 C 
HETATM   10  C18 UNL     1       5.528  38.948  -4.422  1.00  0.00     0.121 C 
HETATM   11  N3  UNL     1       5.057  37.681  -3.954  1.00  0.00    -0.384 N 
ATOM     12  H3  UNL     1       5.805  37.131  -3.532  1.00  0.00     0.160 HD
ENDROOT
BRANCH   2  13
HETATM   13  N2  UNL     1       1.388  33.958  -2.854  1.00  0.00    -0.320 N 
HETATM   14  C5  UNL     1       0.492  32.997  -3.277  1.00  0.00     0.227 C 
HETATM   15  O2  UNL     1      -0.094  32.850  -4.373  1.00  0.00    -0.273 OA
ATOM     16  H2  UNL     1       1.676  33.829  -1.884  1.00  0.00     0.169 HD
BRANCH  14  17
HETATM   17  C6  UNL     1       0.136  31.910  -2.252  1.00  0.00     0.085 C 
HETATM   18  C7  UNL     1       0.909  32.119  -0.995  1.00  0.00     0.015 C 
HETATM   19  C8  UNL     1       0.411  31.126   0.024  1.00  0.00     0.008 C 
HETATM   20  C9  UNL     1      -0.950  31.619   0.493  1.00  0.00     0.078 C 
HETATM   21  C10 UNL     1      -1.796  31.967  -0.678  1.00  0.00     0.127 C 
HETATM   22  O3  UNL     1      -2.920  32.368  -0.473  1.00  0.00    -0.298 OA
HETATM   23  C11 UNL     1      -1.341  31.848  -2.079  1.00  0.00     0.092 C 
ENDBRANCH  14  17
ENDBRANCH   2  13
BRANCH   1  24
HETATM   24  C2  UNL     1       0.127  36.337  -4.574  1.00  0.00     0.356 C 
BRANCH  24  25
HETATM   25  N1  UNL     1      -0.120  35.414  -5.669  1.00  0.00    -0.049 N 
HETATM   26  C1  UNL     1      -0.037  36.057  -6.956  1.00  0.00     0.270 C 
ATOM     27  H12 UNL     1      -1.015  34.937  -5.553  1.00  0.00     0.280 HD
ATOM     28  H11 UNL     1       0.502  34.608  -5.619  1.00  0.00     0.280 HD
ENDBRANCH  24  25
BRANCH  24  29
HETATM   29  O1  UNL     1      -0.745  35.776  -3.581  1.00  0.00    -0.366 OA
ATOM     30  H1  UNL     1      -0.100  35.416  -2.984  1.00  0.00     0.212 HD
ENDBRANCH  24  29
ENDBRANCH   1  24
TORSDOF 5
ENDMDL
