MODEL 1
REMARK VINA RESULT: -6.867250980      0.000      0.000
REMARK  4 active torsions:
REMARK  status: ('A' for Active; 'I' for Inactive)
REMARK    1  A    between atoms: C4_5  and  C5_6 
REMARK    2  A    between atoms: C5_6  and  O2_7 
REMARK    3  A    between atoms: C6_10  and  N1_11 
REMARK    4  A    between atoms: C10_17  and  O4_18 
ROOT
HETATM    1  C1  UNL     1      -6.637   4.197  17.675  1.00  0.00     0.015 C 
HETATM    2  C2  UNL     1      -5.995   4.231  16.671  1.00  0.00    -0.082 C 
HETATM    3  C3  UNL     1      -5.210   4.247  15.451  1.00  0.00     0.235 C 
HETATM    4  O1  UNL     1      -5.587   5.308  14.597  1.00  0.00    -0.339 OA
HETATM    5  C4  UNL     1      -4.743   5.278  13.498  1.00  0.00     0.287 C 
HETATM    6  O3  UNL     1      -4.971   4.141  12.707  1.00  0.00    -0.330 OA
HETATM    7  C6  UNL     1      -4.579   3.043  13.464  1.00  0.00     0.278 C 
HETATM    8  C10 UNL     1      -5.495   2.974  14.665  1.00  0.00     0.209 C 
ENDROOT
BRANCH   8   9
HETATM    9  O4  UNL     1      -5.282   1.841  15.427  1.00  0.00    -0.388 OA
ATOM     10  H4  UNL     1      -5.732   1.085  15.069  1.00  0.00     0.210 HD
ENDBRANCH   8   9
BRANCH   5  11
HETATM   11  C5  UNL     1      -4.944   6.542  12.668  1.00  0.00     0.224 C 
BRANCH  11  12
HETATM   12  O2  UNL     1      -6.284   6.708  12.361  1.00  0.00    -0.396 OA
ATOM     13  H2  UNL     1      -6.531   7.622  12.444  1.00  0.00     0.209 HD
ENDBRANCH  11  12
ENDBRANCH   5  11
BRANCH   7  14
HETATM   14  N1  UNL     1      -4.551   1.844  12.695  1.00  0.00    -0.272 N 
HETATM   15  C7  UNL     1      -4.883   1.776  11.395  1.00  0.00     0.114 A 
HETATM   16  C8  UNL     1      -4.728   0.446  11.010  1.00  0.00     0.037 A 
HETATM   17  C9  UNL     1      -4.302  -0.246  12.120  1.00  0.00     0.108 A 
HETATM   18  N2  UNL     1      -4.210   0.651  13.122  1.00  0.00    -0.308 N 
ATOM     19  H2  UNL     1      -3.917   0.434  14.074  1.00  0.00     0.186 HD
ENDBRANCH   7  14
TORSDOF 4
ENDMDL
MODEL 2
REMARK VINA RESULT: -6.662380613      1.097      1.245
REMARK  4 active torsions:
REMARK  status: ('A' for Active; 'I' for Inactive)
REMARK    1  A    between atoms: C4_5  and  C5_6 
REMARK    2  A    between atoms: C5_6  and  O2_7 
REMARK    3  A    between atoms: C6_10  and  N1_11 
REMARK    4  A    between atoms: C10_17  and  O4_18 
ROOT
HETATM    1  C1  UNL     1      -6.993   4.199  17.824  1.00  0.00     0.015 C 
HETATM    2  C2  UNL     1      -6.146   4.179  16.985  1.00  0.00    -0.082 C 
HETATM    3  C3  UNL     1      -5.119   4.130  15.962  1.00  0.00     0.235 C 
HETATM    4  O1  UNL     1      -5.022   5.350  15.256  1.00  0.00    -0.339 OA
HETATM    5  C4  UNL     1      -3.977   5.226  14.352  1.00  0.00     0.287 C 
HETATM    6  O3  UNL     1      -4.281   4.301  13.341  1.00  0.00    -0.330 OA
HETATM    7  C6  UNL     1      -4.350   3.054  13.950  1.00  0.00     0.278 C 
HETATM    8  C10 UNL     1      -5.509   3.090  14.920  1.00  0.00     0.209 C 
ENDROOT
BRANCH   8   9
HETATM    9  O4  UNL     1      -5.758   1.857  15.493  1.00  0.00    -0.388 OA
ATOM     10  H4  UNL     1      -4.962   1.348  15.595  1.00  0.00     0.210 HD
ENDBRANCH   8   9
BRANCH   5  11
HETATM   11  C5  UNL     1      -3.671   6.590  13.740  1.00  0.00     0.224 C 
BRANCH  11  12
HETATM   12  O2  UNL     1      -2.822   7.308  14.565  1.00  0.00    -0.396 OA
ATOM     13  H2  UNL     1      -1.916   7.147  14.327  1.00  0.00     0.209 HD
ENDBRANCH  11  12
ENDBRANCH   5  11
BRANCH   7  14
HETATM   14  N1  UNL     1      -4.433   1.997  12.999  1.00  0.00    -0.272 N 
HETATM   15  C7  UNL     1      -4.769   2.169  11.709  1.00  0.00     0.114 A 
HETATM   16  C8  UNL     1      -4.738   0.910  11.114  1.00  0.00     0.037 A 
HETATM   17  C9  UNL     1      -4.376   0.012  12.092  1.00  0.00     0.108 A 
HETATM   18  N2  UNL     1      -4.201   0.725  13.223  1.00  0.00    -0.308 N 
ATOM     19  H2  UNL     1      -3.930   0.331  14.124  1.00  0.00     0.186 HD
ENDBRANCH   7  14
TORSDOF 4
ENDMDL
MODEL 3
REMARK VINA RESULT: -6.608188769      1.234      1.388
REMARK  4 active torsions:
REMARK  status: ('A' for Active; 'I' for Inactive)
REMARK    1  A    between atoms: C4_5  and  C5_6 
REMARK    2  A    between atoms: C5_6  and  O2_7 
REMARK    3  A    between atoms: C6_10  and  N1_11 
REMARK    4  A    between atoms: C10_17  and  O4_18 
ROOT
HETATM    1  C1  UNL     1      -5.978   5.237  16.418  1.00  0.00     0.015 C 
HETATM    2  C2  UNL     1      -5.405   4.931  15.418  1.00  0.00    -0.082 C 
HETATM    3  C3  UNL     1      -4.706   4.535  14.211  1.00  0.00     0.235 C 
HETATM    4  O1  UNL     1      -5.072   5.335  13.105  1.00  0.00    -0.339 OA
HETATM    5  C4  UNL     1      -4.307   4.925  12.023  1.00  0.00     0.287 C 
HETATM    6  O3  UNL     1      -4.660   3.632  11.607  1.00  0.00    -0.330 OA
HETATM    7  C6  UNL     1      -4.287   2.768  12.631  1.00  0.00     0.278 C 
HETATM    8  C10 UNL     1      -5.122   3.118  13.842  1.00  0.00     0.209 C 
ENDROOT
BRANCH   8   9
HETATM    9  O4  UNL     1      -4.930   2.237  14.889  1.00  0.00    -0.388 OA
ATOM     10  H4  UNL     1      -5.753   1.892  15.215  1.00  0.00     0.210 HD
ENDBRANCH   8   9
BRANCH   5  11
HETATM   11  C5  UNL     1      -4.485   5.912  10.873  1.00  0.00     0.224 C 
BRANCH  11  12
HETATM   12  O2  UNL     1      -5.359   5.400   9.930  1.00  0.00    -0.396 OA
ATOM     13  H2  UNL     1      -6.033   4.879  10.352  1.00  0.00     0.209 HD
ENDBRANCH  11  12
ENDBRANCH   5  11
BRANCH   7  14
HETATM   14  N1  UNL     1      -4.387   1.401  12.242  1.00  0.00    -0.272 N 
HETATM   15  C7  UNL     1      -4.813   0.991  11.036  1.00  0.00     0.114 A 
HETATM   16  C8  UNL     1      -4.768  -0.402  11.046  1.00  0.00     0.037 A 
HETATM   17  C9  UNL     1      -4.308  -0.780  12.286  1.00  0.00     0.108 A 
HETATM   18  N2  UNL     1      -4.090   0.357  12.979  1.00  0.00    -0.308 N 
ATOM     19  H2  UNL     1      -3.745   0.398  13.937  1.00  0.00     0.186 HD
ENDBRANCH   7  14
TORSDOF 4
ENDMDL
MODEL 4
REMARK VINA RESULT: -6.605994715      2.136      4.454
REMARK  4 active torsions:
REMARK  status: ('A' for Active; 'I' for Inactive)
REMARK    1  A    between atoms: C4_5  and  C5_6 
REMARK    2  A    between atoms: C5_6  and  O2_7 
REMARK    3  A    between atoms: C6_10  and  N1_11 
REMARK    4  A    between atoms: C10_17  and  O4_18 
ROOT
HETATM    1  C1  UNL     1      -4.883   7.183  12.686  1.00  0.00     0.015 C 
HETATM    2  C2  UNL     1      -4.652   6.054  12.994  1.00  0.00    -0.082 C 
HETATM    3  C3  UNL     1      -4.373   4.688  13.393  1.00  0.00     0.235 C 
HETATM    4  O1  UNL     1      -4.738   3.763  12.390  1.00  0.00    -0.339 OA
HETATM    5  C4  UNL     1      -4.375   2.500  12.835  1.00  0.00     0.287 C 
HETATM    6  O3  UNL     1      -5.154   2.100  13.931  1.00  0.00    -0.330 OA
HETATM    7  C6  UNL     1      -4.819   2.940  14.987  1.00  0.00     0.278 C 
HETATM    8  C10 UNL     1      -5.236   4.340  14.598  1.00  0.00     0.209 C 
ENDROOT
BRANCH   8   9
HETATM    9  O4  UNL     1      -5.070   5.246  15.628  1.00  0.00    -0.388 OA
ATOM     10  H4  UNL     1      -4.187   5.597  15.651  1.00  0.00     0.210 HD
ENDBRANCH   8   9
BRANCH   5  11
HETATM   11  C5  UNL     1      -4.521   1.498  11.694  1.00  0.00     0.224 C 
BRANCH  11  12
HETATM   12  O2  UNL     1      -5.544   1.882  10.844  1.00  0.00    -0.396 OA
ATOM     13  H2  UNL     1      -5.404   1.523   9.975  1.00  0.00     0.209 HD
ENDBRANCH  11  12
ENDBRANCH   5  11
BRANCH   7  14
HETATM   14  N1  UNL     1      -5.376   2.498  16.221  1.00  0.00    -0.272 N 
HETATM   15  C7  UNL     1      -5.092   1.317  16.795  1.00  0.00     0.114 A 
HETATM   16  C8  UNL     1      -5.828   1.257  17.977  1.00  0.00     0.037 A 
HETATM   17  C9  UNL     1      -6.542   2.430  18.066  1.00  0.00     0.108 A 
HETATM   18  N2  UNL     1      -6.232   3.153  16.970  1.00  0.00    -0.308 N 
ATOM     19  H2  UNL     1      -6.608   4.076  16.755  1.00  0.00     0.186 HD
ENDBRANCH   7  14
TORSDOF 4
ENDMDL
MODEL 5
REMARK VINA RESULT: -6.306283611      2.116      4.866
REMARK  4 active torsions:
REMARK  status: ('A' for Active; 'I' for Inactive)
REMARK    1  A    between atoms: C4_5  and  C5_6 
REMARK    2  A    between atoms: C5_6  and  O2_7 
REMARK    3  A    between atoms: C6_10  and  N1_11 
REMARK    4  A    between atoms: C10_17  and  O4_18 
ROOT
HETATM    1  C1  UNL     1      -3.124   6.845  11.730  1.00  0.00     0.015 C 
HETATM    2  C2  UNL     1      -3.309   5.794  12.261  1.00  0.00    -0.082 C 
HETATM    3  C3  UNL     1      -3.537   4.527  12.930  1.00  0.00     0.235 C 
HETATM    4  O1  UNL     1      -4.141   3.581  12.072  1.00  0.00    -0.339 OA
HETATM    5  C4  UNL     1      -4.256   2.392  12.777  1.00  0.00     0.287 C 
HETATM    6  O3  UNL     1      -5.184   2.506  13.824  1.00  0.00    -0.330 OA
HETATM    7  C6  UNL     1      -4.639   3.394  14.745  1.00  0.00     0.278 C 
HETATM    8  C10 UNL     1      -4.531   4.739  14.064  1.00  0.00     0.209 C 
ENDROOT
BRANCH   8   9
HETATM    9  O4  UNL     1      -4.121   5.737  14.927  1.00  0.00    -0.388 OA
ATOM     10  H4  UNL     1      -4.099   5.438  15.828  1.00  0.00     0.210 HD
ENDBRANCH   8   9
BRANCH   5  11
HETATM   11  C5  UNL     1      -4.674   1.276  11.825  1.00  0.00     0.224 C 
BRANCH  11  12
HETATM   12  O2  UNL     1      -5.538   1.764  10.859  1.00  0.00    -0.396 OA
ATOM     13  H2  UNL     1      -5.221   1.543   9.991  1.00  0.00     0.209 HD
ENDBRANCH  11  12
ENDBRANCH   5  11
BRANCH   7  14
HETATM   14  N1  UNL     1      -5.380   3.426  15.961  1.00  0.00    -0.272 N 
HETATM   15  C7  UNL     1      -5.403   2.423  16.856  1.00  0.00     0.114 A 
HETATM   16  C8  UNL     1      -6.232   2.833  17.897  1.00  0.00     0.037 A 
HETATM   17  C9  UNL     1      -6.685   4.092  17.579  1.00  0.00     0.108 A 
HETATM   18  N2  UNL     1      -6.137   4.409  16.388  1.00  0.00    -0.308 N 
ATOM     19  H2  UNL     1      -6.290   5.286  15.891  1.00  0.00     0.186 HD
ENDBRANCH   7  14
TORSDOF 4
ENDMDL
