MODEL 1
REMARK VINA RESULT: -5.732965170      0.000      0.000
REMARK  4 active torsions:
REMARK  status: ('A' for Active; 'I' for Inactive)
REMARK    1  A    between atoms: O1_1  and  C1_3 
REMARK    2  A    between atoms: C1_3  and  C2_4 
REMARK    3  A    between atoms: C7_13  and  C8_14 
REMARK    4  A    between atoms: C8_14  and  O5_15 
ROOT
HETATM    1  C2  UNL     1      -4.593   2.458  14.876  1.00  0.00     0.176 C 
HETATM    2  O2  UNL     1      -3.429   3.148  15.296  1.00  0.00    -0.376 OA
HETATM    3  C3  UNL     1      -3.620   4.451  14.791  1.00  0.00     0.237 C 
HETATM    4  C4  UNL     1      -3.542   4.412  13.300  1.00  0.00     0.195 C 
HETATM    5  C5  UNL     1      -4.590   5.429  12.805  1.00  0.00     0.147 C 
HETATM    6  S1  UNL     1      -3.900   5.627  11.108  1.00  0.00    -0.138 SA
HETATM    7  C6  UNL     1      -2.253   4.921  11.532  1.00  0.00     0.245 C 
HETATM    8  O3  UNL     1      -2.327   4.974  12.922  1.00  0.00    -0.342 OA
HETATM    9  O4  UNL     1      -3.820   3.229  12.708  1.00  0.00    -0.342 OA
HETATM   10  C7  UNL     1      -4.590   2.317  13.388  1.00  0.00     0.179 C 
ENDROOT
BRANCH  10  11
HETATM   11  C8  UNL     1      -4.345   0.893  12.949  1.00  0.00     0.198 C 
BRANCH  11  12
HETATM   12  O5  UNL     1      -3.096   0.788  12.289  1.00  0.00    -0.398 OA
ATOM     13  H5  UNL     1      -3.216   0.812  11.347  1.00  0.00     0.209 HD
ENDBRANCH  11  12
ENDBRANCH  10  11
BRANCH   1  14
HETATM   14  C1  UNL     1      -4.712   1.183  15.627  1.00  0.00     0.198 C 
BRANCH  14  15
HETATM   15  O1  UNL     1      -3.627   0.948  16.439  1.00  0.00    -0.398 OA
ATOM     16  H1  UNL     1      -3.523   0.028  16.649  1.00  0.00     0.209 HD
ENDBRANCH  14  15
ENDBRANCH   1  14
TORSDOF 4
ENDMDL
MODEL 2
REMARK VINA RESULT: -5.539670714      2.179      4.487
REMARK  4 active torsions:
REMARK  status: ('A' for Active; 'I' for Inactive)
REMARK    1  A    between atoms: O1_1  and  C1_3 
REMARK    2  A    between atoms: C1_3  and  C2_4 
REMARK    3  A    between atoms: C7_13  and  C8_14 
REMARK    4  A    between atoms: C8_14  and  O5_15 
ROOT
HETATM    1  C2  UNL     1      -3.098   3.882  12.568  1.00  0.00     0.176 C 
HETATM    2  O2  UNL     1      -3.109   2.471  12.444  1.00  0.00    -0.376 OA
HETATM    3  C3  UNL     1      -4.411   2.116  12.855  1.00  0.00     0.237 C 
HETATM    4  C4  UNL     1      -4.552   2.389  14.317  1.00  0.00     0.195 C 
HETATM    5  C5  UNL     1      -5.995   2.898  14.505  1.00  0.00     0.147 C 
HETATM    6  S1  UNL     1      -6.091   2.580  16.318  1.00  0.00    -0.138 SA
HETATM    7  C6  UNL     1      -4.656   1.426  16.345  1.00  0.00     0.245 C 
HETATM    8  O3  UNL     1      -4.540   1.166  14.981  1.00  0.00    -0.342 OA
HETATM    9  O4  UNL     1      -3.725   3.320  14.844  1.00  0.00    -0.342 OA
HETATM   10  C7  UNL     1      -3.183   4.267  14.009  1.00  0.00     0.179 C 
ENDROOT
BRANCH  10  11
HETATM   11  C8  UNL     1      -1.883   4.835  14.527  1.00  0.00     0.198 C 
BRANCH  11  12
HETATM   12  O5  UNL     1      -1.261   3.918  15.410  1.00  0.00    -0.398 OA
ATOM     13  H5  UNL     1      -0.614   3.399  14.946  1.00  0.00     0.209 HD
ENDBRANCH  11  12
ENDBRANCH  10  11
BRANCH   1  14
HETATM   14  C1  UNL     1      -1.928   4.434  11.839  1.00  0.00     0.198 C 
BRANCH  14  15
HETATM   15  O1  UNL     1      -1.220   3.464  11.170  1.00  0.00    -0.398 OA
ATOM     16  H1  UNL     1      -1.620   2.605  11.244  1.00  0.00     0.209 HD
ENDBRANCH  14  15
ENDBRANCH   1  14
TORSDOF 4
ENDMDL
MODEL 3
REMARK VINA RESULT: -5.460750256      1.977      2.630
REMARK  4 active torsions:
REMARK  status: ('A' for Active; 'I' for Inactive)
REMARK    1  A    between atoms: O1_1  and  C1_3 
REMARK    2  A    between atoms: C1_3  and  C2_4 
REMARK    3  A    between atoms: C7_13  and  C8_14 
REMARK    4  A    between atoms: C8_14  and  O5_15 
ROOT
HETATM    1  C2  UNL     1      -6.199   2.601  15.689  1.00  0.00     0.176 C 
HETATM    2  O2  UNL     1      -6.330   4.002  15.856  1.00  0.00    -0.376 OA
HETATM    3  C3  UNL     1      -6.038   4.513  14.574  1.00  0.00     0.237 C 
HETATM    4  C4  UNL     1      -4.594   4.281  14.273  1.00  0.00     0.195 C 
HETATM    5  C5  UNL     1      -4.533   3.947  12.769  1.00  0.00     0.147 C 
HETATM    6  S1  UNL     1      -2.738   4.302  12.551  1.00  0.00    -0.138 SA
HETATM    7  C6  UNL     1      -2.588   5.280  14.104  1.00  0.00     0.245 C 
HETATM    8  O3  UNL     1      -3.937   5.504  14.370  1.00  0.00    -0.342 OA
HETATM    9  O4  UNL     1      -3.990   3.268  14.934  1.00  0.00    -0.342 OA
HETATM   10  C7  UNL     1      -4.769   2.252  15.432  1.00  0.00     0.179 C 
ENDROOT
BRANCH  10  11
HETATM   11  C8  UNL     1      -4.134   1.543  16.605  1.00  0.00     0.198 C 
BRANCH  11  12
HETATM   12  O5  UNL     1      -3.736   0.234  16.235  1.00  0.00    -0.398 OA
ATOM     13  H5  UNL     1      -3.595   0.184  15.297  1.00  0.00     0.209 HD
ENDBRANCH  11  12
ENDBRANCH  10  11
BRANCH   1  14
HETATM   14  C1  UNL     1      -6.817   1.905  16.846  1.00  0.00     0.198 C 
BRANCH  14  15
HETATM   15  O1  UNL     1      -6.939   0.551  16.641  1.00  0.00    -0.398 OA
ATOM     16  H1  UNL     1      -6.305   0.219  16.015  1.00  0.00     0.209 HD
ENDBRANCH  14  15
ENDBRANCH   1  14
TORSDOF 4
ENDMDL
MODEL 4
REMARK VINA RESULT: -5.375341902      1.170      1.170
REMARK  4 active torsions:
REMARK  status: ('A' for Active; 'I' for Inactive)
REMARK    1  A    between atoms: O1_1  and  C1_3 
REMARK    2  A    between atoms: C1_3  and  C2_4 
REMARK    3  A    between atoms: C7_13  and  C8_14 
REMARK    4  A    between atoms: C8_14  and  O5_15 
ROOT
HETATM    1  C2  UNL     1      -4.632   2.356  14.603  1.00  0.00     0.176 C 
HETATM    2  O2  UNL     1      -3.421   3.014  14.931  1.00  0.00    -0.376 OA
HETATM    3  C3  UNL     1      -3.773   4.379  14.909  1.00  0.00     0.237 C 
HETATM    4  C4  UNL     1      -4.077   4.782  13.503  1.00  0.00     0.195 C 
HETATM    5  C5  UNL     1      -5.246   5.782  13.603  1.00  0.00     0.147 C 
HETATM    6  S1  UNL     1      -5.018   6.534  11.937  1.00  0.00    -0.138 SA
HETATM    7  C6  UNL     1      -3.296   5.915  11.726  1.00  0.00     0.245 C 
HETATM    8  O3  UNL     1      -3.016   5.555  13.043  1.00  0.00    -0.342 OA
HETATM    9  O4  UNL     1      -4.461   3.798  12.658  1.00  0.00    -0.342 OA
HETATM   10  C7  UNL     1      -5.004   2.652  13.187  1.00  0.00     0.179 C 
ENDROOT
BRANCH  10  11
HETATM   11  C8  UNL     1      -4.835   1.451  12.287  1.00  0.00     0.198 C 
BRANCH  11  12
HETATM   12  O5  UNL     1      -5.718   1.533  11.183  1.00  0.00    -0.398 OA
ATOM     13  H5  UNL     1      -5.794   2.432  10.885  1.00  0.00     0.209 HD
ENDBRANCH  11  12
ENDBRANCH  10  11
BRANCH   1  14
HETATM   14  C1  UNL     1      -4.517   0.913  14.933  1.00  0.00     0.198 C 
BRANCH  14  15
HETATM   15  O1  UNL     1      -3.753   0.689  16.054  1.00  0.00    -0.398 OA
ATOM     16  H1  UNL     1      -4.234   0.239  16.739  1.00  0.00     0.209 HD
ENDBRANCH  14  15
ENDBRANCH   1  14
TORSDOF 4
ENDMDL
MODEL 5
REMARK VINA RESULT: -5.284434980      2.327      4.599
REMARK  4 active torsions:
REMARK  status: ('A' for Active; 'I' for Inactive)
REMARK    1  A    between atoms: O1_1  and  C1_3 
REMARK    2  A    between atoms: C1_3  and  C2_4 
REMARK    3  A    between atoms: C7_13  and  C8_14 
REMARK    4  A    between atoms: C8_14  and  O5_15 
ROOT
HETATM    1  C2  UNL     1      -3.427   3.484  11.686  1.00  0.00     0.176 C 
HETATM    2  O2  UNL     1      -3.612   2.082  11.593  1.00  0.00    -0.376 OA
HETATM    3  C3  UNL     1      -4.804   1.860  12.313  1.00  0.00     0.237 C 
HETATM    4  C4  UNL     1      -4.557   2.133  13.761  1.00  0.00     0.195 C 
HETATM    5  C5  UNL     1      -5.852   2.788  14.285  1.00  0.00     0.147 C 
HETATM    6  S1  UNL     1      -5.537   2.466  16.071  1.00  0.00    -0.138 SA
HETATM    7  C6  UNL     1      -4.264   1.170  15.770  1.00  0.00     0.245 C 
HETATM    8  O3  UNL     1      -4.510   0.911  14.423  1.00  0.00    -0.342 OA
HETATM    9  O4  UNL     1      -3.537   2.970  14.056  1.00  0.00    -0.342 OA
HETATM   10  C7  UNL     1      -3.119   3.862  13.098  1.00  0.00     0.179 C 
ENDROOT
BRANCH  10  11
HETATM   11  C8  UNL     1      -1.681   4.289  13.276  1.00  0.00     0.198 C 
BRANCH  11  12
HETATM   12  O5  UNL     1      -1.332   4.287  14.649  1.00  0.00    -0.398 OA
ATOM     13  H5  UNL     1      -1.295   5.175  14.983  1.00  0.00     0.209 HD
ENDBRANCH  11  12
ENDBRANCH  10  11
BRANCH   1  14
HETATM   14  C1  UNL     1      -2.419   3.918  10.686  1.00  0.00     0.198 C 
BRANCH  14  15
HETATM   15  O1  UNL     1      -2.751   3.539   9.406  1.00  0.00    -0.398 OA
ATOM     16  H1  UNL     1      -2.602   4.231   8.772  1.00  0.00     0.209 HD
ENDBRANCH  14  15
ENDBRANCH   1  14
TORSDOF 4
ENDMDL
