MODEL 1
REMARK VINA RESULT: -5.988718516      0.000      0.000
REMARK  4 active torsions:
REMARK  status: ('A' for Active; 'I' for Inactive)
REMARK    1  A    between atoms: O1_2  and  C2_3 
REMARK    2  A    between atoms: C5_7  and  S1_8 
REMARK    3  A    between atoms: C7_11  and  O3_12 
REMARK    4  A    between atoms: C8_14  and  O4_15 
ROOT
HETATM    1  S1  UNL     1      -4.646   2.444  15.745  1.00  0.00    -0.041 SA
HETATM    2  C6  UNL     1      -4.624   0.682  15.646  1.00  0.00     0.134 C 
HETATM    3  N1  UNL     1      -4.593  -0.474  15.578  1.00  0.00    -0.184 NA
ENDROOT
BRANCH   1   4
HETATM    4  C5  UNL     1      -5.218   3.052  14.121  1.00  0.00     0.122 C 
HETATM    5  C3  UNL     1      -4.873   4.505  14.018  1.00  0.00     0.138 C 
HETATM    6  O2  UNL     1      -4.188   4.830  12.856  1.00  0.00    -0.352 OA
HETATM    7  C4  UNL     1      -6.096   5.397  14.099  1.00  0.00     0.041 C 
HETATM    8  C2  UNL     1      -3.052   4.026  12.761  1.00  0.00     0.290 C 
HETATM    9  C8  UNL     1      -3.524   2.671  12.304  1.00  0.00     0.203 C 
HETATM   10  C7  UNL     1      -4.731   2.195  13.021  1.00  0.00     0.168 C 
BRANCH   8  11
HETATM   11  O1  UNL     1      -2.416   3.933  13.985  1.00  0.00    -0.363 OA
HETATM   12  C1  UNL     1      -1.562   5.022  14.171  1.00  0.00     0.204 C 
ENDBRANCH   8  11
BRANCH   9  13
HETATM   13  O4  UNL     1      -3.706   2.757  10.910  1.00  0.00    -0.388 OA
ATOM     14  H4  UNL     1      -4.640   2.689  10.753  1.00  0.00     0.210 HD
ENDBRANCH   9  13
BRANCH  10  15
HETATM   15  O3  UNL     1      -5.752   2.014  12.060  1.00  0.00    -0.392 OA
ATOM     16  H3  UNL     1      -5.388   1.642  11.265  1.00  0.00     0.210 HD
ENDBRANCH  10  15
ENDBRANCH   1   4
TORSDOF 4
ENDMDL
MODEL 2
REMARK VINA RESULT: -5.932368314      3.009      4.241
REMARK  4 active torsions:
REMARK  status: ('A' for Active; 'I' for Inactive)
REMARK    1  A    between atoms: O1_2  and  C2_3 
REMARK    2  A    between atoms: C5_7  and  S1_8 
REMARK    3  A    between atoms: C7_11  and  O3_12 
REMARK    4  A    between atoms: C8_14  and  O4_15 
ROOT
HETATM    1  S1  UNL     1      -3.863   5.208  11.626  1.00  0.00    -0.041 SA
HETATM    2  C6  UNL     1      -3.756   4.717   9.934  1.00  0.00     0.134 C 
HETATM    3  N1  UNL     1      -3.701   4.389   8.824  1.00  0.00    -0.184 NA
ENDROOT
BRANCH   1   4
HETATM    4  C5  UNL     1      -3.036   3.904  12.602  1.00  0.00     0.122 C 
HETATM    5  C3  UNL     1      -3.160   4.256  14.051  1.00  0.00     0.138 C 
HETATM    6  O2  UNL     1      -3.661   3.223  14.831  1.00  0.00    -0.352 OA
HETATM    7  C4  UNL     1      -1.840   4.694  14.655  1.00  0.00     0.041 C 
HETATM    8  C2  UNL     1      -4.881   2.807  14.299  1.00  0.00     0.290 C 
HETATM    9  C8  UNL     1      -4.558   1.965  13.094  1.00  0.00     0.203 C 
HETATM   10  C7  UNL     1      -3.516   2.560  12.223  1.00  0.00     0.168 C 
BRANCH   8  11
HETATM   11  O1  UNL     1      -5.654   3.895  13.940  1.00  0.00    -0.363 OA
HETATM   12  C1  UNL     1      -6.480   4.274  15.001  1.00  0.00     0.204 C 
ENDBRANCH   8  11
BRANCH   9  13
HETATM   13  O4  UNL     1      -4.213   0.687  13.575  1.00  0.00    -0.388 OA
ATOM     14  H4  UNL     1      -4.842   0.078  13.205  1.00  0.00     0.210 HD
ENDBRANCH   9  13
BRANCH  10  15
HETATM   15  O3  UNL     1      -2.431   1.654  12.179  1.00  0.00    -0.392 OA
ATOM     16  H3  UNL     1      -2.631   0.882  12.696  1.00  0.00     0.210 HD
ENDBRANCH  10  15
ENDBRANCH   1   4
TORSDOF 4
ENDMDL
MODEL 3
REMARK VINA RESULT: -5.871225256      2.159      3.394
REMARK  4 active torsions:
REMARK  status: ('A' for Active; 'I' for Inactive)
REMARK    1  A    between atoms: O1_2  and  C2_3 
REMARK    2  A    between atoms: C5_7  and  S1_8 
REMARK    3  A    between atoms: C7_11  and  O3_12 
REMARK    4  A    between atoms: C8_14  and  O4_15 
ROOT
HETATM    1  S1  UNL     1      -4.813   3.091  13.739  1.00  0.00    -0.041 SA
HETATM    2  C6  UNL     1      -4.404   2.303  15.264  1.00  0.00     0.134 C 
HETATM    3  N1  UNL     1      -4.126   1.800  16.270  1.00  0.00    -0.184 NA
ENDROOT
BRANCH   1   4
HETATM    4  C5  UNL     1      -3.742   2.344  12.461  1.00  0.00     0.122 C 
HETATM    5  C3  UNL     1      -4.587   2.034  11.266  1.00  0.00     0.138 C 
HETATM    6  O2  UNL     1      -4.073   2.536  10.079  1.00  0.00    -0.352 OA
HETATM    7  C4  UNL     1      -4.806   0.545  11.083  1.00  0.00     0.041 C 
HETATM    8  C2  UNL     1      -3.868   3.908  10.219  1.00  0.00     0.290 C 
HETATM    9  C8  UNL     1      -2.611   4.073  11.030  1.00  0.00     0.203 C 
HETATM   10  C7  UNL     1      -2.547   3.174  12.207  1.00  0.00     0.168 C 
BRANCH   8  11
HETATM   11  O1  UNL     1      -4.942   4.499  10.860  1.00  0.00    -0.363 OA
HETATM   12  C1  UNL     1      -4.768   5.884  10.919  1.00  0.00     0.204 C 
ENDBRANCH   8  11
BRANCH   9  13
HETATM   13  O4  UNL     1      -1.532   3.899  10.142  1.00  0.00    -0.388 OA
ATOM     14  H4  UNL     1      -0.779   4.317  10.542  1.00  0.00     0.210 HD
ENDBRANCH   9  13
BRANCH  10  15
HETATM   15  O3  UNL     1      -1.410   2.348  12.049  1.00  0.00    -0.392 OA
ATOM     16  H3  UNL     1      -0.645   2.774  12.420  1.00  0.00     0.210 HD
ENDBRANCH  10  15
ENDBRANCH   1   4
TORSDOF 4
ENDMDL
MODEL 4
REMARK VINA RESULT: -5.808211904      3.067      4.398
REMARK  4 active torsions:
REMARK  status: ('A' for Active; 'I' for Inactive)
REMARK    1  A    between atoms: O1_2  and  C2_3 
REMARK    2  A    between atoms: C5_7  and  S1_8 
REMARK    3  A    between atoms: C7_11  and  O3_12 
REMARK    4  A    between atoms: C8_14  and  O4_15 
ROOT
HETATM    1  S1  UNL     1      -3.244   5.821  12.579  1.00  0.00    -0.041 SA
HETATM    2  C6  UNL     1      -4.886   6.313  12.158  1.00  0.00     0.134 C 
HETATM    3  N1  UNL     1      -5.969   6.626  11.894  1.00  0.00    -0.184 NA
ENDROOT
BRANCH   1   4
HETATM    4  C5  UNL     1      -2.751   4.550  11.363  1.00  0.00     0.122 C 
HETATM    5  C3  UNL     1      -1.849   3.572  12.049  1.00  0.00     0.138 C 
HETATM    6  O2  UNL     1      -2.237   2.250  11.881  1.00  0.00    -0.352 OA
HETATM    7  C4  UNL     1      -0.410   3.695  11.592  1.00  0.00     0.041 C 
HETATM    8  C2  UNL     1      -3.559   2.110  12.303  1.00  0.00     0.290 C 
HETATM    9  C8  UNL     1      -4.420   2.677  11.206  1.00  0.00     0.203 C 
HETATM   10  C7  UNL     1      -3.927   3.972  10.680  1.00  0.00     0.168 C 
BRANCH   8  11
HETATM   11  O1  UNL     1      -3.769   2.790  13.488  1.00  0.00    -0.363 OA
HETATM   12  C1  UNL     1      -5.037   2.496  13.996  1.00  0.00     0.204 C 
ENDBRANCH   8  11
BRANCH   9  13
HETATM   13  O4  UNL     1      -4.521   1.680  10.216  1.00  0.00    -0.388 OA
ATOM     14  H4  UNL     1      -4.077   0.912  10.556  1.00  0.00     0.210 HD
ENDBRANCH   9  13
BRANCH  10  15
HETATM   15  O3  UNL     1      -3.647   3.794   9.305  1.00  0.00    -0.392 OA
ATOM     16  H3  UNL     1      -2.748   4.042   9.122  1.00  0.00     0.210 HD
ENDBRANCH  10  15
ENDBRANCH   1   4
TORSDOF 4
ENDMDL
MODEL 5
REMARK VINA RESULT: -5.509197754      2.727      4.012
REMARK  4 active torsions:
REMARK  status: ('A' for Active; 'I' for Inactive)
REMARK    1  A    between atoms: O1_2  and  C2_3 
REMARK    2  A    between atoms: C5_7  and  S1_8 
REMARK    3  A    between atoms: C7_11  and  O3_12 
REMARK    4  A    between atoms: C8_14  and  O4_15 
ROOT
HETATM    1  S1  UNL     1      -4.818   3.362  13.605  1.00  0.00    -0.041 SA
HETATM    2  C6  UNL     1      -4.057   4.912  13.969  1.00  0.00     0.134 C 
HETATM    3  N1  UNL     1      -3.568   5.937  14.196  1.00  0.00    -0.184 NA
ENDROOT
BRANCH   1   4
HETATM    4  C5  UNL     1      -3.729   2.511  12.411  1.00  0.00     0.122 C 
HETATM    5  C3  UNL     1      -4.553   2.117  11.226  1.00  0.00     0.138 C 
HETATM    6  O2  UNL     1      -4.009   2.522  10.014  1.00  0.00    -0.352 OA
HETATM    7  C4  UNL     1      -4.781   0.620  11.153  1.00  0.00     0.041 C 
HETATM    8  C2  UNL     1      -3.795   3.900  10.053  1.00  0.00     0.290 C 
HETATM    9  C8  UNL     1      -2.553   4.117  10.875  1.00  0.00     0.203 C 
HETATM   10  C7  UNL     1      -2.521   3.310  12.119  1.00  0.00     0.168 C 
BRANCH   8  11
HETATM   11  O1  UNL     1      -4.876   4.546  10.625  1.00  0.00    -0.363 OA
HETATM   12  C1  UNL     1      -4.774   5.925  10.430  1.00  0.00     0.204 C 
ENDBRANCH   8  11
BRANCH   9  13
HETATM   13  O4  UNL     1      -1.458   3.867  10.025  1.00  0.00    -0.388 OA
ATOM     14  H4  UNL     1      -0.819   3.387  10.539  1.00  0.00     0.210 HD
ENDBRANCH   9  13
BRANCH  10  15
HETATM   15  O3  UNL     1      -1.389   2.466  12.049  1.00  0.00    -0.392 OA
ATOM     16  H3  UNL     1      -1.562   1.738  11.463  1.00  0.00     0.210 HD
ENDBRANCH  10  15
ENDBRANCH   1   4
TORSDOF 4
ENDMDL
