MODEL 1
REMARK VINA RESULT: -6.387593806      0.000      0.000
REMARK  18 active torsions:
REMARK  status: ('A' for Active; 'I' for Inactive)
REMARK    1  A    between atoms: C2_2  and  C3_3 
REMARK    2  A    between atoms: C3_3  and  N1_4 
REMARK    3  A    between atoms: N1_4  and  C4_6 
REMARK    4  A    between atoms: C5_9  and  N3_10 
REMARK    5  A    between atoms: N3_10  and  C6_12 
REMARK    6  A    between atoms: C6_12  and  C7_13 
REMARK    7  A    between atoms: C7_13  and  C8_14 
REMARK    8  A    between atoms: C9_15  and  C10_16 
REMARK    9  A    between atoms: C10_16  and  N4_17 
REMARK   10  A    between atoms: C11_23  and  N6_24 
REMARK   11  A    between atoms: N6_24  and  C12_26 
REMARK   12  A    between atoms: C12_26  and  C13_27 
REMARK   13  A    between atoms: C13_27  and  C14_28 
REMARK   14  A    between atoms: C14_28  and  C15_29 
REMARK   15  A    between atoms: C15_29  and  N7_30 
REMARK   16  A    between atoms: N7_30  and  C16_33 
REMARK   17  A    between atoms: C16_33  and  C17_34 
REMARK   18  A    between atoms: C17_34  and  N8_35 
ROOT
HETATM    1  C4  UNL     1      26.711  24.117  12.396  1.00  0.00     0.707 A 
HETATM    2  N2  UNL     1      26.269  23.502  13.498  1.00  0.00    -0.021 N 
ATOM      3  H2  UNL     1      25.728  24.043  14.173  1.00  0.00     0.203 HD
HETATM    4  C5  UNL     1      26.502  22.203  13.758  1.00  0.00     0.710 A 
HETATM    5  N5  UNL     1      27.212  21.455  12.895  1.00  0.00    -0.021 N 
ATOM      6  H5  UNL     1      27.396  20.470  13.083  1.00  0.00     0.203 HD
HETATM    7  C11 UNL     1      27.675  22.050  11.769  1.00  0.00     0.707 A 
HETATM    8  N9  UNL     1      27.430  23.345  11.531  1.00  0.00    -0.022 N 
ATOM      9  H9  UNL     1      27.791  23.767  10.676  1.00  0.00     0.203 HD
ENDROOT
BRANCH   7  10
HETATM   10  N6  UNL     1      28.350  21.306  10.990  1.00  0.00    -0.225 N 
ATOM     11  H6  UNL     1      28.576  21.700  10.076  1.00  0.00     0.177 HD
BRANCH  10  12
HETATM   12  C12 UNL     1      28.824  19.998  11.241  1.00  0.00     0.138 C 
BRANCH  12  13
HETATM   13  C13 UNL     1      29.698  19.425  10.129  1.00  0.00     0.022 C 
BRANCH  13  14
HETATM   14  C14 UNL     1      31.167  19.520  10.449  1.00  0.00     0.029 C 
BRANCH  14  15
HETATM   15  C15 UNL     1      31.792  20.613   9.649  1.00  0.00     0.232 C 
BRANCH  15  16
HETATM   16  N7  UNL     1      32.269  20.106   8.394  1.00  0.00    -0.073 N 
ATOM     17  H72 UNL     1      31.497  19.900   7.760  1.00  0.00     0.277 HD
ATOM     18  H71 UNL     1      32.732  20.835   7.851  1.00  0.00     0.277 HD
BRANCH  16  19
HETATM   19  C16 UNL     1      33.117  18.972   8.563  1.00  0.00     0.262 C 
BRANCH  19  20
HETATM   20  C17 UNL     1      34.553  19.422   8.768  1.00  0.00     0.298 C 
BRANCH  20  21
HETATM   21  N8  UNL     1      35.265  18.544   9.642  1.00  0.00     0.081 N 
HETATM   22  C18 UNL     1      36.662  18.843   9.656  1.00  0.00     0.309 C 
HETATM   23  C19 UNL     1      34.712  18.442  10.958  1.00  0.00     0.309 C 
ENDBRANCH  20  21
ENDBRANCH  19  20
ENDBRANCH  16  19
ENDBRANCH  15  16
ENDBRANCH  14  15
ENDBRANCH  13  14
ENDBRANCH  12  13
ENDBRANCH  10  12
ENDBRANCH   7  10
BRANCH   4  24
HETATM   24  N3  UNL     1      26.080  21.617  14.812  1.00  0.00    -0.204 N 
ATOM     25  H3  UNL     1      25.078  21.439  14.883  1.00  0.00     0.183 HD
BRANCH  24  26
HETATM   26  C6  UNL     1      26.887  21.201  15.875  1.00  0.00     0.082 C 
BRANCH  26  27
HETATM   27  C7  UNL     1      26.281  21.242  17.229  1.00  0.00     0.072 C 
BRANCH  27  28
HETATM   28  C8  UNL     1      25.487  20.127  17.712  1.00  0.00    -0.024 C 
HETATM   29  C9  UNL     1      24.852  19.060  16.977  1.00  0.00    -0.004 C 
BRANCH  29  30
HETATM   30  C10 UNL     1      23.765  19.227  16.009  1.00  0.00     0.256 C 
BRANCH  30  31
HETATM   31  N4  UNL     1      22.861  20.336  16.272  1.00  0.00    -0.076 N 
ATOM     32  H43 UNL     1      23.393  21.194  16.415  1.00  0.00     0.274 HD
ATOM     33  H42 UNL     1      22.350  20.581  15.423  1.00  0.00     0.274 HD
ATOM     34  H41 UNL     1      22.209  20.195  17.044  1.00  0.00     0.274 HD
ENDBRANCH  30  31
ENDBRANCH  29  30
ENDBRANCH  27  28
ENDBRANCH  26  27
ENDBRANCH  24  26
ENDBRANCH   4  24
BRANCH   1  35
HETATM   35  N1  UNL     1      26.522  25.325  12.083  1.00  0.00    -0.222 N 
ATOM     36  H1  UNL     1      25.779  25.826  12.571  1.00  0.00     0.178 HD
BRANCH  35  37
HETATM   37  C3  UNL     1      27.259  26.038  11.110  1.00  0.00     0.164 C 
BRANCH  37  38
HETATM   38  C2  UNL     1      27.290  27.522  11.405  1.00  0.00    -0.017 C 
HETATM   39  C1  UNL     1      26.859  28.366  10.506  1.00  0.00     0.008 C 
ENDBRANCH  37  38
ENDBRANCH  35  37
ENDBRANCH   1  35
TORSDOF 18
ENDMDL
MODEL 2
REMARK VINA RESULT: -6.313553970      1.701      5.126
REMARK  18 active torsions:
REMARK  status: ('A' for Active; 'I' for Inactive)
REMARK    1  A    between atoms: C2_2  and  C3_3 
REMARK    2  A    between atoms: C3_3  and  N1_4 
REMARK    3  A    between atoms: N1_4  and  C4_6 
REMARK    4  A    between atoms: C5_9  and  N3_10 
REMARK    5  A    between atoms: N3_10  and  C6_12 
REMARK    6  A    between atoms: C6_12  and  C7_13 
REMARK    7  A    between atoms: C7_13  and  C8_14 
REMARK    8  A    between atoms: C9_15  and  C10_16 
REMARK    9  A    between atoms: C10_16  and  N4_17 
REMARK   10  A    between atoms: C11_23  and  N6_24 
REMARK   11  A    between atoms: N6_24  and  C12_26 
REMARK   12  A    between atoms: C12_26  and  C13_27 
REMARK   13  A    between atoms: C13_27  and  C14_28 
REMARK   14  A    between atoms: C14_28  and  C15_29 
REMARK   15  A    between atoms: C15_29  and  N7_30 
REMARK   16  A    between atoms: N7_30  and  C16_33 
REMARK   17  A    between atoms: C16_33  and  C17_34 
REMARK   18  A    between atoms: C17_34  and  N8_35 
ROOT
HETATM    1  C4  UNL     1      26.258  21.823  13.778  1.00  0.00     0.707 A 
HETATM    2  N2  UNL     1      26.077  23.112  13.474  1.00  0.00    -0.021 N 
ATOM      3  H2  UNL     1      25.478  23.674  14.080  1.00  0.00     0.203 HD
HETATM    4  C5  UNL     1      26.646  23.703  12.408  1.00  0.00     0.710 A 
HETATM    5  N5  UNL     1      27.440  22.998  11.584  1.00  0.00    -0.021 N 
ATOM      6  H5  UNL     1      27.875  23.436  10.772  1.00  0.00     0.203 HD
HETATM    7  C11 UNL     1      27.644  21.688  11.864  1.00  0.00     0.707 A 
HETATM    8  N9  UNL     1      27.067  21.120  12.932  1.00  0.00    -0.022 N 
ATOM      9  H9  UNL     1      27.237  20.132  13.118  1.00  0.00     0.203 HD
ENDROOT
BRANCH   7  10
HETATM   10  N6  UNL     1      28.391  21.060  11.052  1.00  0.00    -0.225 N 
ATOM     11  H6  UNL     1      28.750  21.598  10.263  1.00  0.00     0.177 HD
BRANCH  10  12
HETATM   12  C12 UNL     1      28.784  19.703  11.111  1.00  0.00     0.138 C 
BRANCH  12  13
HETATM   13  C13 UNL     1      29.146  19.095   9.759  1.00  0.00     0.022 C 
BRANCH  13  14
HETATM   14  C14 UNL     1      30.456  18.353   9.795  1.00  0.00     0.029 C 
BRANCH  14  15
HETATM   15  C15 UNL     1      30.552  17.553  11.051  1.00  0.00     0.232 C 
BRANCH  15  16
HETATM   16  N7  UNL     1      31.858  17.686  11.632  1.00  0.00    -0.073 N 
ATOM     17  H72 UNL     1      31.947  18.563  12.145  1.00  0.00     0.277 HD
ATOM     18  H71 UNL     1      31.987  17.034  12.405  1.00  0.00     0.277 HD
BRANCH  16  19
HETATM   19  C16 UNL     1      32.892  17.547  10.660  1.00  0.00     0.262 C 
BRANCH  19  20
HETATM   20  C17 UNL     1      34.124  18.319  11.098  1.00  0.00     0.298 C 
BRANCH  20  21
HETATM   21  N8  UNL     1      35.097  18.402  10.055  1.00  0.00     0.081 N 
HETATM   22  C18 UNL     1      36.241  17.596  10.344  1.00  0.00     0.309 C 
HETATM   23  C19 UNL     1      34.579  18.168   8.742  1.00  0.00     0.309 C 
ENDBRANCH  20  21
ENDBRANCH  19  20
ENDBRANCH  16  19
ENDBRANCH  15  16
ENDBRANCH  14  15
ENDBRANCH  13  14
ENDBRANCH  12  13
ENDBRANCH  10  12
ENDBRANCH   7  10
BRANCH   4  24
HETATM   24  N3  UNL     1      26.469  24.935  12.118  1.00  0.00    -0.204 N 
ATOM     25  H3  UNL     1      25.643  25.396  12.501  1.00  0.00     0.183 HD
BRANCH  24  26
HETATM   26  C6  UNL     1      27.322  25.699  11.317  1.00  0.00     0.082 C 
BRANCH  26  27
HETATM   27  C7  UNL     1      28.485  26.330  11.992  1.00  0.00     0.072 C 
BRANCH  27  28
HETATM   28  C8  UNL     1      28.315  27.011  13.263  1.00  0.00    -0.024 C 
HETATM   29  C9  UNL     1      28.715  26.605  14.588  1.00  0.00    -0.004 C 
BRANCH  29  30
HETATM   30  C10 UNL     1      28.199  25.439  15.310  1.00  0.00     0.256 C 
BRANCH  30  31
HETATM   31  N4  UNL     1      26.808  25.530  15.728  1.00  0.00    -0.076 N 
ATOM     32  H43 UNL     1      26.639  24.905  16.517  1.00  0.00     0.274 HD
ATOM     33  H42 UNL     1      26.634  26.431  16.173  1.00  0.00     0.274 HD
ATOM     34  H41 UNL     1      26.119  25.363  14.995  1.00  0.00     0.274 HD
ENDBRANCH  30  31
ENDBRANCH  29  30
ENDBRANCH  27  28
ENDBRANCH  26  27
ENDBRANCH  24  26
ENDBRANCH   4  24
BRANCH   1  35
HETATM   35  N1  UNL     1      25.767  21.207  14.763  1.00  0.00    -0.222 N 
ATOM     36  H1  UNL     1      25.958  21.579  15.693  1.00  0.00     0.178 HD
BRANCH  35  37
HETATM   37  C3  UNL     1      24.971  20.040  14.679  1.00  0.00     0.164 C 
BRANCH  37  38
HETATM   38  C2  UNL     1      24.285  19.733  15.991  1.00  0.00    -0.017 C 
HETATM   39  C1  UNL     1      22.992  19.889  16.094  1.00  0.00     0.008 C 
ENDBRANCH  37  38
ENDBRANCH  35  37
ENDBRANCH   1  35
TORSDOF 18
ENDMDL
MODEL 3
REMARK VINA RESULT: -6.263334383      1.995      2.879
REMARK  18 active torsions:
REMARK  status: ('A' for Active; 'I' for Inactive)
REMARK    1  A    between atoms: C2_2  and  C3_3 
REMARK    2  A    between atoms: C3_3  and  N1_4 
REMARK    3  A    between atoms: N1_4  and  C4_6 
REMARK    4  A    between atoms: C5_9  and  N3_10 
REMARK    5  A    between atoms: N3_10  and  C6_12 
REMARK    6  A    between atoms: C6_12  and  C7_13 
REMARK    7  A    between atoms: C7_13  and  C8_14 
REMARK    8  A    between atoms: C9_15  and  C10_16 
REMARK    9  A    between atoms: C10_16  and  N4_17 
REMARK   10  A    between atoms: C11_23  and  N6_24 
REMARK   11  A    between atoms: N6_24  and  C12_26 
REMARK   12  A    between atoms: C12_26  and  C13_27 
REMARK   13  A    between atoms: C13_27  and  C14_28 
REMARK   14  A    between atoms: C14_28  and  C15_29 
REMARK   15  A    between atoms: C15_29  and  N7_30 
REMARK   16  A    between atoms: N7_30  and  C16_33 
REMARK   17  A    between atoms: C16_33  and  C17_34 
REMARK   18  A    between atoms: C17_34  and  N8_35 
ROOT
HETATM    1  C4  UNL     1      26.952  26.116  13.057  1.00  0.00     0.707 A 
HETATM    2  N2  UNL     1      27.102  25.962  14.376  1.00  0.00    -0.021 N 
ATOM      3  H2  UNL     1      27.378  26.772  14.931  1.00  0.00     0.203 HD
HETATM    4  C5  UNL     1      26.907  24.790  15.006  1.00  0.00     0.710 A 
HETATM    5  N5  UNL     1      26.545  23.697  14.310  1.00  0.00    -0.021 N 
ATOM      6  H5  UNL     1      26.396  22.803  14.777  1.00  0.00     0.203 HD
HETATM    7  C11 UNL     1      26.386  23.820  12.970  1.00  0.00     0.707 A 
HETATM    8  N9  UNL     1      26.585  24.999  12.364  1.00  0.00    -0.022 N 
ATOM      9  H9  UNL     1      26.459  25.063  11.355  1.00  0.00     0.203 HD
ENDROOT
BRANCH   7  10
HETATM   10  N6  UNL     1      26.055  22.760  12.354  1.00  0.00    -0.225 N 
ATOM     11  H6  UNL     1      25.216  22.287  12.690  1.00  0.00     0.177 HD
BRANCH  10  12
HETATM   12  C12 UNL     1      26.714  22.157  11.258  1.00  0.00     0.138 C 
BRANCH  12  13
HETATM   13  C13 UNL     1      28.138  21.698  11.557  1.00  0.00     0.022 C 
BRANCH  13  14
HETATM   14  C14 UNL     1      28.277  20.198  11.520  1.00  0.00     0.029 C 
BRANCH  14  15
HETATM   15  C15 UNL     1      29.451  19.818  10.682  1.00  0.00     0.232 C 
BRANCH  15  16
HETATM   16  N7  UNL     1      30.207  18.779  11.320  1.00  0.00    -0.073 N 
ATOM     17  H72 UNL     1      30.834  19.159  12.029  1.00  0.00     0.277 HD
ATOM     18  H71 UNL     1      29.616  18.206  11.921  1.00  0.00     0.277 HD
BRANCH  16  19
HETATM   19  C16 UNL     1      30.916  17.978  10.377  1.00  0.00     0.262 C 
BRANCH  19  20
HETATM   20  C17 UNL     1      32.138  17.360  11.035  1.00  0.00     0.298 C 
BRANCH  20  21
HETATM   21  N8  UNL     1      33.329  17.619  10.290  1.00  0.00     0.081 N 
HETATM   22  C18 UNL     1      33.032  18.148   8.996  1.00  0.00     0.309 C 
HETATM   23  C19 UNL     1      34.306  18.398  10.988  1.00  0.00     0.309 C 
ENDBRANCH  20  21
ENDBRANCH  19  20
ENDBRANCH  16  19
ENDBRANCH  15  16
ENDBRANCH  14  15
ENDBRANCH  13  14
ENDBRANCH  12  13
ENDBRANCH  10  12
ENDBRANCH   7  10
BRANCH   4  24
HETATM   24  N3  UNL     1      27.052  24.643  16.267  1.00  0.00    -0.204 N 
ATOM     25  H3  UNL     1      27.812  24.042  16.587  1.00  0.00     0.183 HD
BRANCH  24  26
HETATM   26  C6  UNL     1      26.250  25.245  17.241  1.00  0.00     0.082 C 
BRANCH  26  27
HETATM   27  C7  UNL     1      25.986  24.453  18.469  1.00  0.00     0.072 C 
BRANCH  27  28
HETATM   28  C8  UNL     1      24.780  23.652  18.581  1.00  0.00    -0.024 C 
HETATM   29  C9  UNL     1      24.629  22.220  18.654  1.00  0.00    -0.004 C 
BRANCH  29  30
HETATM   30  C10 UNL     1      24.985  21.273  17.594  1.00  0.00     0.256 C 
BRANCH  30  31
HETATM   31  N4  UNL     1      23.891  20.876  16.720  1.00  0.00    -0.076 N 
ATOM     32  H43 UNL     1      23.319  21.687  16.486  1.00  0.00     0.274 HD
ATOM     33  H42 UNL     1      24.250  20.637  15.795  1.00  0.00     0.274 HD
ATOM     34  H41 UNL     1      23.303  20.121  17.072  1.00  0.00     0.274 HD
ENDBRANCH  30  31
ENDBRANCH  29  30
ENDBRANCH  27  28
ENDBRANCH  26  27
ENDBRANCH  24  26
ENDBRANCH   4  24
BRANCH   1  35
HETATM   35  N1  UNL     1      27.108  27.184  12.402  1.00  0.00    -0.222 N 
ATOM     36  H1  UNL     1      27.313  28.033  12.930  1.00  0.00     0.178 HD
BRANCH  35  37
HETATM   37  C3  UNL     1      27.022  27.296  10.995  1.00  0.00     0.164 C 
BRANCH  37  38
HETATM   38  C2  UNL     1      26.434  28.624  10.573  1.00  0.00    -0.017 C 
HETATM   39  C1  UNL     1      25.207  28.922  10.911  1.00  0.00     0.008 C 
ENDBRANCH  37  38
ENDBRANCH  35  37
ENDBRANCH   1  35
TORSDOF 18
ENDMDL
MODEL 4
REMARK VINA RESULT: -6.209152243      2.036      8.738
REMARK  18 active torsions:
REMARK  status: ('A' for Active; 'I' for Inactive)
REMARK    1  A    between atoms: C2_2  and  C3_3 
REMARK    2  A    between atoms: C3_3  and  N1_4 
REMARK    3  A    between atoms: N1_4  and  C4_6 
REMARK    4  A    between atoms: C5_9  and  N3_10 
REMARK    5  A    between atoms: N3_10  and  C6_12 
REMARK    6  A    between atoms: C6_12  and  C7_13 
REMARK    7  A    between atoms: C7_13  and  C8_14 
REMARK    8  A    between atoms: C9_15  and  C10_16 
REMARK    9  A    between atoms: C10_16  and  N4_17 
REMARK   10  A    between atoms: C11_23  and  N6_24 
REMARK   11  A    between atoms: N6_24  and  C12_26 
REMARK   12  A    between atoms: C12_26  and  C13_27 
REMARK   13  A    between atoms: C13_27  and  C14_28 
REMARK   14  A    between atoms: C14_28  and  C15_29 
REMARK   15  A    between atoms: C15_29  and  N7_30 
REMARK   16  A    between atoms: N7_30  and  C16_33 
REMARK   17  A    between atoms: C16_33  and  C17_34 
REMARK   18  A    between atoms: C17_34  and  N8_35 
ROOT
HETATM    1  C4  UNL     1      26.774  24.009  12.333  1.00  0.00     0.707 A 
HETATM    2  N2  UNL     1      27.617  23.278  11.596  1.00  0.00    -0.021 N 
ATOM      3  H2  UNL     1      28.182  23.752  10.891  1.00  0.00     0.203 HD
HETATM    4  C5  UNL     1      27.756  21.949  11.741  1.00  0.00     0.710 A 
HETATM    5  N5  UNL     1      27.030  21.285  12.658  1.00  0.00    -0.021 N 
ATOM      6  H5  UNL     1      27.126  20.277  12.775  1.00  0.00     0.203 HD
HETATM    7  C11 UNL     1      26.165  21.998  13.421  1.00  0.00     0.707 A 
HETATM    8  N9  UNL     1      26.044  23.322  13.259  1.00  0.00    -0.022 N 
ATOM      9  H9  UNL     1      25.385  23.833  13.846  1.00  0.00     0.203 HD
ENDROOT
BRANCH   7  10
HETATM   10  N6  UNL     1      25.492  21.327  14.264  1.00  0.00    -0.225 N 
ATOM     11  H6  UNL     1      24.754  21.832  14.755  1.00  0.00     0.177 HD
BRANCH  10  12
HETATM   12  C12 UNL     1      25.645  19.963  14.602  1.00  0.00     0.138 C 
BRANCH  12  13
HETATM   13  C13 UNL     1      26.244  19.724  15.985  1.00  0.00     0.022 C 
BRANCH  13  14
HETATM   14  C14 UNL     1      25.204  19.753  17.074  1.00  0.00     0.029 C 
BRANCH  14  15
HETATM   15  C15 UNL     1      25.445  20.918  17.975  1.00  0.00     0.232 C 
BRANCH  15  16
HETATM   16  N7  UNL     1      24.570  22.004  17.637  1.00  0.00    -0.073 N 
ATOM     17  H72 UNL     1      24.707  22.302  16.671  1.00  0.00     0.277 HD
ATOM     18  H71 UNL     1      23.601  21.693  17.573  1.00  0.00     0.277 HD
BRANCH  16  19
HETATM   19  C16 UNL     1      24.703  23.098  18.541  1.00  0.00     0.262 C 
BRANCH  19  20
HETATM   20  C17 UNL     1      24.610  22.603  19.974  1.00  0.00     0.298 C 
BRANCH  20  21
HETATM   21  N8  UNL     1      25.543  23.267  20.827  1.00  0.00     0.081 N 
HETATM   22  C18 UNL     1      26.332  22.332  21.565  1.00  0.00     0.309 C 
HETATM   23  C19 UNL     1      26.339  24.261  20.174  1.00  0.00     0.309 C 
ENDBRANCH  20  21
ENDBRANCH  19  20
ENDBRANCH  16  19
ENDBRANCH  15  16
ENDBRANCH  14  15
ENDBRANCH  13  14
ENDBRANCH  12  13
ENDBRANCH  10  12
ENDBRANCH   7  10
BRANCH   4  24
HETATM   24  N3  UNL     1      28.561  21.251  11.035  1.00  0.00    -0.204 N 
ATOM     25  H3  UNL     1      29.117  21.740  10.333  1.00  0.00     0.183 HD
BRANCH  24  26
HETATM   26  C6  UNL     1      28.738  19.870  11.151  1.00  0.00     0.082 C 
BRANCH  26  27
HETATM   27  C7  UNL     1      28.830  19.099   9.885  1.00  0.00     0.072 C 
BRANCH  27  28
HETATM   28  C8  UNL     1      30.122  18.686   9.369  1.00  0.00    -0.024 C 
HETATM   29  C9  UNL     1      31.440  19.187   9.673  1.00  0.00    -0.004 C 
BRANCH  29  30
HETATM   30  C10 UNL     1      31.920  20.541   9.383  1.00  0.00     0.256 C 
BRANCH  30  31
HETATM   31  N4  UNL     1      32.724  20.672   8.178  1.00  0.00    -0.076 N 
ATOM     32  H43 UNL     1      33.670  20.330   8.349  1.00  0.00     0.274 HD
ATOM     33  H42 UNL     1      32.415  20.000   7.475  1.00  0.00     0.274 HD
ATOM     34  H41 UNL     1      32.757  21.609   7.774  1.00  0.00     0.274 HD
ENDBRANCH  30  31
ENDBRANCH  29  30
ENDBRANCH  27  28
ENDBRANCH  26  27
ENDBRANCH  24  26
ENDBRANCH   4  24
BRANCH   1  35
HETATM   35  N1  UNL     1      26.599  25.257  12.260  1.00  0.00    -0.222 N 
ATOM     36  H1  UNL     1      26.016  25.693  12.974  1.00  0.00     0.178 HD
BRANCH  35  37
HETATM   37  C3  UNL     1      27.150  26.098  11.265  1.00  0.00     0.164 C 
BRANCH  37  38
HETATM   38  C2  UNL     1      26.494  27.461  11.257  1.00  0.00    -0.017 C 
HETATM   39  C1  UNL     1      26.929  28.381  10.437  1.00  0.00     0.008 C 
ENDBRANCH  37  38
ENDBRANCH  35  37
ENDBRANCH   1  35
TORSDOF 18
ENDMDL
MODEL 5
REMARK VINA RESULT: -6.205738463      1.182      1.584
REMARK  18 active torsions:
REMARK  status: ('A' for Active; 'I' for Inactive)
REMARK    1  A    between atoms: C2_2  and  C3_3 
REMARK    2  A    between atoms: C3_3  and  N1_4 
REMARK    3  A    between atoms: N1_4  and  C4_6 
REMARK    4  A    between atoms: C5_9  and  N3_10 
REMARK    5  A    between atoms: N3_10  and  C6_12 
REMARK    6  A    between atoms: C6_12  and  C7_13 
REMARK    7  A    between atoms: C7_13  and  C8_14 
REMARK    8  A    between atoms: C9_15  and  C10_16 
REMARK    9  A    between atoms: C10_16  and  N4_17 
REMARK   10  A    between atoms: C11_23  and  N6_24 
REMARK   11  A    between atoms: N6_24  and  C12_26 
REMARK   12  A    between atoms: C12_26  and  C13_27 
REMARK   13  A    between atoms: C13_27  and  C14_28 
REMARK   14  A    between atoms: C14_28  and  C15_29 
REMARK   15  A    between atoms: C15_29  and  N7_30 
REMARK   16  A    between atoms: N7_30  and  C16_33 
REMARK   17  A    between atoms: C16_33  and  C17_34 
REMARK   18  A    between atoms: C17_34  and  N8_35 
ROOT
HETATM    1  C4  UNL     1      26.695  24.023  12.378  1.00  0.00     0.707 A 
HETATM    2  N2  UNL     1      25.977  23.292  13.238  1.00  0.00    -0.021 N 
ATOM      3  H2  UNL     1      25.267  23.762  13.799  1.00  0.00     0.203 HD
HETATM    4  C5  UNL     1      26.148  21.968  13.398  1.00  0.00     0.710 A 
HETATM    5  N5  UNL     1      27.075  21.311  12.679  1.00  0.00    -0.021 N 
ATOM      6  H5  UNL     1      27.214  20.307  12.793  1.00  0.00     0.203 HD
HETATM    7  C11 UNL     1      27.820  22.023  11.799  1.00  0.00     0.707 A 
HETATM    8  N9  UNL     1      27.632  23.342  11.656  1.00  0.00    -0.022 N 
ATOM      9  H9  UNL     1      28.208  23.853  10.987  1.00  0.00     0.203 HD
ENDROOT
BRANCH   7  10
HETATM   10  N6  UNL     1      28.691  21.363  11.152  1.00  0.00    -0.225 N 
ATOM     11  H6  UNL     1      29.541  21.866  10.898  1.00  0.00     0.177 HD
BRANCH  10  12
HETATM   12  C12 UNL     1      28.621  20.011  10.742  1.00  0.00     0.138 C 
BRANCH  12  13
HETATM   13  C13 UNL     1      29.963  19.284  10.750  1.00  0.00     0.022 C 
BRANCH  13  14
HETATM   14  C14 UNL     1      30.406  18.885   9.366  1.00  0.00     0.029 C 
BRANCH  14  15
HETATM   15  C15 UNL     1      31.829  19.281   9.155  1.00  0.00     0.232 C 
BRANCH  15  16
HETATM   16  N7  UNL     1      32.411  18.511   8.093  1.00  0.00    -0.073 N 
ATOM     17  H72 UNL     1      31.698  18.006   7.568  1.00  0.00     0.277 HD
ATOM     18  H71 UNL     1      32.761  19.114   7.348  1.00  0.00     0.277 HD
BRANCH  16  19
HETATM   19  C16 UNL     1      33.428  17.631   8.566  1.00  0.00     0.262 C 
BRANCH  19  20
HETATM   20  C17 UNL     1      34.306  18.346   9.578  1.00  0.00     0.298 C 
BRANCH  20  21
HETATM   21  N8  UNL     1      35.694  18.117   9.332  1.00  0.00     0.081 N 
HETATM   22  C18 UNL     1      36.235  19.095   8.442  1.00  0.00     0.309 C 
HETATM   23  C19 UNL     1      36.485  17.954  10.513  1.00  0.00     0.309 C 
ENDBRANCH  20  21
ENDBRANCH  19  20
ENDBRANCH  16  19
ENDBRANCH  15  16
ENDBRANCH  14  15
ENDBRANCH  13  14
ENDBRANCH  12  13
ENDBRANCH  10  12
ENDBRANCH   7  10
BRANCH   4  24
HETATM   24  N3  UNL     1      25.462  21.272  14.221  1.00  0.00    -0.204 N 
ATOM     25  H3  UNL     1      24.572  21.656  14.536  1.00  0.00     0.183 HD
BRANCH  24  26
HETATM   26  C6  UNL     1      25.841  20.023  14.723  1.00  0.00     0.082 C 
BRANCH  26  27
HETATM   27  C7  UNL     1      26.301  19.983  16.134  1.00  0.00     0.072 C 
BRANCH  27  28
HETATM   28  C8  UNL     1      25.359  20.185  17.220  1.00  0.00    -0.024 C 
HETATM   29  C9  UNL     1      24.704  21.392  17.660  1.00  0.00    -0.004 C 
BRANCH  29  30
HETATM   30  C10 UNL     1      25.378  22.568  18.220  1.00  0.00     0.256 C 
BRANCH  30  31
HETATM   31  N4  UNL     1      25.772  23.579  17.252  1.00  0.00    -0.076 N 
ATOM     32  H43 UNL     1      26.318  23.153  16.503  1.00  0.00     0.274 HD
ATOM     33  H42 UNL     1      24.959  23.895  16.723  1.00  0.00     0.274 HD
ATOM     34  H41 UNL     1      26.272  24.381  17.637  1.00  0.00     0.274 HD
ENDBRANCH  30  31
ENDBRANCH  29  30
ENDBRANCH  27  28
ENDBRANCH  26  27
ENDBRANCH  24  26
ENDBRANCH   4  24
BRANCH   1  35
HETATM   35  N1  UNL     1      26.583  25.262  12.169  1.00  0.00    -0.222 N 
ATOM     36  H1  UNL     1      25.934  25.782  12.760  1.00  0.00     0.178 HD
BRANCH  35  37
HETATM   37  C3  UNL     1      27.287  25.987  11.179  1.00  0.00     0.164 C 
BRANCH  37  38
HETATM   38  C2  UNL     1      27.278  27.474  11.461  1.00  0.00    -0.017 C 
HETATM   39  C1  UNL     1      26.876  28.303  10.535  1.00  0.00     0.008 C 
ENDBRANCH  37  38
ENDBRANCH  35  37
ENDBRANCH   1  35
TORSDOF 18
ENDMDL
