MODEL 1
REMARK VINA RESULT: -8.108389237      0.000      0.000
REMARK  2 active torsions:
REMARK  status: ('A' for Active; 'I' for Inactive)
REMARK    1  A    between atoms: C1_2  and  C2_3 
REMARK       I    between atoms: C1_2  and  N1_6 
REMARK       I    between atoms: N2_13  and  C11_14 
REMARK    2  A    between atoms: C11_14  and  C12_16 
ROOT
HETATM    1  O1  UNL     1       8.505  11.336   5.155  1.00  0.00    -0.273 OA
HETATM    2  C1  UNL     1       8.165  10.202   4.623  1.00  0.00     0.224 C 
HETATM    3  N1  UNL     1       9.134   9.668   3.731  1.00  0.00    -0.351 N 
HETATM    4  C5  UNL     1       8.986   8.431   3.009  1.00  0.00     0.132 C 
HETATM    5  C6  UNL     1      10.333   7.984   2.424  1.00  0.00     0.022 C 
HETATM    6  C7  UNL     1      11.309   8.099   3.573  1.00  0.00     0.016 C 
HETATM    7  C8  UNL     1      11.574   9.590   3.712  1.00  0.00     0.022 C 
HETATM    8  C9  UNL     1      10.369  10.430   3.483  1.00  0.00     0.132 C 
HETATM    9  C10 UNL     1      12.536   9.896   2.545  1.00  0.00     0.132 C 
HETATM   10  N2  UNL     1      11.812   9.640   1.320  1.00  0.00    -0.351 N 
HETATM   11  C11 UNL     1      12.184  10.361   0.167  1.00  0.00     0.225 C 
HETATM   12  O2  UNL     1      11.564  10.173  -0.927  1.00  0.00    -0.273 OA
HETATM   13  C16 UNL     1      10.728   8.688   1.193  1.00  0.00     0.132 C 
ENDROOT
BRANCH  11  14
HETATM   14  C12 UNL     1      13.274  11.333   0.177  1.00  0.00     0.105 C 
HETATM   15  C13 UNL     1      14.001  11.489  -1.136  1.00  0.00     0.043 C 
HETATM   16  C14 UNL     1      14.613  12.888  -0.973  1.00  0.00     0.233 C 
HETATM   17  N3  UNL     1      13.537  13.630  -0.399  1.00  0.00    -0.074 N 
HETATM   18  C15 UNL     1      12.768  12.750   0.423  1.00  0.00     0.246 C 
ATOM     19  H32 UNL     1      13.856  14.458   0.105  1.00  0.00     0.277 HD
ATOM     20  H31 UNL     1      12.970  14.105  -1.102  1.00  0.00     0.277 HD
ENDBRANCH  11  14
BRANCH   2  21
HETATM   21  C2  UNL     1       6.875   9.687   5.023  1.00  0.00     0.078 A 
HETATM   22  C3  UNL     1       5.746   9.896   3.995  1.00  0.00     0.015 A 
HETATM   23  C4  UNL     1       5.682  10.434   5.383  1.00  0.00     0.015 A 
ENDBRANCH   2  21
TORSDOF 2
ENDMDL
MODEL 2
REMARK VINA RESULT: -7.820250546      2.939      6.638
REMARK  2 active torsions:
REMARK  status: ('A' for Active; 'I' for Inactive)
REMARK    1  A    between atoms: C1_2  and  C2_3 
REMARK       I    between atoms: C1_2  and  N1_6 
REMARK       I    between atoms: N2_13  and  C11_14 
REMARK    2  A    between atoms: C11_14  and  C12_16 
ROOT
HETATM    1  O1  UNL     1      14.050   9.202   5.926  1.00  0.00    -0.273 OA
HETATM    2  C1  UNL     1      14.209   8.356   4.956  1.00  0.00     0.224 C 
HETATM    3  N1  UNL     1      13.170   8.387   3.986  1.00  0.00    -0.351 N 
HETATM    4  C5  UNL     1      13.112   7.538   2.824  1.00  0.00     0.132 C 
HETATM    5  C6  UNL     1      12.071   8.064   1.825  1.00  0.00     0.022 C 
HETATM    6  C7  UNL     1      12.374   9.539   1.694  1.00  0.00     0.016 C 
HETATM    7  C8  UNL     1      11.837  10.163   2.972  1.00  0.00     0.022 C 
HETATM    8  C9  UNL     1      12.046   9.318   4.178  1.00  0.00     0.132 C 
HETATM    9  C10 UNL     1      10.312  10.207   2.741  1.00  0.00     0.132 C 
HETATM   10  N2  UNL     1       9.860   8.837   2.637  1.00  0.00    -0.351 N 
HETATM   11  C11 UNL     1       8.532   8.547   3.014  1.00  0.00     0.225 C 
HETATM   12  O2  UNL     1       8.100   7.353   2.948  1.00  0.00    -0.273 OA
HETATM   13  C16 UNL     1      10.676   7.738   2.168  1.00  0.00     0.132 C 
ENDROOT
BRANCH  11  14
HETATM   14  C12 UNL     1       7.615   9.582   3.484  1.00  0.00     0.105 C 
HETATM   15  C13 UNL     1       6.331   9.700   2.701  1.00  0.00     0.043 C 
HETATM   16  C14 UNL     1       5.416  10.383   3.729  1.00  0.00     0.233 C 
HETATM   17  N3  UNL     1       5.723   9.677   4.931  1.00  0.00    -0.074 N 
HETATM   18  C15 UNL     1       7.097   9.286   4.887  1.00  0.00     0.246 C 
ATOM     19  H32 UNL     1       5.495  10.213   5.769  1.00  0.00     0.277 HD
ATOM     20  H31 UNL     1       5.097   8.890   5.094  1.00  0.00     0.277 HD
ENDBRANCH  11  14
BRANCH   2  21
HETATM   21  C2  UNL     1      15.397   7.537   5.030  1.00  0.00     0.078 A 
HETATM   22  C3  UNL     1      16.586   8.038   4.187  1.00  0.00     0.015 A 
HETATM   23  C4  UNL     1      15.973   6.694   3.996  1.00  0.00     0.015 A 
ENDBRANCH   2  21
TORSDOF 2
ENDMDL
MODEL 3
REMARK VINA RESULT: -7.656699429      2.781      6.624
REMARK  2 active torsions:
REMARK  status: ('A' for Active; 'I' for Inactive)
REMARK    1  A    between atoms: C1_2  and  C2_3 
REMARK       I    between atoms: C1_2  and  N1_6 
REMARK       I    between atoms: N2_13  and  C11_14 
REMARK    2  A    between atoms: C11_14  and  C12_16 
ROOT
HETATM    1  O1  UNL     1      13.344   7.229   5.377  1.00  0.00    -0.273 OA
HETATM    2  C1  UNL     1      13.582   7.223   4.102  1.00  0.00     0.224 C 
HETATM    3  N1  UNL     1      12.701   8.041   3.345  1.00  0.00    -0.351 N 
HETATM    4  C5  UNL     1      12.753   8.192   1.913  1.00  0.00     0.132 C 
HETATM    5  C6  UNL     1      11.908   9.395   1.468  1.00  0.00     0.022 C 
HETATM    6  C7  UNL     1      12.331  10.522   2.382  1.00  0.00     0.016 C 
HETATM    7  C8  UNL     1      11.659  10.219   3.712  1.00  0.00     0.022 C 
HETATM    8  C9  UNL     1      11.630   8.769   4.044  1.00  0.00     0.132 C 
HETATM    9  C10 UNL     1      10.191  10.633   3.478  1.00  0.00     0.132 C 
HETATM   10  N2  UNL     1       9.663   9.761   2.452  1.00  0.00    -0.351 N 
HETATM   11  C11 UNL     1       8.277   9.499   2.454  1.00  0.00     0.225 C 
HETATM   12  O2  UNL     1       7.776   8.728   1.575  1.00  0.00    -0.273 OA
HETATM   13  C16 UNL     1      10.459   9.138   1.416  1.00  0.00     0.132 C 
ENDROOT
BRANCH  11  14
HETATM   14  C12 UNL     1       7.377  10.088   3.442  1.00  0.00     0.105 C 
HETATM   15  C13 UNL     1       5.959  10.294   2.969  1.00  0.00     0.043 C 
HETATM   16  C14 UNL     1       5.204  10.343   4.305  1.00  0.00     0.233 C 
HETATM   17  N3  UNL     1       5.805   9.276   5.038  1.00  0.00    -0.074 N 
HETATM   18  C15 UNL     1       7.174   9.171   4.643  1.00  0.00     0.246 C 
ATOM     19  H32 UNL     1       5.696   9.383   6.047  1.00  0.00     0.277 HD
ATOM     20  H31 UNL     1       5.299   8.397   4.936  1.00  0.00     0.277 HD
ENDBRANCH  11  14
BRANCH   2  21
HETATM   21  C2  UNL     1      14.686   6.392   3.677  1.00  0.00     0.078 A 
HETATM   22  C3  UNL     1      16.041   6.728   4.330  1.00  0.00     0.015 A 
HETATM   23  C4  UNL     1      15.826   6.763   2.856  1.00  0.00     0.015 A 
ENDBRANCH   2  21
TORSDOF 2
ENDMDL
MODEL 4
REMARK VINA RESULT: -7.562720769      3.120      4.440
REMARK  2 active torsions:
REMARK  status: ('A' for Active; 'I' for Inactive)
REMARK    1  A    between atoms: C1_2  and  C2_3 
REMARK       I    between atoms: C1_2  and  N1_6 
REMARK       I    between atoms: N2_13  and  C11_14 
REMARK    2  A    between atoms: C11_14  and  C12_16 
ROOT
HETATM    1  O1  UNL     1       7.959   7.179   3.155  1.00  0.00    -0.273 OA
HETATM    2  C1  UNL     1       8.004   8.403   3.585  1.00  0.00     0.224 C 
HETATM    3  N1  UNL     1       9.292   8.997   3.504  1.00  0.00    -0.351 N 
HETATM    4  C5  UNL     1       9.601  10.338   3.928  1.00  0.00     0.132 C 
HETATM    5  C6  UNL     1      10.971  10.771   3.386  1.00  0.00     0.022 C 
HETATM    6  C7  UNL     1      10.936  10.412   1.918  1.00  0.00     0.016 C 
HETATM    7  C8  UNL     1      11.115   8.902   1.882  1.00  0.00     0.022 C 
HETATM    8  C9  UNL     1      10.413   8.195   2.987  1.00  0.00     0.132 C 
HETATM    9  C10 UNL     1      12.624   8.710   2.142  1.00  0.00     0.132 C 
HETATM   10  N2  UNL     1      12.889   9.204   3.475  1.00  0.00    -0.351 N 
HETATM   11  C11 UNL     1      13.972   8.644   4.186  1.00  0.00     0.225 C 
HETATM   12  O2  UNL     1      14.231   9.043   5.365  1.00  0.00    -0.273 OA
HETATM   13  C16 UNL     1      12.122  10.239   4.135  1.00  0.00     0.132 C 
ENDROOT
BRANCH  11  14
HETATM   14  C12 UNL     1      14.824   7.606   3.611  1.00  0.00     0.105 C 
HETATM   15  C13 UNL     1      16.028   8.116   2.857  1.00  0.00     0.043 C 
HETATM   16  C14 UNL     1      16.952   6.891   2.910  1.00  0.00     0.233 C 
HETATM   17  N3  UNL     1      16.805   6.452   4.260  1.00  0.00    -0.074 N 
HETATM   18  C15 UNL     1      15.474   6.745   4.688  1.00  0.00     0.246 C 
ATOM     19  H32 UNL     1      17.048   5.468   4.381  1.00  0.00     0.277 HD
ATOM     20  H31 UNL     1      17.512   6.847   4.880  1.00  0.00     0.277 HD
ENDBRANCH  11  14
BRANCH   2  21
HETATM   21  C2  UNL     1       6.753   8.941   4.068  1.00  0.00     0.078 A 
HETATM   22  C3  UNL     1       6.076   9.957   3.126  1.00  0.00     0.015 A 
HETATM   23  C4  UNL     1       6.472  10.292   4.523  1.00  0.00     0.015 A 
ENDBRANCH   2  21
TORSDOF 2
ENDMDL
MODEL 5
REMARK VINA RESULT: -7.471605339      3.079      4.578
REMARK  2 active torsions:
REMARK  status: ('A' for Active; 'I' for Inactive)
REMARK    1  A    between atoms: C1_2  and  C2_3 
REMARK       I    between atoms: C1_2  and  N1_6 
REMARK       I    between atoms: N2_13  and  C11_14 
REMARK    2  A    between atoms: C11_14  and  C12_16 
ROOT
HETATM    1  O1  UNL     1       8.485   8.878   0.286  1.00  0.00    -0.273 OA
HETATM    2  C1  UNL     1       8.085   9.107   1.499  1.00  0.00     0.224 C 
HETATM    3  N1  UNL     1       9.142   9.262   2.436  1.00  0.00    -0.351 N 
HETATM    4  C5  UNL     1       8.957   9.510   3.843  1.00  0.00     0.132 C 
HETATM    5  C6  UNL     1      10.273   9.969   4.486  1.00  0.00     0.022 C 
HETATM    6  C7  UNL     1      10.793  11.053   3.570  1.00  0.00     0.016 C 
HETATM    7  C8  UNL     1      11.346  10.311   2.363  1.00  0.00     0.022 C 
HETATM    8  C9  UNL     1      10.532   9.130   1.969  1.00  0.00     0.132 C 
HETATM    9  C10 UNL     1      12.693   9.753   2.866  1.00  0.00     0.132 C 
HETATM   10  N2  UNL     1      12.393   8.813   3.924  1.00  0.00    -0.351 N 
HETATM   11  C11 UNL     1      13.300   7.756   4.148  1.00  0.00     0.225 C 
HETATM   12  O2  UNL     1      13.066   6.902   5.061  1.00  0.00    -0.273 OA
HETATM   13  C16 UNL     1      11.224   8.882   4.775  1.00  0.00     0.132 C 
ENDROOT
BRANCH  11  14
HETATM   14  C12 UNL     1      14.521   7.601   3.361  1.00  0.00     0.105 C 
HETATM   15  C13 UNL     1      15.734   8.300   3.922  1.00  0.00     0.043 C 
HETATM   16  C14 UNL     1      16.869   7.504   3.263  1.00  0.00     0.233 C 
HETATM   17  N3  UNL     1      16.416   6.156   3.393  1.00  0.00    -0.074 N 
HETATM   18  C15 UNL     1      14.989   6.150   3.322  1.00  0.00     0.246 C 
ATOM     19  H32 UNL     1      16.844   5.530   2.710  1.00  0.00     0.277 HD
ATOM     20  H31 UNL     1      16.768   5.705   4.237  1.00  0.00     0.277 HD
ENDBRANCH  11  14
BRANCH   2  21
HETATM   21  C2  UNL     1       6.653   9.159   1.685  1.00  0.00     0.078 A 
HETATM   22  C3  UNL     1       6.000  10.509   1.329  1.00  0.00     0.015 A 
HETATM   23  C4  UNL     1       5.903   9.900   2.685  1.00  0.00     0.015 A 
ENDBRANCH   2  21
TORSDOF 2
ENDMDL
