MODEL 1
REMARK VINA RESULT: -7.726513092      0.000      0.000
REMARK  12 active torsions:
REMARK  status: ('A' for Active; 'I' for Inactive)
REMARK    1  A    between atoms: C2_2  and  C3_3 
REMARK    2  A    between atoms: C3_3  and  C4_4 
REMARK    3  A    between atoms: C4_4  and  C5_5 
REMARK    4  A    between atoms: C4_4  and  C6_8 
REMARK    5  A    between atoms: C5_5  and  O1_6 
REMARK    6  A    between atoms: C6_8  and  O2_9 
REMARK    7  A    between atoms: O2_9  and  C7_10 
REMARK    8  A    between atoms: C7_10  and  O3_11 
REMARK    9  A    between atoms: C7_10  and  O4_13 
REMARK   10  A    between atoms: O4_13  and  C8_14 
REMARK   11  A    between atoms: C15_21  and  O5_22 
REMARK   12  A    between atoms: C16_24  and  O6_26 
ROOT
HETATM    1  C8  UNL     1      16.233  37.199  61.036  1.00  0.00     0.265 C 
HETATM    2  C9  UNL     1      17.507  36.437  61.184  1.00  0.00     0.061 C 
HETATM    3  C10 UNL     1      17.781  35.470  60.069  1.00  0.00     0.015 C 
HETATM    4  C11 UNL     1      17.404  35.994  58.710  1.00  0.00     0.051 C 
HETATM    5  C12 UNL     1      16.674  37.306  58.763  1.00  0.00     0.131 C 
HETATM    6  C13 UNL     1      17.537  38.507  58.867  1.00  0.00     0.035 C 
HETATM    7  C14 UNL     1      18.878  38.349  58.189  1.00  0.00     0.037 C 
HETATM    8  C15 UNL     1      18.830  37.303  57.097  1.00  0.00     0.152 C 
HETATM    9  C16 UNL     1      18.568  35.971  57.779  1.00  0.00     0.086 C 
HETATM   10  C17 UNL     1      18.383  34.963  56.636  1.00  0.00     0.049 C 
HETATM   11  O7  UNL     1      15.724  37.247  59.768  1.00  0.00    -0.355 OA
ENDROOT
BRANCH   1  12
HETATM   12  O4  UNL     1      15.272  36.560  61.846  1.00  0.00    -0.308 OA
BRANCH  12  13
HETATM   13  C7  UNL     1      14.545  37.434  62.609  1.00  0.00     0.412 C 
BRANCH  13  14
HETATM   14  O2  UNL     1      13.198  37.110  62.461  1.00  0.00    -0.339 OA
BRANCH  14  15
HETATM   15  C6  UNL     1      12.553  38.011  61.642  1.00  0.00     0.180 C 
BRANCH  15  16
HETATM   16  C4  UNL     1      11.016  37.752  61.770  1.00  0.00     0.033 C 
BRANCH  16  17
HETATM   17  C3  UNL     1      10.373  39.032  61.545  1.00  0.00     0.008 C 
BRANCH  17  18
HETATM   18  C2  UNL     1       8.995  39.354  61.947  1.00  0.00    -0.004 C 
HETATM   19  C1  UNL     1       8.516  40.739  61.633  1.00  0.00     0.005 C 
ENDBRANCH  17  18
ENDBRANCH  16  17
BRANCH  16  20
HETATM   20  C5  UNL     1      10.856  36.933  62.969  1.00  0.00     0.170 C 
BRANCH  20  21
HETATM   21  O1  UNL     1      10.735  35.584  62.877  1.00  0.00    -0.400 OA
ATOM     22  H1  UNL     1      10.703  35.045  63.659  1.00  0.00     0.209 HD
ENDBRANCH  20  21
ENDBRANCH  16  20
ENDBRANCH  15  16
ENDBRANCH  14  15
ENDBRANCH  13  14
BRANCH  13  23
HETATM   23  O3  UNL     1      14.701  38.716  62.045  1.00  0.00    -0.349 OA
ATOM     24  H3  UNL     1      15.126  38.583  61.206  1.00  0.00     0.215 HD
ENDBRANCH  13  23
ENDBRANCH  12  13
ENDBRANCH   1  12
BRANCH   9  25
HETATM   25  O6  UNL     1      19.770  35.608  58.397  1.00  0.00    -0.387 OA
ATOM     26  H6  UNL     1      20.026  34.709  58.229  1.00  0.00     0.210 HD
ENDBRANCH   9  25
BRANCH   8  27
HETATM   27  O5  UNL     1      20.103  37.223  56.533  1.00  0.00    -0.393 OA
ATOM     28  H5  UNL     1      20.638  36.687  57.107  1.00  0.00     0.210 HD
ENDBRANCH   8  27
TORSDOF 12
ENDMDL
MODEL 2
REMARK VINA RESULT: -7.571897887      1.522      2.363
REMARK  12 active torsions:
REMARK  status: ('A' for Active; 'I' for Inactive)
REMARK    1  A    between atoms: C2_2  and  C3_3 
REMARK    2  A    between atoms: C3_3  and  C4_4 
REMARK    3  A    between atoms: C4_4  and  C5_5 
REMARK    4  A    between atoms: C4_4  and  C6_8 
REMARK    5  A    between atoms: C5_5  and  O1_6 
REMARK    6  A    between atoms: C6_8  and  O2_9 
REMARK    7  A    between atoms: O2_9  and  C7_10 
REMARK    8  A    between atoms: C7_10  and  O3_11 
REMARK    9  A    between atoms: C7_10  and  O4_13 
REMARK   10  A    between atoms: O4_13  and  C8_14 
REMARK   11  A    between atoms: C15_21  and  O5_22 
REMARK   12  A    between atoms: C16_24  and  O6_26 
ROOT
HETATM    1  C8  UNL     1      14.681  38.164  62.114  1.00  0.00     0.265 C 
HETATM    2  C9  UNL     1      16.054  37.919  62.641  1.00  0.00     0.061 C 
HETATM    3  C10 UNL     1      16.673  36.631  62.176  1.00  0.00     0.015 C 
HETATM    4  C11 UNL     1      16.380  36.306  60.737  1.00  0.00     0.051 C 
HETATM    5  C12 UNL     1      15.390  37.245  60.108  1.00  0.00     0.131 C 
HETATM    6  C13 UNL     1      15.960  38.513  59.592  1.00  0.00     0.035 C 
HETATM    7  C14 UNL     1      17.383  38.382  59.102  1.00  0.00     0.037 C 
HETATM    8  C15 UNL     1      17.702  36.960  58.694  1.00  0.00     0.152 C 
HETATM    9  C16 UNL     1      17.637  36.119  59.958  1.00  0.00     0.086 C 
HETATM   10  C17 UNL     1      17.822  34.669  59.487  1.00  0.00     0.049 C 
HETATM   11  O7  UNL     1      14.348  37.454  60.995  1.00  0.00    -0.355 OA
ENDROOT
BRANCH   1  12
HETATM   12  O4  UNL     1      13.776  37.790  63.129  1.00  0.00    -0.308 OA
BRANCH  12  13
HETATM   13  C7  UNL     1      13.039  36.681  62.811  1.00  0.00     0.412 C 
BRANCH  13  14
HETATM   14  O2  UNL     1      11.731  36.902  63.237  1.00  0.00    -0.339 OA
BRANCH  14  15
HETATM   15  C6  UNL     1      10.850  36.896  62.177  1.00  0.00     0.180 C 
BRANCH  15  16
HETATM   16  C4  UNL     1      10.025  38.223  62.239  1.00  0.00     0.033 C 
BRANCH  16  17
HETATM   17  C3  UNL     1       8.630  37.827  62.275  1.00  0.00     0.008 C 
BRANCH  17  18
HETATM   18  C2  UNL     1       7.508  38.693  61.880  1.00  0.00    -0.004 C 
HETATM   19  C1  UNL     1       7.063  39.707  62.889  1.00  0.00     0.005 C 
ENDBRANCH  17  18
ENDBRANCH  16  17
BRANCH  16  20
HETATM   20  C5  UNL     1      10.621  39.102  61.235  1.00  0.00     0.170 C 
BRANCH  20  21
HETATM   21  O1  UNL     1      11.963  39.306  61.200  1.00  0.00    -0.400 OA
ATOM     22  H1  UNL     1      12.335  40.136  61.470  1.00  0.00     0.209 HD
ENDBRANCH  20  21
ENDBRANCH  16  20
ENDBRANCH  15  16
ENDBRANCH  14  15
ENDBRANCH  13  14
BRANCH  13  23
HETATM   23  O3  UNL     1      13.526  35.614  63.590  1.00  0.00    -0.349 OA
ATOM     24  H3  UNL     1      13.869  34.976  62.975  1.00  0.00     0.215 HD
ENDBRANCH  13  23
ENDBRANCH  12  13
ENDBRANCH   1  12
BRANCH   9  25
HETATM   25  O6  UNL     1      18.794  36.419  60.685  1.00  0.00    -0.387 OA
ATOM     26  H6  UNL     1      19.455  35.738  60.644  1.00  0.00     0.210 HD
ENDBRANCH   9  25
BRANCH   8  27
HETATM   27  O5  UNL     1      19.028  36.933  58.261  1.00  0.00    -0.393 OA
ATOM     28  H5  UNL     1      19.125  37.601  57.593  1.00  0.00     0.210 HD
ENDBRANCH   8  27
TORSDOF 12
ENDMDL
MODEL 3
REMARK VINA RESULT: -7.568028272      1.475      2.101
REMARK  12 active torsions:
REMARK  status: ('A' for Active; 'I' for Inactive)
REMARK    1  A    between atoms: C2_2  and  C3_3 
REMARK    2  A    between atoms: C3_3  and  C4_4 
REMARK    3  A    between atoms: C4_4  and  C5_5 
REMARK    4  A    between atoms: C4_4  and  C6_8 
REMARK    5  A    between atoms: C5_5  and  O1_6 
REMARK    6  A    between atoms: C6_8  and  O2_9 
REMARK    7  A    between atoms: O2_9  and  C7_10 
REMARK    8  A    between atoms: C7_10  and  O3_11 
REMARK    9  A    between atoms: C7_10  and  O4_13 
REMARK   10  A    between atoms: O4_13  and  C8_14 
REMARK   11  A    between atoms: C15_21  and  O5_22 
REMARK   12  A    between atoms: C16_24  and  O6_26 
ROOT
HETATM    1  C8  UNL     1      16.838  37.794  59.533  1.00  0.00     0.265 C 
HETATM    2  C9  UNL     1      17.149  36.341  59.411  1.00  0.00     0.061 C 
HETATM    3  C10 UNL     1      17.037  35.801  58.013  1.00  0.00     0.015 C 
HETATM    4  C11 UNL     1      17.549  36.744  56.959  1.00  0.00     0.051 C 
HETATM    5  C12 UNL     1      17.911  38.098  57.501  1.00  0.00     0.131 C 
HETATM    6  C13 UNL     1      19.265  38.201  58.098  1.00  0.00     0.035 C 
HETATM    7  C14 UNL     1      20.280  37.283  57.457  1.00  0.00     0.037 C 
HETATM    8  C15 UNL     1      19.888  36.924  56.039  1.00  0.00     0.152 C 
HETATM    9  C16 UNL     1      18.613  36.105  56.133  1.00  0.00     0.086 C 
HETATM   10  C17 UNL     1      18.170  35.882  54.680  1.00  0.00     0.049 C 
HETATM   11  O7  UNL     1      16.916  38.510  58.371  1.00  0.00    -0.355 OA
ENDROOT
BRANCH   1  12
HETATM   12  O4  UNL     1      15.509  37.895  59.995  1.00  0.00    -0.308 OA
BRANCH  12  13
HETATM   13  C7  UNL     1      15.200  39.137  60.480  1.00  0.00     0.412 C 
BRANCH  13  14
HETATM   14  O2  UNL     1      14.306  38.973  61.536  1.00  0.00    -0.339 OA
BRANCH  14  15
HETATM   15  C6  UNL     1      13.027  38.746  61.079  1.00  0.00     0.180 C 
BRANCH  15  16
HETATM   16  C4  UNL     1      12.497  37.451  61.777  1.00  0.00     0.033 C 
BRANCH  16  17
HETATM   17  C3  UNL     1      11.105  37.706  62.094  1.00  0.00     0.008 C 
BRANCH  17  18
HETATM   18  C2  UNL     1      10.328  38.844  61.580  1.00  0.00    -0.004 C 
HETATM   19  C1  UNL     1       8.956  39.027  62.153  1.00  0.00     0.005 C 
ENDBRANCH  17  18
ENDBRANCH  16  17
BRANCH  16  20
HETATM   20  C5  UNL     1      13.524  37.082  62.749  1.00  0.00     0.170 C 
BRANCH  20  21
HETATM   21  O1  UNL     1      13.478  37.555  64.020  1.00  0.00    -0.400 OA
ATOM     22  H1  UNL     1      13.668  38.467  64.206  1.00  0.00     0.209 HD
ENDBRANCH  20  21
ENDBRANCH  16  20
ENDBRANCH  15  16
ENDBRANCH  14  15
ENDBRANCH  13  14
BRANCH  13  23
HETATM   23  O3  UNL     1      14.490  39.819  59.472  1.00  0.00    -0.349 OA
ATOM     24  H3  UNL     1      14.329  39.180  58.787  1.00  0.00     0.215 HD
ENDBRANCH  13  23
ENDBRANCH  12  13
ENDBRANCH   1  12
BRANCH   9  25
HETATM   25  O6  UNL     1      18.996  34.841  56.597  1.00  0.00    -0.387 OA
ATOM     26  H6  UNL     1      19.584  34.873  57.342  1.00  0.00     0.210 HD
ENDBRANCH   9  25
BRANCH   8  27
HETATM   27  O5  UNL     1      20.875  36.078  55.531  1.00  0.00    -0.393 OA
ATOM     28  H5  UNL     1      20.667  35.910  54.620  1.00  0.00     0.210 HD
ENDBRANCH   8  27
TORSDOF 12
ENDMDL
MODEL 4
REMARK VINA RESULT: -7.482816125      1.111      2.072
REMARK  12 active torsions:
REMARK  status: ('A' for Active; 'I' for Inactive)
REMARK    1  A    between atoms: C2_2  and  C3_3 
REMARK    2  A    between atoms: C3_3  and  C4_4 
REMARK    3  A    between atoms: C4_4  and  C5_5 
REMARK    4  A    between atoms: C4_4  and  C6_8 
REMARK    5  A    between atoms: C5_5  and  O1_6 
REMARK    6  A    between atoms: C6_8  and  O2_9 
REMARK    7  A    between atoms: O2_9  and  C7_10 
REMARK    8  A    between atoms: C7_10  and  O3_11 
REMARK    9  A    between atoms: C7_10  and  O4_13 
REMARK   10  A    between atoms: O4_13  and  C8_14 
REMARK   11  A    between atoms: C15_21  and  O5_22 
REMARK   12  A    between atoms: C16_24  and  O6_26 
ROOT
HETATM    1  C8  UNL     1      15.910  36.405  61.501  1.00  0.00     0.265 C 
HETATM    2  C9  UNL     1      15.443  36.932  60.186  1.00  0.00     0.061 C 
HETATM    3  C10 UNL     1      16.391  37.899  59.537  1.00  0.00     0.015 C 
HETATM    4  C11 UNL     1      17.839  37.522  59.694  1.00  0.00     0.051 C 
HETATM    5  C12 UNL     1      18.049  36.350  60.612  1.00  0.00     0.131 C 
HETATM    6  C13 UNL     1      17.882  35.017  59.985  1.00  0.00     0.035 C 
HETATM    7  C14 UNL     1      18.261  34.984  58.523  1.00  0.00     0.037 C 
HETATM    8  C15 UNL     1      19.244  36.081  58.178  1.00  0.00     0.152 C 
HETATM    9  C16 UNL     1      18.513  37.399  58.370  1.00  0.00     0.086 C 
HETATM   10  C17 UNL     1      19.576  38.485  58.152  1.00  0.00     0.049 C 
HETATM   11  O7  UNL     1      17.252  36.514  61.732  1.00  0.00    -0.355 OA
ENDROOT
BRANCH   1  12
HETATM   12  O4  UNL     1      15.254  37.152  62.501  1.00  0.00    -0.308 OA
BRANCH  12  13
HETATM   13  C7  UNL     1      14.037  36.630  62.852  1.00  0.00     0.412 C 
BRANCH  13  14
HETATM   14  O2  UNL     1      13.131  37.684  62.947  1.00  0.00    -0.339 OA
BRANCH  14  15
HETATM   15  C6  UNL     1      12.580  37.983  61.721  1.00  0.00     0.180 C 
BRANCH  15  16
HETATM   16  C4  UNL     1      11.041  37.728  61.819  1.00  0.00     0.033 C 
BRANCH  16  17
HETATM   17  C3  UNL     1      10.404  39.004  61.554  1.00  0.00     0.008 C 
BRANCH  17  18
HETATM   18  C2  UNL     1       9.022  39.341  61.930  1.00  0.00    -0.004 C 
HETATM   19  C1  UNL     1       8.568  40.733  61.617  1.00  0.00     0.005 C 
ENDBRANCH  17  18
ENDBRANCH  16  17
BRANCH  16  20
HETATM   20  C5  UNL     1      10.852  36.933  63.030  1.00  0.00     0.170 C 
BRANCH  20  21
HETATM   21  O1  UNL     1      10.768  35.580  62.967  1.00  0.00    -0.400 OA
ATOM     22  H1  UNL     1      11.276  35.034  63.554  1.00  0.00     0.209 HD
ENDBRANCH  20  21
ENDBRANCH  16  20
ENDBRANCH  15  16
ENDBRANCH  14  15
ENDBRANCH  13  14
BRANCH  13  23
HETATM   23  O3  UNL     1      14.164  36.108  64.155  1.00  0.00    -0.349 OA
ATOM     24  H3  UNL     1      14.063  36.846  64.744  1.00  0.00     0.215 HD
ENDBRANCH  13  23
ENDBRANCH  12  13
ENDBRANCH   1  12
BRANCH   9  25
HETATM   25  O6  UNL     1      17.638  37.519  57.285  1.00  0.00    -0.387 OA
ATOM     26  H6  UNL     1      18.059  37.394  56.443  1.00  0.00     0.210 HD
ENDBRANCH   9  25
BRANCH   8  27
HETATM   27  O5  UNL     1      19.533  35.976  56.817  1.00  0.00    -0.393 OA
ATOM     28  H5  UNL     1      18.862  36.453  56.343  1.00  0.00     0.210 HD
ENDBRANCH   8  27
TORSDOF 12
ENDMDL
MODEL 5
REMARK VINA RESULT: -7.309663453      1.221      1.424
REMARK  12 active torsions:
REMARK  status: ('A' for Active; 'I' for Inactive)
REMARK    1  A    between atoms: C2_2  and  C3_3 
REMARK    2  A    between atoms: C3_3  and  C4_4 
REMARK    3  A    between atoms: C4_4  and  C5_5 
REMARK    4  A    between atoms: C4_4  and  C6_8 
REMARK    5  A    between atoms: C5_5  and  O1_6 
REMARK    6  A    between atoms: C6_8  and  O2_9 
REMARK    7  A    between atoms: O2_9  and  C7_10 
REMARK    8  A    between atoms: C7_10  and  O3_11 
REMARK    9  A    between atoms: C7_10  and  O4_13 
REMARK   10  A    between atoms: O4_13  and  C8_14 
REMARK   11  A    between atoms: C15_21  and  O5_22 
REMARK   12  A    between atoms: C16_24  and  O6_26 
ROOT
HETATM    1  C8  UNL     1      16.382  38.420  59.722  1.00  0.00     0.265 C 
HETATM    2  C9  UNL     1      16.839  37.039  60.050  1.00  0.00     0.061 C 
HETATM    3  C10 UNL     1      16.974  36.135  58.858  1.00  0.00     0.015 C 
HETATM    4  C11 UNL     1      17.542  36.818  57.644  1.00  0.00     0.051 C 
HETATM    5  C12 UNL     1      17.698  38.302  57.819  1.00  0.00     0.131 C 
HETATM    6  C13 UNL     1      18.939  38.732  58.507  1.00  0.00     0.035 C 
HETATM    7  C14 UNL     1      20.114  37.812  58.267  1.00  0.00     0.037 C 
HETATM    8  C15 UNL     1      19.961  37.040  56.974  1.00  0.00     0.152 C 
HETATM    9  C16 UNL     1      18.765  36.121  57.154  1.00  0.00     0.086 C 
HETATM   10  C17 UNL     1      18.553  35.463  55.783  1.00  0.00     0.049 C 
HETATM   11  O7  UNL     1      16.557  38.802  58.422  1.00  0.00    -0.355 OA
ENDROOT
BRANCH   1  12
HETATM   12  O4  UNL     1      14.997  38.471  59.988  1.00  0.00    -0.308 OA
BRANCH  12  13
HETATM   13  C7  UNL     1      14.663  37.938  61.204  1.00  0.00     0.412 C 
BRANCH  13  14
HETATM   14  O2  UNL     1      13.380  37.404  61.098  1.00  0.00    -0.339 OA
BRANCH  14  15
HETATM   15  C6  UNL     1      12.429  38.291  61.551  1.00  0.00     0.180 C 
BRANCH  15  16
HETATM   16  C4  UNL     1      11.115  37.485  61.813  1.00  0.00     0.033 C 
BRANCH  16  17
HETATM   17  C3  UNL     1      10.044  38.462  61.846  1.00  0.00     0.008 C 
BRANCH  17  18
HETATM   18  C2  UNL     1       8.612  38.130  61.786  1.00  0.00    -0.004 C 
HETATM   19  C1  UNL     1       7.779  38.565  62.953  1.00  0.00     0.005 C 
ENDBRANCH  17  18
ENDBRANCH  16  17
BRANCH  16  20
HETATM   20  C5  UNL     1      11.435  36.556  62.894  1.00  0.00     0.170 C 
BRANCH  20  21
HETATM   21  O1  UNL     1      10.667  35.459  63.118  1.00  0.00    -0.400 OA
ATOM     22  H1  UNL     1       9.727  35.539  63.223  1.00  0.00     0.209 HD
ENDBRANCH  20  21
ENDBRANCH  16  20
ENDBRANCH  15  16
ENDBRANCH  14  15
ENDBRANCH  13  14
BRANCH  13  23
HETATM   23  O3  UNL     1      14.565  39.005  62.120  1.00  0.00    -0.349 OA
ATOM     24  H3  UNL     1      14.599  39.799  61.600  1.00  0.00     0.215 HD
ENDBRANCH  13  23
ENDBRANCH  12  13
ENDBRANCH   1  12
BRANCH   9  25
HETATM   25  O6  UNL     1      19.193  35.087  57.994  1.00  0.00    -0.387 OA
ATOM     26  H6  UNL     1      19.385  34.279  57.533  1.00  0.00     0.210 HD
ENDBRANCH   9  25
BRANCH   8  27
HETATM   27  O5  UNL     1      21.081  36.221  56.837  1.00  0.00    -0.393 OA
ATOM     28  H5  UNL     1      20.957  35.692  56.058  1.00  0.00     0.210 HD
ENDBRANCH   8  27
TORSDOF 12
ENDMDL
