MODEL 1
REMARK VINA RESULT: -8.452961436      0.000      0.000
REMARK  17 active torsions:
REMARK  status: ('A' for Active; 'I' for Inactive)
REMARK    1  A    between atoms: C4_4  and  C5_5 
REMARK    2  A    between atoms: C5_5  and  O1_6 
REMARK    3  A    between atoms: O1_6  and  C6_7 
REMARK    4  A    between atoms: C8_10  and  C9_11 
REMARK    5  A    between atoms: C9_11  and  O3_12 
REMARK    6  A    between atoms: C9_11  and  C10_14 
REMARK    7  A    between atoms: C10_14  and  O4_15 
REMARK    8  A    between atoms: O4_15  and  C11_16 
REMARK    9  A    between atoms: C11_16  and  C12_17 
REMARK   10  A    between atoms: C12_17  and  O5_18 
REMARK   11  A    between atoms: C12_17  and  C13_20 
REMARK   12  A    between atoms: C16_23  and  C17_24 
REMARK   13  A    between atoms: C18_25  and  C19_26 
REMARK   14  A    between atoms: C19_26  and  O6_27 
REMARK   15  A    between atoms: C19_26  and  C20_29 
REMARK   16  A    between atoms: C20_29  and  C21_30 
REMARK   17  A    between atoms: C21_30  and  O7_31 
ROOT
HETATM    1  C6  UNL     1      16.344  37.369  61.813  1.00  0.00     0.277 C 
HETATM    2  O2  UNL     1      15.727  36.439  62.751  1.00  0.00    -0.331 OA
HETATM    3  C7  UNL     1      14.364  36.652  62.722  1.00  0.00     0.144 C 
HETATM    4  C8  UNL     1      14.010  37.269  61.610  1.00  0.00    -0.015 C 
HETATM    5  C16 UNL     1      15.268  37.499  60.812  1.00  0.00     0.097 C 
ENDROOT
BRANCH   4   6
HETATM    6  C9  UNL     1      12.677  37.698  61.150  1.00  0.00     0.173 C 
BRANCH   6   7
HETATM    7  O3  UNL     1      12.524  39.102  61.178  1.00  0.00    -0.389 OA
ATOM      8  H3  UNL     1      12.652  39.463  62.048  1.00  0.00     0.210 HD
ENDBRANCH   6   7
BRANCH   6   9
HETATM    9  C10 UNL     1      11.591  37.195  62.127  1.00  0.00     0.204 C 
BRANCH   9  10
HETATM   10  O4  UNL     1      10.405  37.418  61.495  1.00  0.00    -0.386 OA
BRANCH  10  11
HETATM   11  C11 UNL     1       9.372  38.003  62.148  1.00  0.00     0.199 C 
BRANCH  11  12
HETATM   12  C12 UNL     1       9.201  39.445  61.782  1.00  0.00     0.145 C 
BRANCH  12  13
HETATM   13  O5  UNL     1       9.824  39.786  60.607  1.00  0.00    -0.393 OA
ATOM     14  H5  UNL     1      10.767  39.672  60.636  1.00  0.00     0.210 HD
ENDBRANCH  12  13
BRANCH  12  15
HETATM   15  C13 UNL     1       7.735  39.858  61.786  1.00  0.00     0.008 C 
HETATM   16  C14 UNL     1       7.703  41.380  61.811  1.00  0.00     0.012 C 
HETATM   17  C15 UNL     1       7.131  39.378  63.087  1.00  0.00     0.012 C 
ENDBRANCH  12  15
ENDBRANCH  11  12
ENDBRANCH  10  11
ENDBRANCH   9  10
ENDBRANCH   6   9
ENDBRANCH   4   6
BRANCH   5  18
HETATM   18  C17 UNL     1      15.172  38.816  60.209  1.00  0.00    -0.014 C 
HETATM   19  C18 UNL     1      15.939  39.273  59.270  1.00  0.00     0.001 C 
BRANCH  19  20
HETATM   20  C19 UNL     1      15.736  40.677  58.720  1.00  0.00     0.142 C 
BRANCH  20  21
HETATM   21  O6  UNL     1      16.983  41.091  58.280  1.00  0.00    -0.392 OA
ATOM     22  H6  UNL     1      16.846  41.948  57.891  1.00  0.00     0.210 HD
ENDBRANCH  20  21
BRANCH  20  23
HETATM   23  C20 UNL     1      15.240  41.502  59.891  1.00  0.00     0.061 C 
BRANCH  23  24
HETATM   24  C21 UNL     1      15.788  42.906  59.833  1.00  0.00     0.167 C 
BRANCH  24  25
HETATM   25  O7  UNL     1      15.204  43.632  60.863  1.00  0.00    -0.401 OA
ATOM     26  H7  UNL     1      15.380  43.176  61.677  1.00  0.00     0.209 HD
ENDBRANCH  24  25
ENDBRANCH  23  24
ENDBRANCH  20  23
ENDBRANCH  19  20
ENDBRANCH   5  18
BRANCH   1  27
HETATM   27  O1  UNL     1      17.450  36.649  61.355  1.00  0.00    -0.356 OA
BRANCH  27  28
HETATM   28  C5  UNL     1      17.065  35.880  60.270  1.00  0.00     0.198 C 
BRANCH  28  29
HETATM   29  C4  UNL     1      17.993  36.076  59.096  1.00  0.00     0.001 C 
HETATM   30  C2  UNL     1      18.582  35.035  58.537  1.00  0.00    -0.089 C 
HETATM   31  C1  UNL     1      19.503  35.226  57.371  1.00  0.00     0.042 C 
HETATM   32  C3  UNL     1      18.310  33.679  59.088  1.00  0.00     0.042 C 
ENDBRANCH  28  29
ENDBRANCH  27  28
ENDBRANCH   1  27
TORSDOF 17
ENDMDL
MODEL 2
REMARK VINA RESULT: -8.302231507      1.774      2.238
REMARK  17 active torsions:
REMARK  status: ('A' for Active; 'I' for Inactive)
REMARK    1  A    between atoms: C4_4  and  C5_5 
REMARK    2  A    between atoms: C5_5  and  O1_6 
REMARK    3  A    between atoms: O1_6  and  C6_7 
REMARK    4  A    between atoms: C8_10  and  C9_11 
REMARK    5  A    between atoms: C9_11  and  O3_12 
REMARK    6  A    between atoms: C9_11  and  C10_14 
REMARK    7  A    between atoms: C10_14  and  O4_15 
REMARK    8  A    between atoms: O4_15  and  C11_16 
REMARK    9  A    between atoms: C11_16  and  C12_17 
REMARK   10  A    between atoms: C12_17  and  O5_18 
REMARK   11  A    between atoms: C12_17  and  C13_20 
REMARK   12  A    between atoms: C16_23  and  C17_24 
REMARK   13  A    between atoms: C18_25  and  C19_26 
REMARK   14  A    between atoms: C19_26  and  O6_27 
REMARK   15  A    between atoms: C19_26  and  C20_29 
REMARK   16  A    between atoms: C20_29  and  C21_30 
REMARK   17  A    between atoms: C21_30  and  O7_31 
ROOT
HETATM    1  C6  UNL     1      17.080  37.383  59.787  1.00  0.00     0.277 C 
HETATM    2  O2  UNL     1      17.060  36.294  60.755  1.00  0.00    -0.331 OA
HETATM    3  C7  UNL     1      16.117  36.600  61.715  1.00  0.00     0.144 C 
HETATM    4  C8  UNL     1      15.260  37.495  61.262  1.00  0.00    -0.015 C 
HETATM    5  C16 UNL     1      15.675  37.830  59.852  1.00  0.00     0.097 C 
ENDROOT
BRANCH   4   6
HETATM    6  C9  UNL     1      14.099  38.114  61.926  1.00  0.00     0.173 C 
BRANCH   6   7
HETATM    7  O3  UNL     1      14.052  37.826  63.308  1.00  0.00    -0.389 OA
ATOM      8  H3  UNL     1      13.674  38.536  63.814  1.00  0.00     0.210 HD
ENDBRANCH   6   7
BRANCH   6   9
HETATM    9  C10 UNL     1      12.789  37.500  61.383  1.00  0.00     0.204 C 
BRANCH   9  10
HETATM   10  O4  UNL     1      11.788  38.125  62.063  1.00  0.00    -0.386 OA
BRANCH  10  11
HETATM   11  C11 UNL     1      10.493  37.944  61.711  1.00  0.00     0.199 C 
BRANCH  11  12
HETATM   12  C12 UNL     1       9.742  39.234  61.586  1.00  0.00     0.145 C 
BRANCH  12  13
HETATM   13  O5  UNL     1      10.077  39.951  60.464  1.00  0.00    -0.393 OA
ATOM     14  H5  UNL     1       9.732  40.836  60.467  1.00  0.00     0.210 HD
ENDBRANCH  12  13
BRANCH  12  15
HETATM   15  C13 UNL     1       8.239  39.025  61.698  1.00  0.00     0.008 C 
HETATM   16  C14 UNL     1       7.614  40.398  61.908  1.00  0.00     0.012 C 
HETATM   17  C15 UNL     1       7.983  38.222  62.954  1.00  0.00     0.012 C 
ENDBRANCH  12  15
ENDBRANCH  11  12
ENDBRANCH  10  11
ENDBRANCH   9  10
ENDBRANCH   6   9
ENDBRANCH   4   6
BRANCH   5  18
HETATM   18  C17 UNL     1      15.496  39.259  59.668  1.00  0.00    -0.014 C 
HETATM   19  C18 UNL     1      16.050  39.976  58.742  1.00  0.00     0.001 C 
BRANCH  19  20
HETATM   20  C19 UNL     1      15.781  41.470  58.655  1.00  0.00     0.142 C 
BRANCH  20  21
HETATM   21  O6  UNL     1      16.906  42.020  58.062  1.00  0.00    -0.392 OA
ATOM     22  H6  UNL     1      16.681  42.923  57.872  1.00  0.00     0.210 HD
ENDBRANCH  20  21
BRANCH  20  23
HETATM   23  C20 UNL     1      15.606  41.933  60.087  1.00  0.00     0.061 C 
BRANCH  23  24
HETATM   24  C21 UNL     1      15.686  43.436  60.183  1.00  0.00     0.167 C 
BRANCH  24  25
HETATM   25  O7  UNL     1      14.856  43.840  61.221  1.00  0.00    -0.401 OA
ATOM     26  H7  UNL     1      14.749  44.782  61.158  1.00  0.00     0.209 HD
ENDBRANCH  24  25
ENDBRANCH  23  24
ENDBRANCH  20  23
ENDBRANCH  19  20
ENDBRANCH   5  18
BRANCH   1  27
HETATM   27  O1  UNL     1      17.403  36.727  58.598  1.00  0.00    -0.356 OA
BRANCH  27  28
HETATM   28  C5  UNL     1      18.356  37.469  57.921  1.00  0.00     0.198 C 
BRANCH  28  29
HETATM   29  C4  UNL     1      19.670  37.491  58.665  1.00  0.00     0.001 C 
HETATM   30  C2  UNL     1      20.566  38.422  58.396  1.00  0.00    -0.089 C 
HETATM   31  C1  UNL     1      21.871  38.447  59.132  1.00  0.00     0.042 C 
HETATM   32  C3  UNL     1      20.252  39.438  57.353  1.00  0.00     0.042 C 
ENDBRANCH  28  29
ENDBRANCH  27  28
ENDBRANCH   1  27
TORSDOF 17
ENDMDL
MODEL 3
REMARK VINA RESULT: -8.234459616      1.871      2.664
REMARK  17 active torsions:
REMARK  status: ('A' for Active; 'I' for Inactive)
REMARK    1  A    between atoms: C4_4  and  C5_5 
REMARK    2  A    between atoms: C5_5  and  O1_6 
REMARK    3  A    between atoms: O1_6  and  C6_7 
REMARK    4  A    between atoms: C8_10  and  C9_11 
REMARK    5  A    between atoms: C9_11  and  O3_12 
REMARK    6  A    between atoms: C9_11  and  C10_14 
REMARK    7  A    between atoms: C10_14  and  O4_15 
REMARK    8  A    between atoms: O4_15  and  C11_16 
REMARK    9  A    between atoms: C11_16  and  C12_17 
REMARK   10  A    between atoms: C12_17  and  O5_18 
REMARK   11  A    between atoms: C12_17  and  C13_20 
REMARK   12  A    between atoms: C16_23  and  C17_24 
REMARK   13  A    between atoms: C18_25  and  C19_26 
REMARK   14  A    between atoms: C19_26  and  O6_27 
REMARK   15  A    between atoms: C19_26  and  C20_29 
REMARK   16  A    between atoms: C20_29  and  C21_30 
REMARK   17  A    between atoms: C21_30  and  O7_31 
ROOT
HETATM    1  C6  UNL     1      17.705  37.461  59.452  1.00  0.00     0.277 C 
HETATM    2  O2  UNL     1      17.828  36.373  60.414  1.00  0.00    -0.331 OA
HETATM    3  C7  UNL     1      16.846  36.540  61.369  1.00  0.00     0.144 C 
HETATM    4  C8  UNL     1      15.877  37.312  60.914  1.00  0.00    -0.015 C 
HETATM    5  C16 UNL     1      16.251  37.710  59.509  1.00  0.00     0.097 C 
ENDROOT
BRANCH   4   6
HETATM    6  C9  UNL     1      14.637  37.762  61.572  1.00  0.00     0.173 C 
BRANCH   6   7
HETATM    7  O3  UNL     1      14.868  38.796  62.506  1.00  0.00    -0.389 OA
ATOM      8  H3  UNL     1      14.574  38.567  63.380  1.00  0.00     0.210 HD
ENDBRANCH   6   7
BRANCH   6   9
HETATM    9  C10 UNL     1      14.049  36.620  62.432  1.00  0.00     0.204 C 
BRANCH   9  10
HETATM   10  O4  UNL     1      12.780  37.012  62.733  1.00  0.00    -0.386 OA
BRANCH  10  11
HETATM   11  C11 UNL     1      11.901  37.326  61.751  1.00  0.00     0.199 C 
BRANCH  11  12
HETATM   12  C12 UNL     1      10.483  37.033  62.130  1.00  0.00     0.145 C 
BRANCH  12  13
HETATM   13  O5  UNL     1      10.362  36.434  63.360  1.00  0.00    -0.393 OA
ATOM     14  H5  UNL     1       9.906  35.601  63.328  1.00  0.00     0.210 HD
ENDBRANCH  12  13
BRANCH  12  15
HETATM   15  C13 UNL     1       9.600  38.268  62.012  1.00  0.00     0.008 C 
HETATM   16  C14 UNL     1       8.345  37.847  61.260  1.00  0.00     0.012 C 
HETATM   17  C15 UNL     1      10.329  39.266  61.140  1.00  0.00     0.012 C 
ENDBRANCH  12  15
ENDBRANCH  11  12
ENDBRANCH  10  11
ENDBRANCH   9  10
ENDBRANCH   6   9
ENDBRANCH   4   6
BRANCH   5  18
HETATM   18  C17 UNL     1      15.879  39.102  59.331  1.00  0.00    -0.014 C 
HETATM   19  C18 UNL     1      16.511  39.964  58.599  1.00  0.00     0.001 C 
BRANCH  19  20
HETATM   20  C19 UNL     1      16.018  41.399  58.494  1.00  0.00     0.142 C 
BRANCH  20  21
HETATM   21  O6  UNL     1      17.083  42.126  57.986  1.00  0.00    -0.392 OA
ATOM     22  H6  UNL     1      17.753  42.104  58.659  1.00  0.00     0.210 HD
ENDBRANCH  20  21
BRANCH  20  23
HETATM   23  C20 UNL     1      15.669  41.811  59.910  1.00  0.00     0.061 C 
BRANCH  23  24
HETATM   24  C21 UNL     1      15.758  43.307  60.075  1.00  0.00     0.167 C 
BRANCH  24  25
HETATM   25  O7  UNL     1      14.891  43.674  61.097  1.00  0.00    -0.401 OA
ATOM     26  H7  UNL     1      14.791  44.619  61.068  1.00  0.00     0.209 HD
ENDBRANCH  24  25
ENDBRANCH  23  24
ENDBRANCH  20  23
ENDBRANCH  19  20
ENDBRANCH   5  18
BRANCH   1  27
HETATM   27  O1  UNL     1      18.123  36.862  58.262  1.00  0.00    -0.356 OA
BRANCH  27  28
HETATM   28  C5  UNL     1      17.081  36.109  57.749  1.00  0.00     0.198 C 
BRANCH  28  29
HETATM   29  C4  UNL     1      17.128  36.055  56.241  1.00  0.00     0.001 C 
HETATM   30  C2  UNL     1      16.608  35.025  55.600  1.00  0.00    -0.089 C 
HETATM   31  C1  UNL     1      16.652  34.968  54.104  1.00  0.00     0.042 C 
HETATM   32  C3  UNL     1      15.983  33.930  56.393  1.00  0.00     0.042 C 
ENDBRANCH  28  29
ENDBRANCH  27  28
ENDBRANCH   1  27
TORSDOF 17
ENDMDL
MODEL 4
REMARK VINA RESULT: -8.202931367      1.353      1.814
REMARK  17 active torsions:
REMARK  status: ('A' for Active; 'I' for Inactive)
REMARK    1  A    between atoms: C4_4  and  C5_5 
REMARK    2  A    between atoms: C5_5  and  O1_6 
REMARK    3  A    between atoms: O1_6  and  C6_7 
REMARK    4  A    between atoms: C8_10  and  C9_11 
REMARK    5  A    between atoms: C9_11  and  O3_12 
REMARK    6  A    between atoms: C9_11  and  C10_14 
REMARK    7  A    between atoms: C10_14  and  O4_15 
REMARK    8  A    between atoms: O4_15  and  C11_16 
REMARK    9  A    between atoms: C11_16  and  C12_17 
REMARK   10  A    between atoms: C12_17  and  O5_18 
REMARK   11  A    between atoms: C12_17  and  C13_20 
REMARK   12  A    between atoms: C16_23  and  C17_24 
REMARK   13  A    between atoms: C18_25  and  C19_26 
REMARK   14  A    between atoms: C19_26  and  O6_27 
REMARK   15  A    between atoms: C19_26  and  C20_29 
REMARK   16  A    between atoms: C20_29  and  C21_30 
REMARK   17  A    between atoms: C21_30  and  O7_31 
ROOT
HETATM    1  C6  UNL     1      17.134  37.625  59.807  1.00  0.00     0.277 C 
HETATM    2  O2  UNL     1      17.129  36.500  60.734  1.00  0.00    -0.331 OA
HETATM    3  C7  UNL     1      16.165  36.745  61.691  1.00  0.00     0.144 C 
HETATM    4  C8  UNL     1      15.291  37.634  61.259  1.00  0.00    -0.015 C 
HETATM    5  C16 UNL     1      15.717  38.033  59.868  1.00  0.00     0.097 C 
ENDROOT
BRANCH   4   6
HETATM    6  C9  UNL     1      14.105  38.198  61.928  1.00  0.00     0.173 C 
BRANCH   6   7
HETATM    7  O3  UNL     1      14.079  37.910  63.311  1.00  0.00    -0.389 OA
ATOM      8  H3  UNL     1      14.876  38.181  63.752  1.00  0.00     0.210 HD
ENDBRANCH   6   7
BRANCH   6   9
HETATM    9  C10 UNL     1      12.823  37.522  61.392  1.00  0.00     0.204 C 
BRANCH   9  10
HETATM   10  O4  UNL     1      11.832  38.440  61.563  1.00  0.00    -0.386 OA
BRANCH  10  11
HETATM   11  C11 UNL     1      10.544  38.049  61.718  1.00  0.00     0.199 C 
BRANCH  11  12
HETATM   12  C12 UNL     1       9.582  39.195  61.667  1.00  0.00     0.145 C 
BRANCH  12  13
HETATM   13  O5  UNL     1       9.841  40.076  60.645  1.00  0.00    -0.393 OA
ATOM     14  H5  UNL     1      10.417  40.787  60.900  1.00  0.00     0.210 HD
ENDBRANCH  12  13
BRANCH  12  15
HETATM   15  C13 UNL     1       8.136  38.718  61.651  1.00  0.00     0.008 C 
HETATM   16  C14 UNL     1       7.736  38.465  63.098  1.00  0.00     0.012 C 
HETATM   17  C15 UNL     1       8.105  37.384  60.939  1.00  0.00     0.012 C 
ENDBRANCH  12  15
ENDBRANCH  11  12
ENDBRANCH  10  11
ENDBRANCH   9  10
ENDBRANCH   6   9
ENDBRANCH   4   6
BRANCH   5  18
HETATM   18  C17 UNL     1      15.503  39.463  59.735  1.00  0.00    -0.014 C 
HETATM   19  C18 UNL     1      15.907  40.197  58.747  1.00  0.00     0.001 C 
BRANCH  19  20
HETATM   20  C19 UNL     1      15.619  41.690  58.724  1.00  0.00     0.142 C 
BRANCH  20  21
HETATM   21  O6  UNL     1      16.698  42.271  58.078  1.00  0.00    -0.392 OA
ATOM     22  H6  UNL     1      16.367  43.076  57.697  1.00  0.00     0.210 HD
ENDBRANCH  20  21
BRANCH  20  23
HETATM   23  C20 UNL     1      15.532  42.107  60.179  1.00  0.00     0.061 C 
BRANCH  23  24
HETATM   24  C21 UNL     1      15.609  43.607  60.316  1.00  0.00     0.167 C 
BRANCH  24  25
HETATM   25  O7  UNL     1      14.754  43.983  61.345  1.00  0.00    -0.401 OA
ATOM     26  H7  UNL     1      14.409  44.844  61.136  1.00  0.00     0.209 HD
ENDBRANCH  24  25
ENDBRANCH  23  24
ENDBRANCH  20  23
ENDBRANCH  19  20
ENDBRANCH   5  18
BRANCH   1  27
HETATM   27  O1  UNL     1      17.490  37.022  58.599  1.00  0.00    -0.356 OA
BRANCH  27  28
HETATM   28  C5  UNL     1      16.677  35.922  58.391  1.00  0.00     0.198 C 
BRANCH  28  29
HETATM   29  C4  UNL     1      17.041  35.197  57.117  1.00  0.00     0.001 C 
HETATM   30  C2  UNL     1      17.801  34.119  57.164  1.00  0.00    -0.089 C 
HETATM   31  C1  UNL     1      18.165  33.398  55.902  1.00  0.00     0.042 C 
HETATM   32  C3  UNL     1      18.285  33.642  58.489  1.00  0.00     0.042 C 
ENDBRANCH  28  29
ENDBRANCH  27  28
ENDBRANCH   1  27
TORSDOF 17
ENDMDL
MODEL 5
REMARK VINA RESULT: -8.129026368      1.278      7.636
REMARK  17 active torsions:
REMARK  status: ('A' for Active; 'I' for Inactive)
REMARK    1  A    between atoms: C4_4  and  C5_5 
REMARK    2  A    between atoms: C5_5  and  O1_6 
REMARK    3  A    between atoms: O1_6  and  C6_7 
REMARK    4  A    between atoms: C8_10  and  C9_11 
REMARK    5  A    between atoms: C9_11  and  O3_12 
REMARK    6  A    between atoms: C9_11  and  C10_14 
REMARK    7  A    between atoms: C10_14  and  O4_15 
REMARK    8  A    between atoms: O4_15  and  C11_16 
REMARK    9  A    between atoms: C11_16  and  C12_17 
REMARK   10  A    between atoms: C12_17  and  O5_18 
REMARK   11  A    between atoms: C12_17  and  C13_20 
REMARK   12  A    between atoms: C16_23  and  C17_24 
REMARK   13  A    between atoms: C18_25  and  C19_26 
REMARK   14  A    between atoms: C19_26  and  O6_27 
REMARK   15  A    between atoms: C19_26  and  C20_29 
REMARK   16  A    between atoms: C20_29  and  C21_30 
REMARK   17  A    between atoms: C21_30  and  O7_31 
ROOT
HETATM    1  C6  UNL     1      12.243  38.422  61.052  1.00  0.00     0.277 C 
HETATM    2  O2  UNL     1      11.797  37.415  62.007  1.00  0.00    -0.331 OA
HETATM    3  C7  UNL     1      12.872  36.597  62.291  1.00  0.00     0.144 C 
HETATM    4  C8  UNL     1      14.008  37.195  61.990  1.00  0.00    -0.015 C 
HETATM    5  C16 UNL     1      13.660  38.555  61.441  1.00  0.00     0.097 C 
ENDROOT
BRANCH   4   6
HETATM    6  C9  UNL     1      15.395  36.713  62.119  1.00  0.00     0.173 C 
BRANCH   6   7
HETATM    7  O3  UNL     1      16.264  37.702  62.633  1.00  0.00    -0.389 OA
ATOM      8  H3  UNL     1      17.126  37.358  62.836  1.00  0.00     0.210 HD
ENDBRANCH   6   7
BRANCH   6   9
HETATM    9  C10 UNL     1      15.982  36.404  60.723  1.00  0.00     0.204 C 
BRANCH   9  10
HETATM   10  O4  UNL     1      17.284  36.799  60.783  1.00  0.00    -0.386 OA
BRANCH  10  11
HETATM   11  C11 UNL     1      18.262  36.044  60.229  1.00  0.00     0.199 C 
BRANCH  11  12
HETATM   12  C12 UNL     1      18.061  35.823  58.761  1.00  0.00     0.145 C 
BRANCH  12  13
HETATM   13  O5  UNL     1      18.356  36.927  58.000  1.00  0.00    -0.393 OA
ATOM     14  H5  UNL     1      18.654  36.711  57.125  1.00  0.00     0.210 HD
ENDBRANCH  12  13
BRANCH  12  15
HETATM   15  C13 UNL     1      18.796  34.584  58.270  1.00  0.00     0.008 C 
HETATM   16  C14 UNL     1      18.341  34.335  56.839  1.00  0.00     0.012 C 
HETATM   17  C15 UNL     1      18.319  33.413  59.100  1.00  0.00     0.012 C 
ENDBRANCH  12  15
ENDBRANCH  11  12
ENDBRANCH  10  11
ENDBRANCH   9  10
ENDBRANCH   6   9
ENDBRANCH   4   6
BRANCH   5  18
HETATM   18  C17 UNL     1      14.558  38.826  60.332  1.00  0.00    -0.014 C 
HETATM   19  C18 UNL     1      14.856  40.000  59.872  1.00  0.00     0.001 C 
BRANCH  19  20
HETATM   20  C19 UNL     1      15.814  40.151  58.700  1.00  0.00     0.142 C 
BRANCH  20  21
HETATM   21  O6  UNL     1      16.634  39.034  58.740  1.00  0.00    -0.392 OA
ATOM     22  H6  UNL     1      17.222  39.121  57.998  1.00  0.00     0.210 HD
ENDBRANCH  20  21
BRANCH  20  23
HETATM   23  C20 UNL     1      16.579  41.431  58.967  1.00  0.00     0.061 C 
BRANCH  23  24
HETATM   24  C21 UNL     1      15.641  42.602  59.113  1.00  0.00     0.167 C 
BRANCH  24  25
HETATM   25  O7  UNL     1      16.030  43.321  60.237  1.00  0.00    -0.401 OA
ATOM     26  H7  UNL     1      15.243  43.639  60.665  1.00  0.00     0.209 HD
ENDBRANCH  24  25
ENDBRANCH  23  24
ENDBRANCH  20  23
ENDBRANCH  19  20
ENDBRANCH   5  18
BRANCH   1  27
HETATM   27  O1  UNL     1      11.463  39.529  61.392  1.00  0.00    -0.356 OA
BRANCH  27  28
HETATM   28  C5  UNL     1      10.233  39.419  60.768  1.00  0.00     0.198 C 
BRANCH  28  29
HETATM   29  C4  UNL     1       9.127  39.994  61.619  1.00  0.00     0.001 C 
HETATM   30  C2  UNL     1       8.076  39.256  61.924  1.00  0.00    -0.089 C 
HETATM   31  C1  UNL     1       6.976  39.822  62.770  1.00  0.00     0.042 C 
HETATM   32  C3  UNL     1       8.010  37.859  61.412  1.00  0.00     0.042 C 
ENDBRANCH  28  29
ENDBRANCH  27  28
ENDBRANCH   1  27
TORSDOF 17
ENDMDL
