MODEL 1
REMARK VINA RESULT: -8.912653012      0.000      0.000
REMARK  5 active torsions:
REMARK  status: ('A' for Active; 'I' for Inactive)
REMARK    1  A    between atoms: C3_3  and  O1_4 
REMARK    2  A    between atoms: C5_7  and  N1_8 
REMARK    3  A    between atoms: C10_18  and  C11_19 
REMARK    4  A    between atoms: C11_19  and  O5_20 
REMARK    5  A    between atoms: O5_20  and  C12_21 
ROOT
HETATM    1  C1  UNL     1      42.558 -44.619  69.945  1.00  0.00     0.015 C 
HETATM    2  C2  UNL     1      41.866 -45.423  70.539  1.00  0.00    -0.076 C 
HETATM    3  C3  UNL     1      41.014 -46.381  71.242  1.00  0.00     0.152 C 
HETATM    4  C4  UNL     1      40.871 -47.674  70.514  1.00  0.00     0.108 C 
HETATM    5  C5  UNL     1      39.443 -47.693  70.055  1.00  0.00     0.236 C 
HETATM    6  O4  UNL     1      38.893 -46.466  70.310  1.00  0.00    -0.355 OA
HETATM    7  C10 UNL     1      39.617 -45.860  71.326  1.00  0.00     0.195 C 
ENDROOT
BRANCH   3   8
HETATM    8  O1  UNL     1      41.539 -46.529  72.524  1.00  0.00    -0.375 OA
ATOM      9  H1  UNL     1      41.994 -47.363  72.543  1.00  0.00     0.212 HD
ENDBRANCH   3   8
BRANCH   7  10
HETATM   10  C11 UNL     1      38.942 -46.181  72.644  1.00  0.00     0.207 C 
BRANCH  10  11
HETATM   11  O5  UNL     1      39.379 -45.227  73.562  1.00  0.00    -0.359 OA
BRANCH  11  12
HETATM   12  C12 UNL     1      38.331 -44.324  73.752  1.00  0.00     0.259 C 
HETATM   13  C13 UNL     1      38.472 -43.243  72.692  1.00  0.00     0.061 C 
HETATM   14  C14 UNL     1      37.919 -41.975  73.254  1.00  0.00     0.005 C 
HETATM   15  C15 UNL     1      38.493 -40.741  72.552  1.00  0.00     0.000 C 
HETATM   16  C16 UNL     1      38.278 -39.574  73.504  1.00  0.00     0.000 C 
HETATM   17  C17 UNL     1      38.585 -38.260  72.894  1.00  0.00     0.000 C 
HETATM   18  C18 UNL     1      37.473 -37.583  72.194  1.00  0.00     0.000 C 
HETATM   19  C19 UNL     1      36.140 -38.225  72.299  1.00  0.00     0.002 C 
HETATM   20  C20 UNL     1      35.312 -37.711  73.458  1.00  0.00     0.020 C 
HETATM   21  C21 UNL     1      33.876 -37.456  73.041  1.00  0.00     0.122 C 
HETATM   22  N3  UNL     1      33.076 -37.410  74.235  1.00  0.00    -0.359 N 
HETATM   23  C22 UNL     1      31.944 -38.225  74.478  1.00  0.00     0.241 C 
ATOM     24  H3  UNL     1      33.342 -36.742  74.959  1.00  0.00     0.162 HD
HETATM   25  O6  UNL     1      30.991 -37.704  75.134  1.00  0.00    -0.271 OA
HETATM   26  C23 UNL     1      31.833 -39.634  74.004  1.00  0.00     0.270 C 
HETATM   27  O7  UNL     1      32.621 -40.497  74.751  1.00  0.00    -0.380 OA
HETATM   28  C24 UNL     1      31.943 -41.700  74.971  1.00  0.00     0.194 C 
HETATM   29  C25 UNL     1      32.944 -42.671  75.580  1.00  0.00     0.193 C 
HETATM   30  O8  UNL     1      32.732 -43.977  75.117  1.00  0.00    -0.389 OA
HETATM   31  C26 UNL     1      33.900 -44.695  75.403  1.00  0.00     0.169 C 
HETATM   32  C27 UNL     1      34.859 -44.566  74.262  1.00  0.00     0.052 C 
HETATM   33  C28 UNL     1      36.294 -44.574  74.764  1.00  0.00     0.173 C 
HETATM   34  O9  UNL     1      37.094 -44.945  73.685  1.00  0.00    -0.361 OA
ENDBRANCH  11  12
ENDBRANCH  10  11
ENDBRANCH   7  10
BRANCH   5  35
HETATM   35  N1  UNL     1      39.419 -47.911  68.607  1.00  0.00    -0.282 N 
HETATM   36  C6  UNL     1      39.896 -47.005  67.737  1.00  0.00     0.104 A 
HETATM   37  C7  UNL     1      39.863 -47.230  66.365  1.00  0.00     0.092 A 
HETATM   38  C8  UNL     1      39.322 -48.418  65.924  1.00  0.00     0.250 A 
HETATM   39  O2  UNL     1      39.280 -48.650  64.675  1.00  0.00    -0.268 OA
HETATM   40  N2  UNL     1      38.858 -49.291  66.829  1.00  0.00    -0.275 N 
HETATM   41  C9  UNL     1      38.885 -49.084  68.156  1.00  0.00     0.331 A 
ATOM     42  H2  UNL     1      38.459 -50.166  66.489  1.00  0.00     0.173 HD
HETATM   43  O3  UNL     1      38.435 -49.937  68.970  1.00  0.00    -0.246 OA
ENDBRANCH   5  35
TORSDOF 5
ENDMDL
MODEL 2
REMARK VINA RESULT: -8.695395155      5.884      8.800
REMARK  5 active torsions:
REMARK  status: ('A' for Active; 'I' for Inactive)
REMARK    1  A    between atoms: C3_3  and  O1_4 
REMARK    2  A    between atoms: C5_7  and  N1_8 
REMARK    3  A    between atoms: C10_18  and  C11_19 
REMARK    4  A    between atoms: C11_19  and  O5_20 
REMARK    5  A    between atoms: O5_20  and  C12_21 
ROOT
HETATM    1  C1  UNL     1      43.213 -47.616  64.464  1.00  0.00     0.015 C 
HETATM    2  C2  UNL     1      42.154 -48.185  64.648  1.00  0.00    -0.076 C 
HETATM    3  C3  UNL     1      40.873 -48.849  64.884  1.00  0.00     0.152 C 
HETATM    4  C4  UNL     1      39.874 -48.582  63.808  1.00  0.00     0.108 C 
HETATM    5  C5  UNL     1      38.836 -47.721  64.464  1.00  0.00     0.236 C 
HETATM    6  O4  UNL     1      39.291 -47.367  65.705  1.00  0.00    -0.355 OA
HETATM    7  C10 UNL     1      40.229 -48.304  66.115  1.00  0.00     0.195 C 
ENDROOT
BRANCH   3   8
HETATM    8  O1  UNL     1      41.143 -50.205  65.055  1.00  0.00    -0.375 OA
ATOM      9  H1  UNL     1      41.694 -50.283  65.825  1.00  0.00     0.212 HD
ENDBRANCH   3   8
BRANCH   7  10
HETATM   10  C11 UNL     1      39.516 -49.362  66.931  1.00  0.00     0.207 C 
BRANCH  10  11
HETATM   11  O5  UNL     1      40.409 -49.779  67.917  1.00  0.00    -0.359 OA
BRANCH  11  12
HETATM   12  C12 UNL     1      41.007 -48.634  68.447  1.00  0.00     0.259 C 
HETATM   13  C13 UNL     1      40.190 -48.222  69.661  1.00  0.00     0.061 C 
HETATM   14  C14 UNL     1      40.290 -46.739  69.799  1.00  0.00     0.005 C 
HETATM   15  C15 UNL     1      39.113 -46.158  70.589  1.00  0.00     0.000 C 
HETATM   16  C16 UNL     1      39.048 -44.682  70.227  1.00  0.00     0.000 C 
HETATM   17  C17 UNL     1      38.096 -43.918  71.065  1.00  0.00     0.000 C 
HETATM   18  C18 UNL     1      38.633 -43.342  72.315  1.00  0.00     0.000 C 
HETATM   19  C19 UNL     1      40.096 -43.472  72.525  1.00  0.00     0.002 C 
HETATM   20  C20 UNL     1      40.887 -42.290  72.005  1.00  0.00     0.020 C 
HETATM   21  C21 UNL     1      41.950 -41.858  72.998  1.00  0.00     0.122 C 
HETATM   22  N3  UNL     1      42.918 -41.066  72.286  1.00  0.00    -0.359 N 
HETATM   23  C22 UNL     1      44.306 -41.339  72.243  1.00  0.00     0.241 C 
ATOM     24  H3  UNL     1      42.579 -40.251  71.775  1.00  0.00     0.162 HD
HETATM   25  O6  UNL     1      45.086 -40.339  72.208  1.00  0.00    -0.271 OA
HETATM   26  C23 UNL     1      44.871 -42.718  72.236  1.00  0.00     0.270 C 
HETATM   27  O7  UNL     1      44.706 -43.342  71.009  1.00  0.00    -0.380 OA
HETATM   28  C24 UNL     1      45.848 -44.081  70.686  1.00  0.00     0.194 C 
HETATM   29  C25 UNL     1      45.507 -44.916  69.461  1.00  0.00     0.193 C 
HETATM   30  O8  UNL     1      46.120 -46.175  69.518  1.00  0.00    -0.389 OA
HETATM   31  C26 UNL     1      45.452 -46.986  68.591  1.00  0.00     0.169 C 
HETATM   32  C27 UNL     1      44.287 -47.649  69.253  1.00  0.00     0.052 C 
HETATM   33  C28 UNL     1      43.142 -47.833  68.268  1.00  0.00     0.173 C 
HETATM   34  O9  UNL     1      42.337 -48.849  68.776  1.00  0.00    -0.361 OA
ENDBRANCH  11  12
ENDBRANCH  10  11
ENDBRANCH   7  10
BRANCH   5  35
HETATM   35  N1  UNL     1      38.672 -46.498  63.674  1.00  0.00    -0.282 N 
HETATM   36  C6  UNL     1      39.693 -45.658  63.432  1.00  0.00     0.104 A 
HETATM   37  C7  UNL     1      39.517 -44.502  62.681  1.00  0.00     0.092 A 
HETATM   38  C8  UNL     1      38.256 -44.244  62.188  1.00  0.00     0.250 A 
HETATM   39  O2  UNL     1      38.067 -43.194  61.497  1.00  0.00    -0.268 OA
HETATM   40  N2  UNL     1      37.269 -45.110  62.455  1.00  0.00    -0.275 N 
HETATM   41  C9  UNL     1      37.427 -46.230  63.181  1.00  0.00     0.331 A 
ATOM     42  H2  UNL     1      36.341 -44.907  62.085  1.00  0.00     0.173 HD
HETATM   43  O3  UNL     1      36.467 -47.017  63.405  1.00  0.00    -0.246 OA
ENDBRANCH   5  35
TORSDOF 5
ENDMDL
MODEL 3
REMARK VINA RESULT: -8.616185534      2.195      2.721
REMARK  5 active torsions:
REMARK  status: ('A' for Active; 'I' for Inactive)
REMARK    1  A    between atoms: C3_3  and  O1_4 
REMARK    2  A    between atoms: C5_7  and  N1_8 
REMARK    3  A    between atoms: C10_18  and  C11_19 
REMARK    4  A    between atoms: C11_19  and  O5_20 
REMARK    5  A    between atoms: O5_20  and  C12_21 
ROOT
HETATM    1  C1  UNL     1      43.015 -48.512  70.490  1.00  0.00     0.015 C 
HETATM    2  C2  UNL     1      41.891 -48.184  70.163  1.00  0.00    -0.076 C 
HETATM    3  C3  UNL     1      40.545 -47.763  69.775  1.00  0.00     0.152 C 
HETATM    4  C4  UNL     1      40.402 -47.561  68.304  1.00  0.00     0.108 C 
HETATM    5  C5  UNL     1      40.234 -46.079  68.143  1.00  0.00     0.236 C 
HETATM    6  O4  UNL     1      40.460 -45.485  69.354  1.00  0.00    -0.355 OA
HETATM    7  C10 UNL     1      40.238 -46.422  70.354  1.00  0.00     0.195 C 
ENDROOT
BRANCH   3   8
HETATM    8  O1  UNL     1      39.660 -48.710  70.286  1.00  0.00    -0.375 OA
ATOM      9  H1  UNL     1      39.250 -48.322  71.051  1.00  0.00     0.212 HD
ENDBRANCH   3   8
BRANCH   7  10
HETATM   10  C11 UNL     1      38.802 -46.289  70.816  1.00  0.00     0.207 C 
BRANCH  10  11
HETATM   11  O5  UNL     1      38.829 -46.268  72.210  1.00  0.00    -0.359 OA
BRANCH  11  12
HETATM   12  C12 UNL     1      37.993 -45.230  72.625  1.00  0.00     0.259 C 
HETATM   13  C13 UNL     1      38.082 -44.134  71.575  1.00  0.00     0.061 C 
HETATM   14  C14 UNL     1      37.856 -42.825  72.258  1.00  0.00     0.005 C 
HETATM   15  C15 UNL     1      38.459 -41.659  71.470  1.00  0.00     0.000 C 
HETATM   16  C16 UNL     1      38.623 -40.518  72.463  1.00  0.00     0.000 C 
HETATM   17  C17 UNL     1      38.999 -39.237  71.822  1.00  0.00     0.000 C 
HETATM   18  C18 UNL     1      37.887 -38.371  71.377  1.00  0.00     0.000 C 
HETATM   19  C19 UNL     1      36.519 -38.813  71.745  1.00  0.00     0.002 C 
HETATM   20  C20 UNL     1      36.032 -38.237  73.057  1.00  0.00     0.020 C 
HETATM   21  C21 UNL     1      34.598 -37.753  72.949  1.00  0.00     0.122 C 
HETATM   22  N3  UNL     1      34.072 -37.645  74.283  1.00  0.00    -0.359 N 
HETATM   23  C22 UNL     1      32.901 -38.294  74.742  1.00  0.00     0.241 C 
ATOM     24  H3  UNL     1      34.578 -37.058  74.946  1.00  0.00     0.162 HD
HETATM   25  O6  UNL     1      32.191 -37.669  75.589  1.00  0.00    -0.271 OA
HETATM   26  C23 UNL     1      32.480 -39.648  74.281  1.00  0.00     0.270 C 
HETATM   27  O7  UNL     1      33.260 -40.651  74.836  1.00  0.00    -0.380 OA
HETATM   28  C24 UNL     1      32.463 -41.750  75.174  1.00  0.00     0.194 C 
HETATM   29  C25 UNL     1      33.405 -42.884  75.549  1.00  0.00     0.193 C 
HETATM   30  O8  UNL     1      32.906 -44.122  75.121  1.00  0.00    -0.389 OA
HETATM   31  C26 UNL     1      33.982 -45.017  75.149  1.00  0.00     0.169 C 
HETATM   32  C27 UNL     1      34.699 -44.980  73.837  1.00  0.00     0.052 C 
HETATM   33  C28 UNL     1      36.188 -45.223  74.031  1.00  0.00     0.173 C 
HETATM   34  O9  UNL     1      36.686 -45.658  72.805  1.00  0.00    -0.361 OA
ENDBRANCH  11  12
ENDBRANCH  10  11
ENDBRANCH   7  10
BRANCH   5  35
HETATM   35  N1  UNL     1      41.244 -45.592  67.201  1.00  0.00    -0.282 N 
HETATM   36  C6  UNL     1      42.543 -45.919  67.309  1.00  0.00     0.104 A 
HETATM   37  C7  UNL     1      43.487 -45.444  66.405  1.00  0.00     0.092 A 
HETATM   38  C8  UNL     1      43.045 -44.625  65.389  1.00  0.00     0.250 A 
HETATM   39  O2  UNL     1      43.887 -44.178  64.547  1.00  0.00    -0.268 OA
HETATM   40  N2  UNL     1      41.740 -44.327  65.321  1.00  0.00    -0.275 N 
HETATM   41  C9  UNL     1      40.820 -44.778  66.189  1.00  0.00     0.331 A 
ATOM     42  H2  UNL     1      41.427 -43.719  64.564  1.00  0.00     0.173 HD
HETATM   43  O3  UNL     1      39.601 -44.470  66.084  1.00  0.00    -0.246 OA
ENDBRANCH   5  35
TORSDOF 5
ENDMDL
MODEL 4
REMARK VINA RESULT: -8.615714911      5.006      8.862
REMARK  5 active torsions:
REMARK  status: ('A' for Active; 'I' for Inactive)
REMARK    1  A    between atoms: C3_3  and  O1_4 
REMARK    2  A    between atoms: C5_7  and  N1_8 
REMARK    3  A    between atoms: C10_18  and  C11_19 
REMARK    4  A    between atoms: C11_19  and  O5_20 
REMARK    5  A    between atoms: O5_20  and  C12_21 
ROOT
HETATM    1  C1  UNL     1      46.223 -43.712  61.931  1.00  0.00     0.015 C 
HETATM    2  C2  UNL     1      45.790 -44.596  62.645  1.00  0.00    -0.076 C 
HETATM    3  C3  UNL     1      45.258 -45.640  63.519  1.00  0.00     0.152 C 
HETATM    4  C4  UNL     1      43.964 -46.200  63.033  1.00  0.00     0.108 C 
HETATM    5  C5  UNL     1      42.949 -45.723  64.029  1.00  0.00     0.236 C 
HETATM    6  O4  UNL     1      43.557 -44.828  64.868  1.00  0.00    -0.355 OA
HETATM    7  C10 UNL     1      44.922 -45.070  64.857  1.00  0.00     0.195 C 
ENDROOT
BRANCH   3   8
HETATM    8  O1  UNL     1      46.255 -46.604  63.655  1.00  0.00    -0.375 OA
ATOM      9  H1  UNL     1      46.592 -46.531  64.540  1.00  0.00     0.212 HD
ENDBRANCH   3   8
BRANCH   7  10
HETATM   10  C11 UNL     1      45.246 -46.009  66.001  1.00  0.00     0.207 C 
BRANCH  10  11
HETATM   11  O5  UNL     1      45.556 -45.212  67.101  1.00  0.00    -0.359 OA
BRANCH  11  12
HETATM   12  C12 UNL     1      44.443 -45.216  67.944  1.00  0.00     0.259 C 
HETATM   13  C13 UNL     1      43.901 -46.637  67.965  1.00  0.00     0.061 C 
HETATM   14  C14 UNL     1      42.427 -46.562  68.192  1.00  0.00     0.005 C 
HETATM   15  C15 UNL     1      41.707 -47.814  67.684  1.00  0.00     0.000 C 
HETATM   16  C16 UNL     1      40.250 -47.417  67.495  1.00  0.00     0.000 C 
HETATM   17  C17 UNL     1      39.365 -48.569  67.209  1.00  0.00     0.000 C 
HETATM   18  C18 UNL     1      38.777 -49.255  68.378  1.00  0.00     0.000 C 
HETATM   19  C19 UNL     1      39.024 -48.631  69.702  1.00  0.00     0.002 C 
HETATM   20  C20 UNL     1      37.944 -47.656  70.121  1.00  0.00     0.020 C 
HETATM   21  C21 UNL     1      37.559 -47.852  71.575  1.00  0.00     0.122 C 
HETATM   22  N3  UNL     1      36.892 -46.655  72.015  1.00  0.00    -0.359 N 
HETATM   23  C22 UNL     1      37.288 -45.877  73.129  1.00  0.00     0.241 C 
ATOM     24  H3  UNL     1      36.077 -46.346  71.486  1.00  0.00     0.162 HD
HETATM   25  O6  UNL     1      36.363 -45.326  73.802  1.00  0.00    -0.271 OA
HETATM   26  C23 UNL     1      38.710 -45.684  73.530  1.00  0.00     0.270 C 
HETATM   27  O7  UNL     1      39.378 -44.815  72.680  1.00  0.00    -0.380 OA
HETATM   28  C24 UNL     1      40.229 -43.982  73.413  1.00  0.00     0.194 C 
HETATM   29  C25 UNL     1      41.091 -43.232  72.408  1.00  0.00     0.193 C 
HETATM   30  O8  UNL     1      42.395 -43.054  72.890  1.00  0.00    -0.389 OA
HETATM   31  C26 UNL     1      43.188 -42.728  71.783  1.00  0.00     0.169 C 
HETATM   32  C27 UNL     1      43.712 -43.982  71.157  1.00  0.00     0.052 C 
HETATM   33  C28 UNL     1      43.843 -43.815  69.650  1.00  0.00     0.173 C 
HETATM   34  O9  UNL     1      44.758 -44.773  69.220  1.00  0.00    -0.361 OA
ENDBRANCH  11  12
ENDBRANCH  10  11
ENDBRANCH   7  10
BRANCH   5  35
HETATM   35  N1  UNL     1      41.881 -45.023  63.313  1.00  0.00    -0.282 N 
HETATM   36  C6  UNL     1      42.096 -43.879  62.642  1.00  0.00     0.104 A 
HETATM   37  C7  UNL     1      41.068 -43.228  61.969  1.00  0.00     0.092 A 
HETATM   38  C8  UNL     1      39.814 -43.799  62.012  1.00  0.00     0.250 A 
HETATM   39  O2  UNL     1      38.856 -43.225  61.404  1.00  0.00    -0.268 OA
HETATM   40  N2  UNL     1      39.647 -44.940  62.693  1.00  0.00    -0.275 N 
HETATM   41  C9  UNL     1      40.633 -45.577  63.348  1.00  0.00     0.331 A 
ATOM     42  H2  UNL     1      38.713 -45.351  62.717  1.00  0.00     0.173 HD
HETATM   43  O3  UNL     1      40.427 -46.651  63.976  1.00  0.00    -0.246 OA
ENDBRANCH   5  35
TORSDOF 5
ENDMDL
MODEL 5
REMARK VINA RESULT: -8.453260439      8.628     12.551
REMARK  5 active torsions:
REMARK  status: ('A' for Active; 'I' for Inactive)
REMARK    1  A    between atoms: C3_3  and  O1_4 
REMARK    2  A    between atoms: C5_7  and  N1_8 
REMARK    3  A    between atoms: C10_18  and  C11_19 
REMARK    4  A    between atoms: C11_19  and  O5_20 
REMARK    5  A    between atoms: O5_20  and  C12_21 
ROOT
HETATM    1  C1  UNL     1      39.635 -51.823  67.344  1.00  0.00     0.015 C 
HETATM    2  C2  UNL     1      39.802 -50.663  67.669  1.00  0.00    -0.076 C 
HETATM    3  C3  UNL     1      40.019 -49.265  68.039  1.00  0.00     0.152 C 
HETATM    4  C4  UNL     1      39.039 -48.337  67.404  1.00  0.00     0.108 C 
HETATM    5  C5  UNL     1      39.851 -47.549  66.419  1.00  0.00     0.236 C 
HETATM    6  O4  UNL     1      41.101 -48.102  66.351  1.00  0.00    -0.355 OA
HETATM    7  C10 UNL     1      41.341 -48.796  67.527  1.00  0.00     0.195 C 
ENDROOT
BRANCH   3   8
HETATM    8  O1  UNL     1      40.005 -49.206  69.431  1.00  0.00    -0.375 OA
ATOM      9  H1  UNL     1      40.809 -49.613  69.734  1.00  0.00     0.212 HD
ENDBRANCH   3   8
BRANCH   7  10
HETATM   10  C11 UNL     1      42.054 -47.868  68.489  1.00  0.00     0.207 C 
BRANCH  10  11
HETATM   11  O5  UNL     1      43.356 -48.350  68.622  1.00  0.00    -0.359 OA
BRANCH  11  12
HETATM   12  C12 UNL     1      44.132 -47.724  67.645  1.00  0.00     0.259 C 
HETATM   13  C13 UNL     1      43.457 -46.402  67.314  1.00  0.00     0.061 C 
HETATM   14  C14 UNL     1      43.760 -46.078  65.888  1.00  0.00     0.005 C 
HETATM   15  C15 UNL     1      42.724 -45.124  65.287  1.00  0.00     0.000 C 
HETATM   16  C16 UNL     1      42.830 -45.280  63.778  1.00  0.00     0.000 C 
HETATM   17  C17 UNL     1      42.043 -44.272  63.031  1.00  0.00     0.000 C 
HETATM   18  C18 UNL     1      42.732 -43.005  62.708  1.00  0.00     0.000 C 
HETATM   19  C19 UNL     1      44.175 -42.935  63.043  1.00  0.00     0.002 C 
HETATM   20  C20 UNL     1      45.080 -43.357  61.904  1.00  0.00     0.020 C 
HETATM   21  C21 UNL     1      46.253 -42.406  61.750  1.00  0.00     0.122 C 
HETATM   22  N3  UNL     1      47.268 -43.084  60.989  1.00  0.00    -0.359 N 
HETATM   23  C22 UNL     1      48.602 -43.276  61.420  1.00  0.00     0.241 C 
ATOM     24  H3  UNL     1      47.007 -43.452  60.075  1.00  0.00     0.162 HD
HETATM   25  O6  UNL     1      49.504 -43.242  60.528  1.00  0.00    -0.271 OA
HETATM   26  C23 UNL     1      48.979 -43.512  62.843  1.00  0.00     0.270 C 
HETATM   27  O7  UNL     1      48.654 -44.794  63.261  1.00  0.00    -0.380 OA
HETATM   28  C24 UNL     1      49.666 -45.305  64.080  1.00  0.00     0.194 C 
HETATM   29  C25 UNL     1      49.139 -46.598  64.685  1.00  0.00     0.193 C 
HETATM   30  O8  UNL     1      49.583 -46.759  66.004  1.00  0.00    -0.389 OA
HETATM   31  C26 UNL     1      48.756 -47.728  66.587  1.00  0.00     0.169 C 
HETATM   32  C27 UNL     1      47.558 -47.066  67.191  1.00  0.00     0.052 C 
HETATM   33  C28 UNL     1      46.339 -47.969  67.092  1.00  0.00     0.173 C 
HETATM   34  O9  UNL     1      45.440 -47.537  68.065  1.00  0.00    -0.361 OA
ENDBRANCH  11  12
ENDBRANCH  10  11
ENDBRANCH   7  10
BRANCH   5  35
HETATM   35  N1  UNL     1      39.229 -47.666  65.098  1.00  0.00    -0.282 N 
HETATM   36  C6  UNL     1      38.911 -48.855  64.557  1.00  0.00     0.104 A 
HETATM   37  C7  UNL     1      38.323 -48.945  63.301  1.00  0.00     0.092 A 
HETATM   38  C8  UNL     1      38.073 -47.771  62.625  1.00  0.00     0.250 A 
HETATM   39  O2  UNL     1      37.534 -47.824  61.475  1.00  0.00    -0.268 OA
HETATM   40  N2  UNL     1      38.407 -46.609  63.203  1.00  0.00    -0.275 N 
HETATM   41  C9  UNL     1      38.977 -46.510  64.416  1.00  0.00     0.331 A 
ATOM     42  H2  UNL     1      38.217 -45.748  62.692  1.00  0.00     0.173 HD
HETATM   43  O3  UNL     1      39.273 -45.393  64.921  1.00  0.00    -0.246 OA
ENDBRANCH   5  35
TORSDOF 5
ENDMDL
