MODEL 1
REMARK VINA RESULT: -6.233718561      0.000      0.000
REMARK  10 active torsions:
REMARK  status: ('A' for Active; 'I' for Inactive)
REMARK       I    between atoms: C2_2  and  N1_4 
REMARK    1  A    between atoms: N1_4  and  C4_6 
REMARK    2  A    between atoms: C10_12  and  N2_13 
REMARK    3  A    between atoms: N2_13  and  C12_15 
REMARK    4  A    between atoms: C12_15  and  O2_16 
REMARK    5  A    between atoms: C12_15  and  C13_18 
REMARK       I    between atoms: C13_18  and  N3_20 
REMARK    6  A    between atoms: C15_25  and  C16_26 
REMARK    7  A    between atoms: C17_27  and  C18_28 
REMARK    8  A    between atoms: C18_28  and  C19_29 
REMARK    9  A    between atoms: C19_29  and  N6_30 
REMARK   10  A    between atoms: N6_30  and  N7_31 
ROOT
HETATM    1  C4  UNL     1      14.045  70.425  15.752  1.00  0.00     0.218 C 
HETATM    2  C5  UNL     1      13.864  71.716  16.565  1.00  0.00     0.065 C 
HETATM    3  C6  UNL     1      15.266  72.281  16.563  1.00  0.00     0.037 C 
HETATM    4  C7  UNL     1      15.819  71.692  15.290  1.00  0.00     0.189 C 
HETATM    5  C8  UNL     1      15.403  72.449  14.111  1.00  0.00     0.035 C 
HETATM    6  C9  UNL     1      14.840  71.724  12.951  1.00  0.00     0.029 C 
HETATM    7  C10 UNL     1      13.995  70.504  13.221  1.00  0.00     0.106 C 
HETATM    8  C15 UNL     1      13.218  70.575  14.474  1.00  0.00     0.145 C 
HETATM    9  N8  UNL     1      15.399  70.348  15.406  1.00  0.00    -0.043 N 
ATOM     10  H81 UNL     1      15.583  69.784  14.576  1.00  0.00     0.280 HD
ATOM     11  H82 UNL     1      15.961  69.791  16.050  1.00  0.00     0.280 HD
ENDROOT
BRANCH   7  12
HETATM   12  N2  UNL     1      13.050  70.461  12.089  1.00  0.00    -0.356 N 
HETATM   13  C11 UNL     1      12.258  71.653  11.777  1.00  0.00     0.152 C 
BRANCH  12  14
HETATM   14  C12 UNL     1      12.857  69.340  11.286  1.00  0.00     0.208 C 
BRANCH  14  15
HETATM   15  O2  UNL     1      11.851  69.470  10.448  1.00  0.00    -0.342 OA
ATOM     16  H2  UNL     1      11.535  68.639  10.113  1.00  0.00     0.219 HD
ENDBRANCH  14  15
BRANCH  14  17
HETATM   17  C13 UNL     1      13.524  68.093  11.187  1.00  0.00     0.298 C 
HETATM   18  O3  UNL     1      13.780  67.356  12.156  1.00  0.00    -0.263 OA
HETATM   19  N3  UNL     1      13.952  67.610   9.895  1.00  0.00    -0.296 N 
HETATM   20  C14 UNL     1      13.127  66.944   9.162  1.00  0.00     0.203 C 
ATOM     21  H3  UNL     1      14.899  67.795   9.565  1.00  0.00     0.171 HD
HETATM   22  N4  UNL     1      13.515  66.454   7.881  1.00  0.00    -0.066 NA
HETATM   23  N5  UNL     1      11.813  66.693   9.634  1.00  0.00    -0.066 NA
ENDBRANCH  14  17
ENDBRANCH  12  14
ENDBRANCH   7  12
BRANCH   8  24
HETATM   24  C16 UNL     1      12.181  69.549  14.489  1.00  0.00    -0.095 C 
HETATM   25  C17 UNL     1      11.293  68.698  14.473  1.00  0.00    -0.100 C 
BRANCH  25  26
HETATM   26  C18 UNL     1      10.221  67.705  14.449  1.00  0.00     0.155 C 
BRANCH  26  27
HETATM   27  C19 UNL     1      10.047  67.196  13.062  1.00  0.00     0.193 C 
BRANCH  27  28
HETATM   28  N6  UNL     1       9.720  68.005  12.171  1.00  0.00    -0.349 NA
BRANCH  28  29
HETATM   29  N7  UNL     1       9.250  68.884  11.445  1.00  0.00    -0.281 N 
ATOM     30  H72 UNL     1       9.791  69.579  11.959  1.00  0.00     0.191 HD
ATOM     31  H71 UNL     1       8.769  69.469  10.762  1.00  0.00     0.191 HD
ENDBRANCH  28  29
ENDBRANCH  27  28
ENDBRANCH  26  27
ENDBRANCH  25  26
ENDBRANCH   8  24
BRANCH   1  32
HETATM   32  N1  UNL     1      13.537  69.343  16.554  1.00  0.00    -0.323 N 
HETATM   33  C2  UNL     1      13.824  67.972  16.449  1.00  0.00     0.217 C 
HETATM   34  C1  UNL     1      14.842  67.436  15.548  1.00  0.00     0.117 C 
HETATM   35  O1  UNL     1      13.177  67.141  17.172  1.00  0.00    -0.274 OA
HETATM   36  C3  UNL     1      12.522  69.681  17.570  1.00  0.00     0.155 C 
ENDBRANCH   1  32
TORSDOF 10
ENDMDL
MODEL 2
REMARK VINA RESULT: -5.823420419      2.175      3.794
REMARK  10 active torsions:
REMARK  status: ('A' for Active; 'I' for Inactive)
REMARK       I    between atoms: C2_2  and  N1_4 
REMARK    1  A    between atoms: N1_4  and  C4_6 
REMARK    2  A    between atoms: C10_12  and  N2_13 
REMARK    3  A    between atoms: N2_13  and  C12_15 
REMARK    4  A    between atoms: C12_15  and  O2_16 
REMARK    5  A    between atoms: C12_15  and  C13_18 
REMARK       I    between atoms: C13_18  and  N3_20 
REMARK    6  A    between atoms: C15_25  and  C16_26 
REMARK    7  A    between atoms: C17_27  and  C18_28 
REMARK    8  A    between atoms: C18_28  and  C19_29 
REMARK    9  A    between atoms: C19_29  and  N6_30 
REMARK   10  A    between atoms: N6_30  and  N7_31 
ROOT
HETATM    1  C4  UNL     1      13.235  72.820  14.326  1.00  0.00     0.218 C 
HETATM    2  C5  UNL     1      11.939  73.568  14.675  1.00  0.00     0.065 C 
HETATM    3  C6  UNL     1      11.884  74.615  13.585  1.00  0.00     0.037 C 
HETATM    4  C7  UNL     1      12.659  73.936  12.485  1.00  0.00     0.189 C 
HETATM    5  C8  UNL     1      11.836  72.978  11.747  1.00  0.00     0.035 C 
HETATM    6  C9  UNL     1      12.356  71.614  11.509  1.00  0.00     0.029 C 
HETATM    7  C10 UNL     1      13.208  70.984  12.581  1.00  0.00     0.106 C 
HETATM    8  C15 UNL     1      12.846  71.388  13.954  1.00  0.00     0.145 C 
HETATM    9  N8  UNL     1      13.777  73.447  13.198  1.00  0.00    -0.043 N 
ATOM     10  H81 UNL     1      14.391  72.848  12.646  1.00  0.00     0.280 HD
ATOM     11  H82 UNL     1      14.475  74.159  13.414  1.00  0.00     0.280 HD
ENDROOT
BRANCH   7  12
HETATM   12  N2  UNL     1      12.957  69.537  12.440  1.00  0.00    -0.356 N 
HETATM   13  C11 UNL     1      11.602  69.025  12.662  1.00  0.00     0.152 C 
BRANCH  12  14
HETATM   14  C12 UNL     1      13.942  68.611  12.106  1.00  0.00     0.208 C 
BRANCH  14  15
HETATM   15  O2  UNL     1      15.162  69.061  12.305  1.00  0.00    -0.342 OA
ATOM     16  H2  UNL     1      15.723  68.966  11.544  1.00  0.00     0.219 HD
ENDBRANCH  14  15
BRANCH  14  17
HETATM   17  C13 UNL     1      13.896  67.288  11.599  1.00  0.00     0.298 C 
HETATM   18  O3  UNL     1      13.517  66.300  12.252  1.00  0.00    -0.263 OA
HETATM   19  N3  UNL     1      14.309  67.028  10.240  1.00  0.00    -0.296 N 
HETATM   20  C14 UNL     1      13.456  67.158   9.282  1.00  0.00     0.203 C 
ATOM     21  H3  UNL     1      15.268  66.744  10.039  1.00  0.00     0.171 HD
HETATM   22  N4  UNL     1      13.829  66.910   7.929  1.00  0.00    -0.066 NA
HETATM   23  N5  UNL     1      12.126  67.552   9.576  1.00  0.00    -0.066 NA
ENDBRANCH  14  17
ENDBRANCH  12  14
ENDBRANCH   7  12
BRANCH   8  24
HETATM   24  C16 UNL     1      13.457  70.491  14.928  1.00  0.00    -0.095 C 
HETATM   25  C17 UNL     1      13.962  69.707  15.730  1.00  0.00    -0.100 C 
BRANCH  25  26
HETATM   26  C18 UNL     1      14.538  68.762  16.684  1.00  0.00     0.155 C 
BRANCH  26  27
HETATM   27  C19 UNL     1      15.578  67.943  16.005  1.00  0.00     0.193 C 
BRANCH  27  28
HETATM   28  N6  UNL     1      15.208  66.976  15.309  1.00  0.00    -0.349 NA
BRANCH  28  29
HETATM   29  N7  UNL     1      14.793  65.921  14.821  1.00  0.00    -0.281 N 
ATOM     30  H72 UNL     1      14.500  65.623  15.751  1.00  0.00     0.191 HD
ATOM     31  H71 UNL     1      14.512  65.121  14.254  1.00  0.00     0.191 HD
ENDBRANCH  28  29
ENDBRANCH  27  28
ENDBRANCH  26  27
ENDBRANCH  25  26
ENDBRANCH   8  24
BRANCH   1  32
HETATM   32  N1  UNL     1      14.059  72.825  15.507  1.00  0.00    -0.323 N 
HETATM   33  C2  UNL     1      15.452  72.674  15.596  1.00  0.00     0.217 C 
HETATM   34  C1  UNL     1      16.327  72.625  14.427  1.00  0.00     0.117 C 
HETATM   35  O1  UNL     1      15.998  72.578  16.748  1.00  0.00    -0.274 OA
HETATM   36  C3  UNL     1      13.367  72.917  16.807  1.00  0.00     0.155 C 
ENDBRANCH   1  32
TORSDOF 10
ENDMDL
MODEL 3
REMARK VINA RESULT: -5.703029135      2.687      5.253
REMARK  10 active torsions:
REMARK  status: ('A' for Active; 'I' for Inactive)
REMARK       I    between atoms: C2_2  and  N1_4 
REMARK    1  A    between atoms: N1_4  and  C4_6 
REMARK    2  A    between atoms: C10_12  and  N2_13 
REMARK    3  A    between atoms: N2_13  and  C12_15 
REMARK    4  A    between atoms: C12_15  and  O2_16 
REMARK    5  A    between atoms: C12_15  and  C13_18 
REMARK       I    between atoms: C13_18  and  N3_20 
REMARK    6  A    between atoms: C15_25  and  C16_26 
REMARK    7  A    between atoms: C17_27  and  C18_28 
REMARK    8  A    between atoms: C18_28  and  C19_29 
REMARK    9  A    between atoms: C19_29  and  N6_30 
REMARK   10  A    between atoms: N6_30  and  N7_31 
ROOT
HETATM    1  C4  UNL     1       9.043  71.041  14.300  1.00  0.00     0.218 C 
HETATM    2  C5  UNL     1       8.127  70.909  15.527  1.00  0.00     0.065 C 
HETATM    3  C6  UNL     1       6.768  71.190  14.930  1.00  0.00     0.037 C 
HETATM    4  C7  UNL     1       6.981  70.766  13.499  1.00  0.00     0.189 C 
HETATM    5  C8  UNL     1       6.867  69.318  13.335  1.00  0.00     0.035 C 
HETATM    6  C9  UNL     1       7.922  68.591  12.595  1.00  0.00     0.029 C 
HETATM    7  C10 UNL     1       9.343  69.078  12.727  1.00  0.00     0.106 C 
HETATM    8  C15 UNL     1       9.659  69.664  14.044  1.00  0.00     0.145 C 
HETATM    9  N8  UNL     1       8.224  71.376  13.215  1.00  0.00    -0.043 N 
ATOM     10  H81 UNL     1       8.613  71.120  12.308  1.00  0.00     0.280 HD
ATOM     11  H82 UNL     1       8.163  72.378  13.036  1.00  0.00     0.280 HD
ENDROOT
BRANCH   7  12
HETATM   12  N2  UNL     1      10.160  67.863  12.549  1.00  0.00    -0.356 N 
HETATM   13  C11 UNL     1       9.820  66.659  13.311  1.00  0.00     0.152 C 
BRANCH  12  14
HETATM   14  C12 UNL     1      11.254  67.787  11.692  1.00  0.00     0.208 C 
BRANCH  14  15
HETATM   15  O2  UNL     1      12.088  66.818  12.003  1.00  0.00    -0.342 OA
ATOM     16  H2  UNL     1      12.075  66.100  11.380  1.00  0.00     0.219 HD
ENDBRANCH  14  15
BRANCH  14  17
HETATM   17  C13 UNL     1      11.649  68.537  10.555  1.00  0.00     0.298 C 
HETATM   18  O3  UNL     1      12.152  69.673  10.605  1.00  0.00    -0.263 OA
HETATM   19  N3  UNL     1      11.471  67.981   9.234  1.00  0.00    -0.296 N 
HETATM   20  C14 UNL     1      12.386  67.219   8.739  1.00  0.00     0.203 C 
ATOM     21  H3  UNL     1      10.629  68.189   8.698  1.00  0.00     0.171 HD
HETATM   22  N4  UNL     1      12.243  66.653   7.438  1.00  0.00    -0.066 NA
HETATM   23  N5  UNL     1      13.552  66.939   9.495  1.00  0.00    -0.066 NA
ENDBRANCH  14  17
ENDBRANCH  12  14
ENDBRANCH   7  12
BRANCH   8  24
HETATM   24  C16 UNL     1      11.102  69.781  14.217  1.00  0.00    -0.095 C 
HETATM   25  C17 UNL     1      12.319  69.851  14.383  1.00  0.00    -0.100 C 
BRANCH  25  26
HETATM   26  C18 UNL     1      13.761  69.931  14.605  1.00  0.00     0.155 C 
BRANCH  26  27
HETATM   27  C19 UNL     1      14.400  68.656  14.181  1.00  0.00     0.193 C 
BRANCH  27  28
HETATM   28  N6  UNL     1      14.641  68.489  12.969  1.00  0.00    -0.349 NA
BRANCH  28  29
HETATM   29  N7  UNL     1      14.857  68.549  11.756  1.00  0.00    -0.281 N 
ATOM     30  H72 UNL     1      14.270  69.383  11.708  1.00  0.00     0.191 HD
ATOM     31  H71 UNL     1      15.139  68.445  10.781  1.00  0.00     0.191 HD
ENDBRANCH  28  29
ENDBRANCH  27  28
ENDBRANCH  26  27
ENDBRANCH  25  26
ENDBRANCH   8  24
BRANCH   1  32
HETATM   32  N1  UNL     1      10.067  71.995  14.635  1.00  0.00    -0.323 N 
HETATM   33  C2  UNL     1      10.874  72.746  13.764  1.00  0.00     0.217 C 
HETATM   34  C1  UNL     1      10.681  72.769  12.316  1.00  0.00     0.117 C 
HETATM   35  O1  UNL     1      11.823  73.454  14.247  1.00  0.00    -0.274 OA
HETATM   36  C3  UNL     1      10.386  72.162  16.065  1.00  0.00     0.155 C 
ENDBRANCH   1  32
TORSDOF 10
ENDMDL
MODEL 4
REMARK VINA RESULT: -5.645163265      2.506      4.323
REMARK  10 active torsions:
REMARK  status: ('A' for Active; 'I' for Inactive)
REMARK       I    between atoms: C2_2  and  N1_4 
REMARK    1  A    between atoms: N1_4  and  C4_6 
REMARK    2  A    between atoms: C10_12  and  N2_13 
REMARK    3  A    between atoms: N2_13  and  C12_15 
REMARK    4  A    between atoms: C12_15  and  O2_16 
REMARK    5  A    between atoms: C12_15  and  C13_18 
REMARK       I    between atoms: C13_18  and  N3_20 
REMARK    6  A    between atoms: C15_25  and  C16_26 
REMARK    7  A    between atoms: C17_27  and  C18_28 
REMARK    8  A    between atoms: C18_28  and  C19_29 
REMARK    9  A    between atoms: C19_29  and  N6_30 
REMARK   10  A    between atoms: N6_30  and  N7_31 
ROOT
HETATM    1  C4  UNL     1      10.313  71.102  15.002  1.00  0.00     0.218 C 
HETATM    2  C5  UNL     1       9.261  71.231  16.115  1.00  0.00     0.065 C 
HETATM    3  C6  UNL     1       8.421  72.383  15.612  1.00  0.00     0.037 C 
HETATM    4  C7  UNL     1       8.636  72.278  14.124  1.00  0.00     0.189 C 
HETATM    5  C8  UNL     1       7.781  71.258  13.518  1.00  0.00     0.035 C 
HETATM    6  C9  UNL     1       8.385  70.261  12.606  1.00  0.00     0.029 C 
HETATM    7  C10 UNL     1       9.784  69.784  12.904  1.00  0.00     0.106 C 
HETATM    8  C15 UNL     1      10.111  69.736  14.343  1.00  0.00     0.145 C 
HETATM    9  N8  UNL     1      10.037  72.101  14.061  1.00  0.00    -0.043 N 
ATOM     10  H81 UNL     1      10.387  71.898  13.126  1.00  0.00     0.280 HD
ATOM     11  H82 UNL     1      10.570  72.960  14.200  1.00  0.00     0.280 HD
ENDROOT
BRANCH   7  12
HETATM   12  N2  UNL     1       9.819  68.409  12.372  1.00  0.00    -0.356 N 
HETATM   13  C11 UNL     1       8.724  67.491  12.700  1.00  0.00     0.152 C 
BRANCH  12  14
HETATM   14  C12 UNL     1      10.843  67.918  11.567  1.00  0.00     0.208 C 
BRANCH  14  15
HETATM   15  O2  UNL     1      11.073  66.635  11.748  1.00  0.00    -0.342 OA
ATOM     16  H2  UNL     1      10.906  66.349  12.638  1.00  0.00     0.219 HD
ENDBRANCH  14  15
BRANCH  14  17
HETATM   17  C13 UNL     1      11.683  68.517  10.595  1.00  0.00     0.298 C 
HETATM   18  O3  UNL     1      12.230  69.626  10.729  1.00  0.00    -0.263 OA
HETATM   19  N3  UNL     1      11.948  67.826   9.355  1.00  0.00    -0.296 N 
HETATM   20  C14 UNL     1      12.911  66.971   9.298  1.00  0.00     0.203 C 
ATOM     21  H3  UNL     1      11.377  68.014   8.531  1.00  0.00     0.171 HD
HETATM   22  N4  UNL     1      13.199  66.271   8.090  1.00  0.00    -0.066 NA
HETATM   23  N5  UNL     1      13.697  66.722  10.451  1.00  0.00    -0.066 NA
ENDBRANCH  14  17
ENDBRANCH  12  14
ENDBRANCH   7  12
BRANCH   8  24
HETATM   24  C16 UNL     1      11.318  68.949  14.565  1.00  0.00    -0.095 C 
HETATM   25  C17 UNL     1      12.322  68.259  14.734  1.00  0.00    -0.100 C 
BRANCH  25  26
HETATM   26  C18 UNL     1      13.500  67.419  14.940  1.00  0.00     0.155 C 
BRANCH  26  27
HETATM   27  C19 UNL     1      14.727  68.197  14.620  1.00  0.00     0.193 C 
BRANCH  27  28
HETATM   28  N6  UNL     1      14.834  68.691  13.480  1.00  0.00    -0.349 NA
BRANCH  28  29
HETATM   29  N7  UNL     1      14.851  68.983  12.281  1.00  0.00    -0.281 N 
ATOM     30  H72 UNL     1      15.253  69.889  12.522  1.00  0.00     0.191 HD
ATOM     31  H71 UNL     1      14.790  69.053  11.265  1.00  0.00     0.191 HD
ENDBRANCH  28  29
ENDBRANCH  27  28
ENDBRANCH  26  27
ENDBRANCH  25  26
ENDBRANCH   8  24
BRANCH   1  32
HETATM   32  N1  UNL     1      11.607  71.169  15.631  1.00  0.00    -0.323 N 
HETATM   33  C2  UNL     1      12.843  71.487  15.045  1.00  0.00     0.217 C 
HETATM   34  C1  UNL     1      12.978  71.956  13.668  1.00  0.00     0.117 C 
HETATM   35  O1  UNL     1      13.911  71.372  15.739  1.00  0.00    -0.274 OA
HETATM   36  C3  UNL     1      11.682  70.778  17.051  1.00  0.00     0.155 C 
ENDBRANCH   1  32
TORSDOF 10
ENDMDL
MODEL 5
REMARK VINA RESULT: -5.595914457      2.582      4.106
REMARK  10 active torsions:
REMARK  status: ('A' for Active; 'I' for Inactive)
REMARK       I    between atoms: C2_2  and  N1_4 
REMARK    1  A    between atoms: N1_4  and  C4_6 
REMARK    2  A    between atoms: C10_12  and  N2_13 
REMARK    3  A    between atoms: N2_13  and  C12_15 
REMARK    4  A    between atoms: C12_15  and  O2_16 
REMARK    5  A    between atoms: C12_15  and  C13_18 
REMARK       I    between atoms: C13_18  and  N3_20 
REMARK    6  A    between atoms: C15_25  and  C16_26 
REMARK    7  A    between atoms: C17_27  and  C18_28 
REMARK    8  A    between atoms: C18_28  and  C19_29 
REMARK    9  A    between atoms: C19_29  and  N6_30 
REMARK   10  A    between atoms: N6_30  and  N7_31 
ROOT
HETATM    1  C4  UNL     1      13.505  73.922  14.199  1.00  0.00     0.218 C 
HETATM    2  C5  UNL     1      12.501  75.055  14.464  1.00  0.00     0.065 C 
HETATM    3  C6  UNL     1      12.720  75.947  13.264  1.00  0.00     0.037 C 
HETATM    4  C7  UNL     1      13.220  74.956  12.246  1.00  0.00     0.189 C 
HETATM    5  C8  UNL     1      12.125  74.214  11.621  1.00  0.00     0.035 C 
HETATM    6  C9  UNL     1      12.210  72.740  11.537  1.00  0.00     0.029 C 
HETATM    7  C10 UNL     1      12.875  72.002  12.671  1.00  0.00     0.106 C 
HETATM    8  C15 UNL     1      12.697  72.639  13.991  1.00  0.00     0.145 C 
HETATM    9  N8  UNL     1      14.168  74.235  13.006  1.00  0.00    -0.043 N 
ATOM     10  H81 UNL     1      14.557  73.425  12.524  1.00  0.00     0.280 HD
ATOM     11  H82 UNL     1      15.052  74.726  13.140  1.00  0.00     0.280 HD
ENDROOT
BRANCH   7  12
HETATM   12  N2  UNL     1      12.202  70.689  12.694  1.00  0.00    -0.356 N 
HETATM   13  C11 UNL     1      10.739  70.639  12.649  1.00  0.00     0.152 C 
BRANCH  12  14
HETATM   14  C12 UNL     1      12.880  69.475  12.758  1.00  0.00     0.208 C 
BRANCH  14  15
HETATM   15  O2  UNL     1      12.291  68.595  13.538  1.00  0.00    -0.342 OA
ATOM     16  H2  UNL     1      12.584  67.704  13.384  1.00  0.00     0.219 HD
ENDBRANCH  14  15
BRANCH  14  17
HETATM   17  C13 UNL     1      14.071  68.997  12.155  1.00  0.00     0.298 C 
HETATM   18  O3  UNL     1      15.205  69.119  12.650  1.00  0.00    -0.263 OA
HETATM   19  N3  UNL     1      14.005  68.318  10.882  1.00  0.00    -0.296 N 
HETATM   20  C14 UNL     1      13.776  67.050  10.851  1.00  0.00     0.203 C 
ATOM     21  H3  UNL     1      14.138  68.838  10.015  1.00  0.00     0.171 HD
HETATM   22  N4  UNL     1      13.703  66.348   9.612  1.00  0.00    -0.066 NA
HETATM   23  N5  UNL     1      13.593  66.340  12.064  1.00  0.00    -0.066 NA
ENDBRANCH  14  17
ENDBRANCH  12  14
ENDBRANCH   7  12
BRANCH   8  24
HETATM   24  C16 UNL     1      13.050  71.710  15.057  1.00  0.00    -0.095 C 
HETATM   25  C17 UNL     1      13.350  70.900  15.934  1.00  0.00    -0.100 C 
BRANCH  25  26
HETATM   26  C18 UNL     1      13.688  69.922  16.965  1.00  0.00     0.155 C 
BRANCH  26  27
HETATM   27  C19 UNL     1      14.835  69.094  16.507  1.00  0.00     0.193 C 
BRANCH  27  28
HETATM   28  N6  UNL     1      14.604  68.125  15.755  1.00  0.00    -0.349 NA
BRANCH  28  29
HETATM   29  N7  UNL     1      14.602  67.149  15.001  1.00  0.00    -0.281 N 
ATOM     30  H72 UNL     1      15.468  67.489  14.582  1.00  0.00     0.191 HD
ATOM     31  H71 UNL     1      14.441  66.295  14.466  1.00  0.00     0.191 HD
ENDBRANCH  28  29
ENDBRANCH  27  28
ENDBRANCH  26  27
ENDBRANCH  25  26
ENDBRANCH   8  24
BRANCH   1  32
HETATM   32  N1  UNL     1      14.335  73.807  15.370  1.00  0.00    -0.323 N 
HETATM   33  C2  UNL     1      15.599  73.204  15.485  1.00  0.00     0.217 C 
HETATM   34  C1  UNL     1      16.352  72.702  14.338  1.00  0.00     0.117 C 
HETATM   35  O1  UNL     1      16.132  73.086  16.640  1.00  0.00    -0.274 OA
HETATM   36  C3  UNL     1      13.775  74.305  16.640  1.00  0.00     0.155 C 
ENDBRANCH   1  32
TORSDOF 10
ENDMDL
