MODEL 1
REMARK VINA RESULT: -7.409115655      0.000      0.000
REMARK  7 active torsions:
REMARK  status: ('A' for Active; 'I' for Inactive)
REMARK    1  A    between atoms: C2_2  and  N1_3 
REMARK    2  A    between atoms: C3_5  and  N2_6 
REMARK    3  A    between atoms: C3_5  and  C9_16 
REMARK    4  A    between atoms: N2_6  and  C4_8 
REMARK    5  A    between atoms: C4_8  and  C5_9 
REMARK    6  A    between atoms: C5_9  and  C6_10 
REMARK    7  A    between atoms: C6_10  and  N3_11 
REMARK       I    between atoms: N3_11  and  C7_13 
REMARK       I    between atoms: C9_16  and  N4_18 
REMARK       I    between atoms: C10_20  and  N5_21 
REMARK       I    between atoms: C10_20  and  N8_36 
REMARK       I    between atoms: N5_21  and  C11_23 
REMARK       I    between atoms: C11_23  and  N6_25 
ROOT
HETATM    1  C9  UNL     1      13.887 -12.657  21.191  1.00  0.00     0.303 C 
HETATM    2  O2  UNL     1      13.034 -13.596  21.419  1.00  0.00    -0.263 OA
HETATM    3  N4  UNL     1      15.132 -12.817  21.794  1.00  0.00    -0.153 N 
ATOM      4  H4  UNL     1      15.455 -12.016  22.336  1.00  0.00     0.187 HD
HETATM    5  C10 UNL     1      15.932 -13.813  21.772  1.00  0.00     0.686 C 
HETATM    6  N5  UNL     1      17.156 -13.708  22.483  1.00  0.00    -0.141 N 
ATOM      7  H5  UNL     1      17.331 -12.838  22.987  1.00  0.00     0.189 HD
HETATM    8  C11 UNL     1      18.152 -14.707  22.553  1.00  0.00     0.341 C 
HETATM    9  O3  UNL     1      17.940 -15.761  21.939  1.00  0.00    -0.246 OA
HETATM   10  N6  UNL     1      19.326 -14.506  23.288  1.00  0.00    -0.299 N 
HETATM   11  C12 UNL     1      19.598 -13.381  24.178  1.00  0.00     0.134 C 
HETATM   12  C13 UNL     1      19.716 -14.039  25.565  1.00  0.00     0.025 C 
HETATM   13  C14 UNL     1      20.891 -14.946  25.668  1.00  0.00     0.044 C 
HETATM   14  C15 UNL     1      21.125 -15.678  24.422  1.00  0.00    -0.015 A 
HETATM   15  C16 UNL     1      22.133 -16.636  24.331  1.00  0.00     0.099 A 
HETATM   16  N7  UNL     1      22.386 -17.325  23.197  1.00  0.00    -0.370 N 
HETATM   17  C17 UNL     1      23.467 -18.318  23.188  1.00  0.00     0.154 C 
HETATM   18  C18 UNL     1      21.678 -17.130  22.071  1.00  0.00     0.092 A 
HETATM   19  C19 UNL     1      20.652 -16.181  22.096  1.00  0.00     0.047 A 
HETATM   20  C20 UNL     1      20.390 -15.479  23.245  1.00  0.00     0.047 A 
HETATM   21  N8  UNL     1      15.581 -14.975  21.050  1.00  0.00    -0.226 N 
HETATM   22  C21 UNL     1      14.816 -16.088  21.608  1.00  0.00     0.168 C 
HETATM   23  C22 UNL     1      15.970 -15.150  19.640  1.00  0.00     0.168 C 
ENDROOT
BRANCH   1  24
HETATM   24  C3  UNL     1      13.430 -11.582  20.352  1.00  0.00     0.167 C 
HETATM   25  N1  UNL     1      12.619 -10.696  20.686  1.00  0.00    -0.372 N 
ATOM     26  H1  UNL     1      12.420 -10.015  19.953  1.00  0.00     0.161 HD
BRANCH  25  27
HETATM   27  C2  UNL     1      11.929 -10.465  21.892  1.00  0.00     0.117 C 
HETATM   28  C1  UNL     1      12.671  -9.466  22.787  1.00  0.00     0.026 C 
ENDBRANCH  25  27
BRANCH  24  29
HETATM   29  N2  UNL     1      13.942 -11.496  19.000  1.00  0.00    -0.372 N 
ATOM     30  H2  UNL     1      14.259 -10.605  18.618  1.00  0.00     0.161 HD
BRANCH  29  31
HETATM   31  C4  UNL     1      13.995 -12.701  18.204  1.00  0.00     0.123 C 
BRANCH  31  32
HETATM   32  C5  UNL     1      14.725 -12.413  16.907  1.00  0.00     0.039 C 
BRANCH  32  33
HETATM   33  C6  UNL     1      15.845 -11.428  17.139  1.00  0.00     0.124 C 
BRANCH  33  34
HETATM   34  N3  UNL     1      17.001 -12.054  17.688  1.00  0.00    -0.361 N 
HETATM   35  C7  UNL     1      17.469 -11.826  18.994  1.00  0.00     0.213 C 
HETATM   36  C8  UNL     1      18.688 -12.525  19.498  1.00  0.00     0.117 C 
HETATM   37  O1  UNL     1      16.905 -11.048  19.778  1.00  0.00    -0.274 OA
ATOM     38  H3  UNL     1      17.520 -12.706  17.100  1.00  0.00     0.162 HD
ENDBRANCH  33  34
ENDBRANCH  32  33
ENDBRANCH  31  32
ENDBRANCH  29  31
ENDBRANCH  24  29
ENDBRANCH   1  24
TORSDOF 7
ENDMDL
MODEL 2
REMARK VINA RESULT: -7.377327466      1.044      1.200
REMARK  7 active torsions:
REMARK  status: ('A' for Active; 'I' for Inactive)
REMARK    1  A    between atoms: C2_2  and  N1_3 
REMARK    2  A    between atoms: C3_5  and  N2_6 
REMARK    3  A    between atoms: C3_5  and  C9_16 
REMARK    4  A    between atoms: N2_6  and  C4_8 
REMARK    5  A    between atoms: C4_8  and  C5_9 
REMARK    6  A    between atoms: C5_9  and  C6_10 
REMARK    7  A    between atoms: C6_10  and  N3_11 
REMARK       I    between atoms: N3_11  and  C7_13 
REMARK       I    between atoms: C9_16  and  N4_18 
REMARK       I    between atoms: C10_20  and  N5_21 
REMARK       I    between atoms: C10_20  and  N8_36 
REMARK       I    between atoms: N5_21  and  C11_23 
REMARK       I    between atoms: C11_23  and  N6_25 
ROOT
HETATM    1  C9  UNL     1      14.500 -12.783  20.986  1.00  0.00     0.303 C 
HETATM    2  O2  UNL     1      13.623 -13.654  21.353  1.00  0.00    -0.263 OA
HETATM    3  N4  UNL     1      15.731 -12.861  21.631  1.00  0.00    -0.153 N 
ATOM      4  H4  UNL     1      16.063 -11.986  22.037  1.00  0.00     0.187 HD
HETATM    5  C10 UNL     1      16.510 -13.861  21.793  1.00  0.00     0.686 C 
HETATM    6  N5  UNL     1      17.724 -13.660  22.501  1.00  0.00    -0.141 N 
ATOM      7  H5  UNL     1      17.910 -12.721  22.853  1.00  0.00     0.189 HD
HETATM    8  C11 UNL     1      18.698 -14.651  22.758  1.00  0.00     0.341 C 
HETATM    9  O3  UNL     1      18.473 -15.790  22.327  1.00  0.00    -0.246 OA
HETATM   10  N6  UNL     1      19.864 -14.349  23.470  1.00  0.00    -0.299 N 
HETATM   11  C12 UNL     1      20.146 -13.095  24.163  1.00  0.00     0.134 C 
HETATM   12  C13 UNL     1      20.227 -13.510  25.643  1.00  0.00     0.025 C 
HETATM   13  C14 UNL     1      21.380 -14.408  25.920  1.00  0.00     0.044 C 
HETATM   14  C15 UNL     1      21.619 -15.345  24.821  1.00  0.00    -0.015 A 
HETATM   15  C16 UNL     1      22.607 -16.323  24.913  1.00  0.00     0.099 A 
HETATM   16  N7  UNL     1      22.864 -17.199  23.917  1.00  0.00    -0.370 N 
HETATM   17  C17 UNL     1      23.924 -18.199  24.097  1.00  0.00     0.154 C 
HETATM   18  C18 UNL     1      22.179 -17.184  22.761  1.00  0.00     0.092 A 
HETATM   19  C19 UNL     1      21.172 -16.226  22.605  1.00  0.00     0.047 A 
HETATM   20  C20 UNL     1      20.907 -15.335  23.614  1.00  0.00     0.047 A 
HETATM   21  N8  UNL     1      16.146 -15.123  21.272  1.00  0.00    -0.226 N 
HETATM   22  C21 UNL     1      15.349 -16.110  21.995  1.00  0.00     0.168 C 
HETATM   23  C22 UNL     1      16.553 -15.541  19.920  1.00  0.00     0.168 C 
ENDROOT
BRANCH   1  24
HETATM   24  C3  UNL     1      14.080 -11.859  19.968  1.00  0.00     0.167 C 
HETATM   25  N1  UNL     1      13.752 -10.671  20.159  1.00  0.00    -0.372 N 
ATOM     26  H1  UNL     1      13.486 -10.170  19.311  1.00  0.00     0.161 HD
BRANCH  25  27
HETATM   27  C2  UNL     1      13.682  -9.895  21.333  1.00  0.00     0.117 C 
HETATM   28  C1  UNL     1      12.258  -9.853  21.900  1.00  0.00     0.026 C 
ENDBRANCH  25  27
BRANCH  24  29
HETATM   29  N2  UNL     1      14.027 -12.319  18.597  1.00  0.00    -0.372 N 
ATOM     30  H2  UNL     1      13.324 -12.997  18.301  1.00  0.00     0.161 HD
BRANCH  29  31
HETATM   31  C4  UNL     1      14.990 -11.795  17.656  1.00  0.00     0.123 C 
BRANCH  31  32
HETATM   32  C5  UNL     1      16.263 -12.615  17.734  1.00  0.00     0.039 C 
BRANCH  32  33
HETATM   33  C6  UNL     1      17.319 -11.877  18.520  1.00  0.00     0.124 C 
BRANCH  33  34
HETATM   34  N3  UNL     1      18.518 -12.637  18.650  1.00  0.00    -0.361 N 
HETATM   35  C7  UNL     1      19.421 -12.497  19.718  1.00  0.00     0.213 C 
HETATM   36  C8  UNL     1      20.655 -13.335  19.785  1.00  0.00     0.117 C 
HETATM   37  O1  UNL     1      19.244 -11.687  20.640  1.00  0.00    -0.274 OA
ATOM     38  H3  UNL     1      18.733 -13.322  17.926  1.00  0.00     0.162 HD
ENDBRANCH  33  34
ENDBRANCH  32  33
ENDBRANCH  31  32
ENDBRANCH  29  31
ENDBRANCH  24  29
ENDBRANCH   1  24
TORSDOF 7
ENDMDL
MODEL 3
REMARK VINA RESULT: -7.352430648      3.422      5.235
REMARK  7 active torsions:
REMARK  status: ('A' for Active; 'I' for Inactive)
REMARK    1  A    between atoms: C2_2  and  N1_3 
REMARK    2  A    between atoms: C3_5  and  N2_6 
REMARK    3  A    between atoms: C3_5  and  C9_16 
REMARK    4  A    between atoms: N2_6  and  C4_8 
REMARK    5  A    between atoms: C4_8  and  C5_9 
REMARK    6  A    between atoms: C5_9  and  C6_10 
REMARK    7  A    between atoms: C6_10  and  N3_11 
REMARK       I    between atoms: N3_11  and  C7_13 
REMARK       I    between atoms: C9_16  and  N4_18 
REMARK       I    between atoms: C10_20  and  N5_21 
REMARK       I    between atoms: C10_20  and  N8_36 
REMARK       I    between atoms: N5_21  and  C11_23 
REMARK       I    between atoms: C11_23  and  N6_25 
ROOT
HETATM    1  C9  UNL     1      15.411 -11.705  16.272  1.00  0.00     0.303 C 
HETATM    2  O2  UNL     1      14.676 -10.802  16.826  1.00  0.00    -0.263 OA
HETATM    3  N4  UNL     1      16.494 -12.144  17.028  1.00  0.00    -0.153 N 
ATOM      4  H4  UNL     1      17.394 -12.119  16.547  1.00  0.00     0.187 HD
HETATM    5  C10 UNL     1      16.535 -12.574  18.230  1.00  0.00     0.686 C 
HETATM    6  N5  UNL     1      17.792 -12.963  18.763  1.00  0.00    -0.141 N 
ATOM      7  H5  UNL     1      18.606 -12.871  18.155  1.00  0.00     0.189 HD
HETATM    8  C11 UNL     1      18.011 -13.468  20.064  1.00  0.00     0.341 C 
HETATM    9  O3  UNL     1      17.021 -13.582  20.799  1.00  0.00    -0.246 OA
HETATM   10  N6  UNL     1      19.295 -13.820  20.494  1.00  0.00    -0.299 N 
HETATM   11  C12 UNL     1      20.541 -13.569  19.775  1.00  0.00     0.134 C 
HETATM   12  C13 UNL     1      21.297 -12.593  20.696  1.00  0.00     0.025 C 
HETATM   13  C14 UNL     1      21.682 -13.215  21.991  1.00  0.00     0.044 C 
HETATM   14  C15 UNL     1      20.652 -14.131  22.484  1.00  0.00    -0.015 A 
HETATM   15  C16 UNL     1      20.783 -14.761  23.720  1.00  0.00     0.099 A 
HETATM   16  N7  UNL     1      19.859 -15.619  24.205  1.00  0.00    -0.370 N 
HETATM   17  C17 UNL     1      20.076 -16.239  25.518  1.00  0.00     0.154 C 
HETATM   18  C18 UNL     1      18.744 -15.927  23.521  1.00  0.00     0.092 A 
HETATM   19  C19 UNL     1      18.552 -15.327  22.272  1.00  0.00     0.047 A 
HETATM   20  C20 UNL     1      19.486 -14.454  21.776  1.00  0.00     0.047 A 
HETATM   21  N8  UNL     1      15.345 -12.649  18.987  1.00  0.00    -0.226 N 
HETATM   22  C21 UNL     1      14.818 -11.554  19.798  1.00  0.00     0.168 C 
HETATM   23  C22 UNL     1      14.523 -13.871  19.007  1.00  0.00     0.168 C 
ENDROOT
BRANCH   1  24
HETATM   24  C3  UNL     1      15.007 -12.125  14.957  1.00  0.00     0.167 C 
HETATM   25  N1  UNL     1      14.952 -13.304  14.558  1.00  0.00    -0.372 N 
ATOM     26  H1  UNL     1      14.637 -13.404  13.593  1.00  0.00     0.161 HD
BRANCH  25  27
HETATM   27  C2  UNL     1      15.245 -14.525  15.199  1.00  0.00     0.117 C 
HETATM   28  C1  UNL     1      16.528 -15.159  14.649  1.00  0.00     0.026 C 
ENDBRANCH  25  27
BRANCH  24  29
HETATM   29  N2  UNL     1      14.622 -11.112  13.997  1.00  0.00    -0.372 N 
ATOM     30  H2  UNL     1      14.968 -10.156  14.080  1.00  0.00     0.161 HD
BRANCH  29  31
HETATM   31  C4  UNL     1      13.738 -11.486  12.917  1.00  0.00     0.123 C 
BRANCH  31  32
HETATM   32  C5  UNL     1      14.297 -10.962  11.608  1.00  0.00     0.039 C 
BRANCH  32  33
HETATM   33  C6  UNL     1      15.669 -11.534  11.353  1.00  0.00     0.124 C 
BRANCH  33  34
HETATM   34  N3  UNL     1      16.637 -10.516  11.110  1.00  0.00    -0.361 N 
HETATM   35  C7  UNL     1      17.572 -10.081  12.065  1.00  0.00     0.213 C 
HETATM   36  C8  UNL     1      18.558  -9.010  11.731  1.00  0.00     0.117 C 
HETATM   37  O1  UNL     1      17.625 -10.553  13.211  1.00  0.00    -0.274 OA
ATOM     38  H3  UNL     1      16.651 -10.078  10.190  1.00  0.00     0.162 HD
ENDBRANCH  33  34
ENDBRANCH  32  33
ENDBRANCH  31  32
ENDBRANCH  29  31
ENDBRANCH  24  29
ENDBRANCH   1  24
TORSDOF 7
ENDMDL
MODEL 4
REMARK VINA RESULT: -7.326128647      1.774      2.765
REMARK  7 active torsions:
REMARK  status: ('A' for Active; 'I' for Inactive)
REMARK    1  A    between atoms: C2_2  and  N1_3 
REMARK    2  A    between atoms: C3_5  and  N2_6 
REMARK    3  A    between atoms: C3_5  and  C9_16 
REMARK    4  A    between atoms: N2_6  and  C4_8 
REMARK    5  A    between atoms: C4_8  and  C5_9 
REMARK    6  A    between atoms: C5_9  and  C6_10 
REMARK    7  A    between atoms: C6_10  and  N3_11 
REMARK       I    between atoms: N3_11  and  C7_13 
REMARK       I    between atoms: C9_16  and  N4_18 
REMARK       I    between atoms: C10_20  and  N5_21 
REMARK       I    between atoms: C10_20  and  N8_36 
REMARK       I    between atoms: N5_21  and  C11_23 
REMARK       I    between atoms: C11_23  and  N6_25 
ROOT
HETATM    1  C9  UNL     1      13.494 -14.478  21.304  1.00  0.00     0.303 C 
HETATM    2  O2  UNL     1      12.851 -15.338  22.019  1.00  0.00    -0.263 OA
HETATM    3  N4  UNL     1      14.816 -14.254  21.680  1.00  0.00    -0.153 N 
ATOM      4  H4  UNL     1      15.065 -13.274  21.817  1.00  0.00     0.187 HD
HETATM    5  C10 UNL     1      15.764 -15.086  21.880  1.00  0.00     0.686 C 
HETATM    6  N5  UNL     1      17.034 -14.580  22.261  1.00  0.00    -0.141 N 
ATOM      7  H5  UNL     1      17.122 -13.568  22.364  1.00  0.00     0.189 HD
HETATM    8  C11 UNL     1      18.188 -15.358  22.509  1.00  0.00     0.341 C 
HETATM    9  O3  UNL     1      18.079 -16.584  22.379  1.00  0.00    -0.246 OA
HETATM   10  N6  UNL     1      19.395 -14.759  22.884  1.00  0.00    -0.299 N 
HETATM   11  C12 UNL     1      19.585 -13.352  23.227  1.00  0.00     0.134 C 
HETATM   12  C13 UNL     1      19.993 -13.395  24.710  1.00  0.00     0.025 C 
HETATM   13  C14 UNL     1      21.309 -14.057  24.921  1.00  0.00     0.044 C 
HETATM   14  C15 UNL     1      21.500 -15.190  24.014  1.00  0.00    -0.015 A 
HETATM   15  C16 UNL     1      22.636 -15.993  24.098  1.00  0.00     0.099 A 
HETATM   16  N7  UNL     1      22.853 -17.040  23.274  1.00  0.00    -0.370 N 
HETATM   17  C17 UNL     1      24.078 -17.835  23.432  1.00  0.00     0.154 C 
HETATM   18  C18 UNL     1      21.982 -17.381  22.309  1.00  0.00     0.092 A 
HETATM   19  C19 UNL     1      20.820 -16.615  22.172  1.00  0.00     0.047 A 
HETATM   20  C20 UNL     1      20.594 -15.550  23.007  1.00  0.00     0.047 A 
HETATM   21  N8  UNL     1      15.526 -16.469  21.719  1.00  0.00    -0.226 N 
HETATM   22  C21 UNL     1      15.042 -17.348  22.780  1.00  0.00     0.168 C 
HETATM   23  C22 UNL     1      15.751 -17.141  20.428  1.00  0.00     0.168 C 
ENDROOT
BRANCH   1  24
HETATM   24  C3  UNL     1      12.754 -13.876  20.228  1.00  0.00     0.167 C 
HETATM   25  N1  UNL     1      12.279 -14.482  19.248  1.00  0.00    -0.372 N 
ATOM     26  H1  UNL     1      11.781 -13.884  18.589  1.00  0.00     0.161 HD
BRANCH  25  27
HETATM   27  C2  UNL     1      12.303 -15.845  18.887  1.00  0.00     0.117 C 
HETATM   28  C1  UNL     1      10.893 -16.445  18.845  1.00  0.00     0.026 C 
ENDBRANCH  25  27
BRANCH  24  29
HETATM   29  N2  UNL     1      12.525 -12.447  20.262  1.00  0.00    -0.372 N 
ATOM     30  H2  UNL     1      12.657 -11.878  19.426  1.00  0.00     0.161 HD
BRANCH  29  31
HETATM   31  C4  UNL     1      12.102 -11.846  21.505  1.00  0.00     0.123 C 
BRANCH  31  32
HETATM   32  C5  UNL     1      13.137 -10.828  21.947  1.00  0.00     0.039 C 
BRANCH  32  33
HETATM   33  C6  UNL     1      13.897 -10.298  20.756  1.00  0.00     0.124 C 
BRANCH  33  34
HETATM   34  N3  UNL     1      15.307 -10.406  20.930  1.00  0.00    -0.361 N 
HETATM   35  C7  UNL     1      16.103 -11.372  20.290  1.00  0.00     0.213 C 
HETATM   36  C8  UNL     1      17.578 -11.418  20.522  1.00  0.00     0.117 C 
HETATM   37  O1  UNL     1      15.632 -12.219  19.517  1.00  0.00    -0.274 OA
ATOM     38  H3  UNL     1      15.766  -9.745  21.556  1.00  0.00     0.162 HD
ENDBRANCH  33  34
ENDBRANCH  32  33
ENDBRANCH  31  32
ENDBRANCH  29  31
ENDBRANCH  24  29
ENDBRANCH   1  24
TORSDOF 7
ENDMDL
MODEL 5
REMARK VINA RESULT: -7.161111694      1.748      2.935
REMARK  7 active torsions:
REMARK  status: ('A' for Active; 'I' for Inactive)
REMARK    1  A    between atoms: C2_2  and  N1_3 
REMARK    2  A    between atoms: C3_5  and  N2_6 
REMARK    3  A    between atoms: C3_5  and  C9_16 
REMARK    4  A    between atoms: N2_6  and  C4_8 
REMARK    5  A    between atoms: C4_8  and  C5_9 
REMARK    6  A    between atoms: C5_9  and  C6_10 
REMARK    7  A    between atoms: C6_10  and  N3_11 
REMARK       I    between atoms: N3_11  and  C7_13 
REMARK       I    between atoms: C9_16  and  N4_18 
REMARK       I    between atoms: C10_20  and  N5_21 
REMARK       I    between atoms: C10_20  and  N8_36 
REMARK       I    between atoms: N5_21  and  C11_23 
REMARK       I    between atoms: C11_23  and  N6_25 
ROOT
HETATM    1  C9  UNL     1      14.794 -14.629  21.218  1.00  0.00     0.303 C 
HETATM    2  O2  UNL     1      14.105 -15.585  21.742  1.00  0.00    -0.263 OA
HETATM    3  N4  UNL     1      15.991 -14.329  21.861  1.00  0.00    -0.153 N 
ATOM      4  H4  UNL     1      16.120 -13.345  22.098  1.00  0.00     0.187 HD
HETATM    5  C10 UNL     1      16.955 -15.096  22.201  1.00  0.00     0.686 C 
HETATM    6  N5  UNL     1      18.076 -14.520  22.854  1.00  0.00    -0.141 N 
ATOM      7  H5  UNL     1      18.049 -13.515  23.028  1.00  0.00     0.189 HD
HETATM    8  C11 UNL     1      19.224 -15.221  23.285  1.00  0.00     0.341 C 
HETATM    9  O3  UNL     1      19.255 -16.440  23.070  1.00  0.00    -0.246 OA
HETATM   10  N6  UNL     1      20.276 -14.557  23.925  1.00  0.00    -0.299 N 
HETATM   11  C12 UNL     1      20.268 -13.167  24.374  1.00  0.00     0.134 C 
HETATM   12  C13 UNL     1      20.382 -13.283  25.905  1.00  0.00     0.025 C 
HETATM   13  C14 UNL     1      21.686 -13.853  26.338  1.00  0.00     0.044 C 
HETATM   14  C15 UNL     1      22.152 -14.901  25.428  1.00  0.00    -0.015 A 
HETATM   15  C16 UNL     1      23.319 -15.616  25.694  1.00  0.00     0.099 A 
HETATM   16  N7  UNL     1      23.786 -16.582  24.875  1.00  0.00    -0.370 N 
HETATM   17  C17 UNL     1      25.023 -17.288  25.230  1.00  0.00     0.154 C 
HETATM   18  C18 UNL     1      23.153 -16.921  23.738  1.00  0.00     0.092 A 
HETATM   19  C19 UNL     1      21.976 -16.241  23.413  1.00  0.00     0.047 A 
HETATM   20  C20 UNL     1      21.496 -15.259  24.242  1.00  0.00     0.047 A 
HETATM   21  N8  UNL     1      16.879 -16.479  21.921  1.00  0.00    -0.226 N 
HETATM   22  C21 UNL     1      16.280 -17.465  22.816  1.00  0.00     0.168 C 
HETATM   23  C22 UNL     1      17.411 -17.038  20.667  1.00  0.00     0.168 C 
ENDROOT
BRANCH   1  24
HETATM   24  C3  UNL     1      14.226 -14.013  20.049  1.00  0.00     0.167 C 
HETATM   25  N1  UNL     1      14.730 -14.019  18.909  1.00  0.00    -0.372 N 
ATOM     26  H1  UNL     1      14.176 -13.531  18.205  1.00  0.00     0.161 HD
BRANCH  25  27
HETATM   27  C2  UNL     1      15.926 -14.579  18.416  1.00  0.00     0.117 C 
HETATM   28  C1  UNL     1      16.264 -14.050  17.018  1.00  0.00     0.026 C 
ENDBRANCH  25  27
BRANCH  24  29
HETATM   29  N2  UNL     1      12.960 -13.323  20.179  1.00  0.00    -0.372 N 
ATOM     30  H2  UNL     1      12.095 -13.843  20.326  1.00  0.00     0.161 HD
BRANCH  29  31
HETATM   31  C4  UNL     1      12.949 -11.880  20.096  1.00  0.00     0.123 C 
BRANCH  31  32
HETATM   32  C5  UNL     1      13.507 -11.300  21.381  1.00  0.00     0.039 C 
BRANCH  32  33
HETATM   33  C6  UNL     1      14.613 -10.319  21.079  1.00  0.00     0.124 C 
BRANCH  33  34
HETATM   34  N3  UNL     1      15.900 -10.928  21.146  1.00  0.00    -0.361 N 
HETATM   35  C7  UNL     1      16.669 -11.259  20.017  1.00  0.00     0.213 C 
HETATM   36  C8  UNL     1      18.013 -11.892  20.171  1.00  0.00     0.117 C 
HETATM   37  O1  UNL     1      16.279 -11.048  18.859  1.00  0.00    -0.274 OA
ATOM     38  H3  UNL     1      16.286 -11.136  22.067  1.00  0.00     0.162 HD
ENDBRANCH  33  34
ENDBRANCH  32  33
ENDBRANCH  31  32
ENDBRANCH  29  31
ENDBRANCH  24  29
ENDBRANCH   1  24
TORSDOF 7
ENDMDL
