MODEL 1
REMARK VINA RESULT: -7.665046349      0.000      0.000
REMARK  6 active torsions:
REMARK  status: ('A' for Active; 'I' for Inactive)
REMARK    1  A    between atoms: C2_2  and  C3_3 
REMARK    2  A    between atoms: C11_13  and  N3_14 
REMARK       I    between atoms: N3_14  and  C12_16 
REMARK    3  A    between atoms: C12_16  and  C13_18 
REMARK    4  A    between atoms: C14_19  and  C15_20 
REMARK    5  A    between atoms: C15_20  and  O2_21 
REMARK    6  A    between atoms: N4_23  and  C16_25 
ROOT
HETATM    1  C13 UNL     1      15.110 -13.312  20.770  1.00  0.00     0.058 C 
HETATM    2  C14 UNL     1      14.101 -14.132  20.712  1.00  0.00     0.042 C 
HETATM    3  C19 UNL     1      12.981 -13.439  19.932  1.00  0.00     0.151 C 
HETATM    4  C20 UNL     1      12.420 -14.371  18.870  1.00  0.00     0.051 C 
HETATM    5  C21 UNL     1      11.837 -13.144  20.897  1.00  0.00     0.051 C 
HETATM    6  N5  UNL     1      13.547 -12.283  19.406  1.00  0.00    -0.050 N 
ATOM      7  H51 UNL     1      12.929 -11.477  19.501  1.00  0.00     0.279 HD
ATOM      8  H52 UNL     1      13.599 -12.313  18.388  1.00  0.00     0.279 HD
HETATM    9  C22 UNL     1      14.814 -12.050  19.994  1.00  0.00     0.152 C 
HETATM   10  C23 UNL     1      15.883 -11.977  18.892  1.00  0.00     0.052 C 
HETATM   11  C24 UNL     1      14.843 -10.821  20.853  1.00  0.00     0.052 C 
ENDROOT
BRANCH   1  12
HETATM   12  C12 UNL     1      16.413 -13.510  21.446  1.00  0.00     0.251 C 
HETATM   13  N3  UNL     1      17.454 -14.238  20.824  1.00  0.00    -0.352 N 
ATOM     14  H3  UNL     1      17.318 -14.633  19.893  1.00  0.00     0.163 HD
HETATM   15  O1  UNL     1      16.693 -13.078  22.564  1.00  0.00    -0.268 OA
BRANCH  13  16
HETATM   16  C11 UNL     1      18.733 -14.423  21.525  1.00  0.00     0.090 C 
HETATM   17  C10 UNL     1      19.135 -15.851  21.691  1.00  0.00     0.022 C 
HETATM   18  C9  UNL     1      19.273 -16.318  23.131  1.00  0.00     0.065 C 
HETATM   19  C26 UNL     1      20.551 -15.437  21.324  1.00  0.00     0.030 C 
HETATM   20  C7  UNL     1      20.412 -15.479  23.640  1.00  0.00     0.021 A 
HETATM   21  C6  UNL     1      21.143 -14.979  22.596  1.00  0.00    -0.015 A 
HETATM   22  N2  UNL     1      20.782 -15.177  24.896  1.00  0.00    -0.344 N 
HETATM   23  C5  UNL     1      22.215 -14.193  22.884  1.00  0.00     0.101 A 
HETATM   24  N1  UNL     1      22.579 -13.893  24.160  1.00  0.00    -0.350 N 
HETATM   25  C3  UNL     1      21.842 -14.399  25.174  1.00  0.00     0.084 A 
HETATM   26  C4  UNL     1      23.731 -13.048  24.407  1.00  0.00     0.156 C 
HETATM   27  C8  UNL     1      19.999 -15.718  25.982  1.00  0.00     0.157 C 
HETATM   28  C25 UNL     1      19.935 -14.261  20.598  1.00  0.00     0.035 C 
BRANCH  25  29
HETATM   29  C2  UNL     1      22.204 -14.090  26.577  1.00  0.00     0.072 C 
HETATM   30  C1  UNL     1      21.449 -12.932  27.155  1.00  0.00     0.013 C 
ENDBRANCH  25  29
ENDBRANCH  13  16
ENDBRANCH   1  12
BRANCH   2  31
HETATM   31  C15 UNL     1      13.866 -15.468  21.246  1.00  0.00     0.145 C 
HETATM   32  N4  UNL     1      14.054 -16.763  20.920  1.00  0.00    -0.367 N 
ATOM     33  H4  UNL     1      14.498 -17.008  20.035  1.00  0.00     0.162 HD
BRANCH  31  34
HETATM   34  O2  UNL     1      13.271 -15.348  22.447  1.00  0.00    -0.346 OA
ATOM     35  H2  UNL     1      13.528 -16.089  22.984  1.00  0.00     0.219 HD
ENDBRANCH  31  34
BRANCH  32  36
HETATM   36  C16 UNL     1      13.607 -17.850  21.869  1.00  0.00     0.075 C 
HETATM   37  C17 UNL     1      12.553 -18.700  21.253  1.00  0.00     0.032 C 
HETATM   38  C18 UNL     1      14.799 -18.717  22.188  1.00  0.00     0.032 C 
ENDBRANCH  32  36
ENDBRANCH   2  31
TORSDOF 6
ENDMDL
MODEL 2
REMARK VINA RESULT: -7.584645294      2.354      8.372
REMARK  6 active torsions:
REMARK  status: ('A' for Active; 'I' for Inactive)
REMARK    1  A    between atoms: C2_2  and  C3_3 
REMARK    2  A    between atoms: C11_13  and  N3_14 
REMARK       I    between atoms: N3_14  and  C12_16 
REMARK    3  A    between atoms: C12_16  and  C13_18 
REMARK    4  A    between atoms: C14_19  and  C15_20 
REMARK    5  A    between atoms: C15_20  and  O2_21 
REMARK    6  A    between atoms: N4_23  and  C16_25 
ROOT
HETATM    1  C13 UNL     1      20.468 -14.736  24.129  1.00  0.00     0.058 C 
HETATM    2  C14 UNL     1      21.474 -15.507  23.832  1.00  0.00     0.042 C 
HETATM    3  C19 UNL     1      22.536 -15.329  24.921  1.00  0.00     0.151 C 
HETATM    4  C20 UNL     1      23.025 -16.683  25.410  1.00  0.00     0.051 C 
HETATM    5  C21 UNL     1      23.743 -14.630  24.303  1.00  0.00     0.051 C 
HETATM    6  N5  UNL     1      21.931 -14.570  25.917  1.00  0.00    -0.050 N 
ATOM      7  H51 UNL     1      22.552 -13.844  26.273  1.00  0.00     0.279 HD
ATOM      8  H52 UNL     1      21.809 -15.101  26.779  1.00  0.00     0.279 HD
HETATM    9  C22 UNL     1      20.707 -14.036  25.446  1.00  0.00     0.152 C 
HETATM   10  C23 UNL     1      19.565 -14.486  26.372  1.00  0.00     0.052 C 
HETATM   11  C24 UNL     1      20.734 -12.543  25.314  1.00  0.00     0.052 C 
ENDROOT
BRANCH   1  12
HETATM   12  C12 UNL     1      19.216 -14.530  23.366  1.00  0.00     0.251 C 
HETATM   13  N3  UNL     1      19.212 -13.800  22.155  1.00  0.00    -0.352 N 
ATOM     14  H3  UNL     1      20.080 -13.408  21.790  1.00  0.00     0.163 HD
HETATM   15  O1  UNL     1      18.112 -14.958  23.706  1.00  0.00    -0.268 OA
BRANCH  13  16
HETATM   16  C11 UNL     1      17.950 -13.607  21.425  1.00  0.00     0.090 C 
HETATM   17  C10 UNL     1      18.046 -12.644  20.288  1.00  0.00     0.022 C 
HETATM   18  C9  UNL     1      17.156 -11.417  20.407  1.00  0.00     0.065 C 
HETATM   19  C26 UNL     1      17.199 -13.609  19.473  1.00  0.00     0.030 C 
HETATM   20  C7  UNL     1      15.775 -12.009  20.366  1.00  0.00     0.021 A 
HETATM   21  C6  UNL     1      15.808 -13.266  19.826  1.00  0.00    -0.015 A 
HETATM   22  N2  UNL     1      14.595 -11.502  20.761  1.00  0.00    -0.344 N 
HETATM   23  C5  UNL     1      14.635 -13.947  19.717  1.00  0.00     0.101 A 
HETATM   24  N1  UNL     1      13.446 -13.423  20.122  1.00  0.00    -0.350 N 
HETATM   25  C3  UNL     1      13.440 -12.180  20.651  1.00  0.00     0.084 A 
HETATM   26  C4  UNL     1      12.228 -14.196  19.983  1.00  0.00     0.156 C 
HETATM   27  C8  UNL     1      14.583 -10.172  21.325  1.00  0.00     0.157 C 
HETATM   28  C25 UNL     1      17.702 -14.702  20.391  1.00  0.00     0.035 C 
BRANCH  25  29
HETATM   29  C2  UNL     1      12.165 -11.578  21.109  1.00  0.00     0.072 C 
HETATM   30  C1  UNL     1      11.884 -11.793  22.565  1.00  0.00     0.013 C 
ENDBRANCH  25  29
ENDBRANCH  13  16
ENDBRANCH   1  12
BRANCH   2  31
HETATM   31  C15 UNL     1      21.749 -16.408  22.719  1.00  0.00     0.145 C 
HETATM   32  N4  UNL     1      22.140 -17.677  22.486  1.00  0.00    -0.367 N 
ATOM     33  H4  UNL     1      22.334 -18.305  23.266  1.00  0.00     0.162 HD
BRANCH  31  34
HETATM   34  O2  UNL     1      21.540 -15.742  21.570  1.00  0.00    -0.346 OA
ATOM     35  H2  UNL     1      22.007 -16.188  20.874  1.00  0.00     0.219 HD
ENDBRANCH  31  34
BRANCH  32  36
HETATM   36  C16 UNL     1      22.290 -18.168  21.065  1.00  0.00     0.075 C 
HETATM   37  C17 UNL     1      23.700 -18.543  20.772  1.00  0.00     0.032 C 
HETATM   38  C18 UNL     1      21.422 -19.389  20.894  1.00  0.00     0.032 C 
ENDBRANCH  32  36
ENDBRANCH   2  31
TORSDOF 6
ENDMDL
MODEL 3
REMARK VINA RESULT: -7.344139567      2.007      4.197
REMARK  6 active torsions:
REMARK  status: ('A' for Active; 'I' for Inactive)
REMARK    1  A    between atoms: C2_2  and  C3_3 
REMARK    2  A    between atoms: C11_13  and  N3_14 
REMARK       I    between atoms: N3_14  and  C12_16 
REMARK    3  A    between atoms: C12_16  and  C13_18 
REMARK    4  A    between atoms: C14_19  and  C15_20 
REMARK    5  A    between atoms: C15_20  and  O2_21 
REMARK    6  A    between atoms: N4_23  and  C16_25 
ROOT
HETATM    1  C13 UNL     1      15.248 -16.534  20.829  1.00  0.00     0.058 C 
HETATM    2  C14 UNL     1      14.129 -15.878  20.732  1.00  0.00     0.042 C 
HETATM    3  C19 UNL     1      13.191 -16.685  19.829  1.00  0.00     0.151 C 
HETATM    4  C20 UNL     1      11.819 -16.813  20.471  1.00  0.00     0.051 C 
HETATM    5  C21 UNL     1      12.992 -15.909  18.531  1.00  0.00     0.051 C 
HETATM    6  N5  UNL     1      13.821 -17.908  19.629  1.00  0.00    -0.050 N 
ATOM      7  H51 UNL     1      13.764 -18.213  18.658  1.00  0.00     0.279 HD
ATOM      8  H52 UNL     1      13.306 -18.677  20.059  1.00  0.00     0.279 HD
HETATM    9  C22 UNL     1      15.160 -17.847  20.087  1.00  0.00     0.152 C 
HETATM   10  C23 UNL     1      15.389 -18.940  21.143  1.00  0.00     0.052 C 
HETATM   11  C24 UNL     1      16.162 -17.954  18.976  1.00  0.00     0.052 C 
ENDROOT
BRANCH   1  12
HETATM   12  C12 UNL     1      16.476 -16.148  21.562  1.00  0.00     0.251 C 
HETATM   13  N3  UNL     1      16.511 -16.149  22.975  1.00  0.00    -0.352 N 
ATOM     14  H3  UNL     1      15.686 -16.424  23.509  1.00  0.00     0.163 HD
HETATM   15  O1  UNL     1      17.530 -15.803  21.027  1.00  0.00    -0.268 OA
BRANCH  13  16
HETATM   16  C11 UNL     1      17.744 -15.753  23.673  1.00  0.00     0.090 C 
HETATM   17  C10 UNL     1      17.792 -14.309  24.050  1.00  0.00     0.022 C 
HETATM   18  C9  UNL     1      18.926 -13.517  23.420  1.00  0.00     0.065 C 
HETATM   19  C26 UNL     1      18.369 -14.735  25.390  1.00  0.00     0.030 C 
HETATM   20  C7  UNL     1      20.146 -14.165  24.011  1.00  0.00     0.021 A 
HETATM   21  C6  UNL     1      19.819 -14.861  25.143  1.00  0.00    -0.015 A 
HETATM   22  N2  UNL     1      21.427 -14.153  23.604  1.00  0.00    -0.344 N 
HETATM   23  C5  UNL     1      20.814 -15.513  25.804  1.00  0.00     0.101 A 
HETATM   24  N1  UNL     1      22.106 -15.494  25.381  1.00  0.00    -0.350 N 
HETATM   25  C3  UNL     1      22.405 -14.800  24.261  1.00  0.00     0.084 A 
HETATM   26  C4  UNL     1      23.124 -16.208  26.125  1.00  0.00     0.156 C 
HETATM   27  C8  UNL     1      21.750 -13.410  22.408  1.00  0.00     0.157 C 
HETATM   28  C25 UNL     1      17.698 -16.073  25.165  1.00  0.00     0.035 C 
BRANCH  25  29
HETATM   29  C2  UNL     1      23.801 -14.761  23.765  1.00  0.00     0.072 C 
HETATM   30  C1  UNL     1      24.536 -13.506  24.125  1.00  0.00     0.013 C 
ENDBRANCH  25  29
ENDBRANCH  13  16
ENDBRANCH   1  12
BRANCH   2  31
HETATM   31  C15 UNL     1      13.668 -14.601  21.265  1.00  0.00     0.145 C 
HETATM   32  N4  UNL     1      13.585 -13.301  20.915  1.00  0.00    -0.367 N 
ATOM     33  H4  UNL     1      13.923 -12.995  20.002  1.00  0.00     0.162 HD
BRANCH  31  34
HETATM   34  O2  UNL     1      13.171 -14.808  22.497  1.00  0.00    -0.346 OA
ATOM     35  H2  UNL     1      13.600 -15.568  22.871  1.00  0.00     0.219 HD
ENDBRANCH  31  34
BRANCH  32  36
HETATM   36  C16 UNL     1      12.990 -12.301  21.877  1.00  0.00     0.075 C 
HETATM   37  C17 UNL     1      13.652 -10.974  21.750  1.00  0.00     0.032 C 
HETATM   38  C18 UNL     1      11.527 -12.142  21.546  1.00  0.00     0.032 C 
ENDBRANCH  32  36
ENDBRANCH   2  31
TORSDOF 6
ENDMDL
MODEL 4
REMARK VINA RESULT: -7.216503517      1.821      2.793
REMARK  6 active torsions:
REMARK  status: ('A' for Active; 'I' for Inactive)
REMARK    1  A    between atoms: C2_2  and  C3_3 
REMARK    2  A    between atoms: C11_13  and  N3_14 
REMARK       I    between atoms: N3_14  and  C12_16 
REMARK    3  A    between atoms: C12_16  and  C13_18 
REMARK    4  A    between atoms: C14_19  and  C15_20 
REMARK    5  A    between atoms: C15_20  and  O2_21 
REMARK    6  A    between atoms: N4_23  and  C16_25 
ROOT
HETATM    1  C13 UNL     1      15.793 -14.204  20.939  1.00  0.00     0.058 C 
HETATM    2  C14 UNL     1      14.639 -14.771  20.739  1.00  0.00     0.042 C 
HETATM    3  C19 UNL     1      13.790 -13.815  19.896  1.00  0.00     0.151 C 
HETATM    4  C20 UNL     1      13.152 -14.559  18.734  1.00  0.00     0.051 C 
HETATM    5  C21 UNL     1      12.644 -13.301  20.763  1.00  0.00     0.051 C 
HETATM    6  N5  UNL     1      14.652 -12.801  19.494  1.00  0.00    -0.050 N 
ATOM      7  H51 UNL     1      14.221 -11.880  19.575  1.00  0.00     0.279 HD
ATOM      8  H52 UNL     1      14.803 -12.807  18.485  1.00  0.00     0.279 HD
HETATM    9  C22 UNL     1      15.869 -12.882  20.213  1.00  0.00     0.152 C 
HETATM   10  C23 UNL     1      17.038 -13.015  19.224  1.00  0.00     0.052 C 
HETATM   11  C24 UNL     1      16.078 -11.721  21.139  1.00  0.00     0.052 C 
ENDROOT
BRANCH   1  12
HETATM   12  C12 UNL     1      16.940 -14.715  21.725  1.00  0.00     0.251 C 
HETATM   13  N3  UNL     1      17.107 -14.362  23.084  1.00  0.00    -0.352 N 
ATOM     14  H3  UNL     1      16.431 -13.751  23.542  1.00  0.00     0.163 HD
HETATM   15  O1  UNL     1      17.815 -15.459  21.281  1.00  0.00    -0.268 OA
BRANCH  13  16
HETATM   16  C11 UNL     1      18.261 -14.881  23.834  1.00  0.00     0.090 C 
HETATM   17  C10 UNL     1      18.793 -13.936  24.861  1.00  0.00     0.022 C 
HETATM   18  C9  UNL     1      20.233 -13.498  24.647  1.00  0.00     0.065 C 
HETATM   19  C26 UNL     1      18.929 -15.123  25.801  1.00  0.00     0.030 C 
HETATM   20  C7  UNL     1      20.994 -14.785  24.798  1.00  0.00     0.021 A 
HETATM   21  C6  UNL     1      20.240 -15.713  25.464  1.00  0.00    -0.015 A 
HETATM   22  N2  UNL     1      22.231 -15.122  24.394  1.00  0.00    -0.344 N 
HETATM   23  C5  UNL     1      20.783 -16.940  25.684  1.00  0.00     0.101 A 
HETATM   24  N1  UNL     1      22.036 -17.270  25.269  1.00  0.00    -0.350 N 
HETATM   25  C3  UNL     1      22.761 -16.336  24.614  1.00  0.00     0.084 A 
HETATM   26  C4  UNL     1      22.562 -18.595  25.531  1.00  0.00     0.156 C 
HETATM   27  C8  UNL     1      23.010 -14.126  23.696  1.00  0.00     0.157 C 
HETATM   28  C25 UNL     1      17.845 -15.794  24.985  1.00  0.00     0.035 C 
BRANCH  25  29
HETATM   29  C2  UNL     1      24.128 -16.660  24.141  1.00  0.00     0.072 C 
HETATM   30  C1  UNL     1      25.185 -16.500  25.191  1.00  0.00     0.013 C 
ENDBRANCH  25  29
ENDBRANCH  13  16
ENDBRANCH   1  12
BRANCH   2  31
HETATM   31  C15 UNL     1      14.058 -16.036  21.171  1.00  0.00     0.145 C 
HETATM   32  N4  UNL     1      13.796 -17.272  20.698  1.00  0.00    -0.367 N 
ATOM     33  H4  UNL     1      14.044 -17.515  19.739  1.00  0.00     0.162 HD
BRANCH  31  34
HETATM   34  O2  UNL     1      13.663 -15.909  22.450  1.00  0.00    -0.346 OA
ATOM     35  H2  UNL     1      12.808 -15.497  22.462  1.00  0.00     0.219 HD
ENDBRANCH  31  34
BRANCH  32  36
HETATM   36  C16 UNL     1      13.137 -18.294  21.593  1.00  0.00     0.075 C 
HETATM   37  C17 UNL     1      11.866 -18.789  20.998  1.00  0.00     0.032 C 
HETATM   38  C18 UNL     1      14.081 -19.461  21.749  1.00  0.00     0.032 C 
ENDBRANCH  32  36
ENDBRANCH   2  31
TORSDOF 6
ENDMDL
MODEL 5
REMARK VINA RESULT: -7.204878610      1.816      3.759
REMARK  6 active torsions:
REMARK  status: ('A' for Active; 'I' for Inactive)
REMARK    1  A    between atoms: C2_2  and  C3_3 
REMARK    2  A    between atoms: C11_13  and  N3_14 
REMARK       I    between atoms: N3_14  and  C12_16 
REMARK    3  A    between atoms: C12_16  and  C13_18 
REMARK    4  A    between atoms: C14_19  and  C15_20 
REMARK    5  A    between atoms: C15_20  and  O2_21 
REMARK    6  A    between atoms: N4_23  and  C16_25 
ROOT
HETATM    1  C13 UNL     1      15.450 -15.119  20.304  1.00  0.00     0.058 C 
HETATM    2  C14 UNL     1      14.448 -14.293  20.215  1.00  0.00     0.042 C 
HETATM    3  C19 UNL     1      13.485 -14.840  19.158  1.00  0.00     0.151 C 
HETATM    4  C20 UNL     1      12.059 -14.829  19.685  1.00  0.00     0.051 C 
HETATM    5  C21 UNL     1      13.510 -13.901  17.956  1.00  0.00     0.051 C 
HETATM    6  N5  UNL     1      13.948 -16.114  18.850  1.00  0.00    -0.050 N 
ATOM      7  H51 UNL     1      13.930 -16.295  17.846  1.00  0.00     0.279 HD
ATOM      8  H52 UNL     1      13.293 -16.839  19.144  1.00  0.00     0.279 HD
HETATM    9  C22 UNL     1      15.238 -16.311  19.400  1.00  0.00     0.152 C 
HETATM   10  C23 UNL     1      15.217 -17.539  20.324  1.00  0.00     0.052 C 
HETATM   11  C24 UNL     1      16.304 -16.443  18.354  1.00  0.00     0.052 C 
ENDROOT
BRANCH   1  12
HETATM   12  C12 UNL     1      16.653 -15.010  21.160  1.00  0.00     0.251 C 
HETATM   13  N3  UNL     1      17.873 -14.513  20.642  1.00  0.00    -0.352 N 
ATOM     14  H3  UNL     1      17.934 -14.218  19.668  1.00  0.00     0.163 HD
HETATM   15  O1  UNL     1      16.698 -15.330  22.348  1.00  0.00    -0.268 OA
BRANCH  13  16
HETATM   16  C11 UNL     1      19.052 -14.424  21.517  1.00  0.00     0.090 C 
HETATM   17  C10 UNL     1      20.351 -14.618  20.807  1.00  0.00     0.022 C 
HETATM   18  C9  UNL     1      21.171 -15.808  21.279  1.00  0.00     0.065 C 
HETATM   19  C26 UNL     1      20.908 -13.466  21.629  1.00  0.00     0.030 C 
HETATM   20  C7  UNL     1      21.497 -15.439  22.699  1.00  0.00     0.021 A 
HETATM   21  C6  UNL     1      21.346 -14.093  22.892  1.00  0.00    -0.015 A 
HETATM   22  N2  UNL     1      21.890 -16.203  23.732  1.00  0.00    -0.344 N 
HETATM   23  C5  UNL     1      21.602 -13.591  24.130  1.00  0.00     0.101 A 
HETATM   24  N1  UNL     1      21.997 -14.375  25.169  1.00  0.00    -0.350 N 
HETATM   25  C3  UNL     1      22.140 -15.701  24.953  1.00  0.00     0.084 A 
HETATM   26  C4  UNL     1      22.254 -13.784  26.467  1.00  0.00     0.156 C 
HETATM   27  C8  UNL     1      22.046 -17.621  23.505  1.00  0.00     0.157 C 
HETATM   28  C25 UNL     1      19.481 -12.981  21.771  1.00  0.00     0.035 C 
BRANCH  25  29
HETATM   29  C2  UNL     1      22.564 -16.589  26.062  1.00  0.00     0.072 C 
HETATM   30  C1  UNL     1      24.043 -16.826  26.114  1.00  0.00     0.013 C 
ENDBRANCH  25  29
ENDBRANCH  13  16
ENDBRANCH   1  12
BRANCH   2  31
HETATM   31  C15 UNL     1      14.132 -13.030  20.871  1.00  0.00     0.145 C 
HETATM   32  N4  UNL     1      13.717 -11.782  20.571  1.00  0.00    -0.367 N 
ATOM     33  H4  UNL     1      13.532 -11.524  19.602  1.00  0.00     0.162 HD
BRANCH  31  34
HETATM   34  O2  UNL     1      14.320 -13.178  22.194  1.00  0.00    -0.346 OA
ATOM     35  H2  UNL     1      13.536 -13.562  22.568  1.00  0.00     0.219 HD
ENDBRANCH  31  34
BRANCH  32  36
HETATM   36  C16 UNL     1      13.528 -10.768  21.674  1.00  0.00     0.075 C 
HETATM   37  C17 UNL     1      14.197  -9.481  21.342  1.00  0.00     0.032 C 
HETATM   38  C18 UNL     1      12.049 -10.514  21.832  1.00  0.00     0.032 C 
ENDBRANCH  32  36
ENDBRANCH   2  31
TORSDOF 6
ENDMDL
