MODEL 1
REMARK VINA RESULT: -7.294824179      0.000      0.000
REMARK  8 active torsions:
REMARK  status: ('A' for Active; 'I' for Inactive)
REMARK    1  A    between atoms: C2_2  and  C3_3 
REMARK    2  A    between atoms: C3_3  and  N1_4 
REMARK       I    between atoms: N1_4  and  C5_6 
REMARK       I    between atoms: C5_6  and  N2_8 
REMARK    3  A    between atoms: N2_8  and  C6_10 
REMARK    4  A    between atoms: N3_12  and  C8_13 
REMARK    5  A    between atoms: C8_13  and  O2_14 
REMARK    6  A    between atoms: C8_13  and  N4_16 
REMARK    7  A    between atoms: C18_27  and  N6_28 
REMARK    8  A    between atoms: C18_27  and  C21_33 
REMARK       I    between atoms: N6_28  and  C19_30 
ROOT
HETATM    1  C6  UNL     1      17.056 -14.636  20.823  1.00  0.00     0.143 C 
HETATM    2  C7  UNL     1      17.653 -13.865  19.721  1.00  0.00     0.154 C 
HETATM    3  N3  UNL     1      16.674 -13.527  18.658  1.00  0.00    -0.345 N 
HETATM    4  C15 UNL     1      16.221 -14.395  17.637  1.00  0.00     0.126 C 
HETATM    5  C16 UNL     1      15.198 -15.410  18.123  1.00  0.00     0.023 C 
HETATM    6  C17 UNL     1      15.001 -15.249  19.575  1.00  0.00     0.046 C 
HETATM    7  C18 UNL     1      16.098 -15.761  20.416  1.00  0.00     0.143 C 
ENDROOT
BRANCH   3   8
HETATM    8  C8  UNL     1      16.240 -12.218  18.758  1.00  0.00     0.217 C 
BRANCH   8   9
HETATM    9  O2  UNL     1      16.928 -11.352  17.991  1.00  0.00    -0.333 OA
ATOM     10  H2  UNL     1      16.655 -10.447  18.088  1.00  0.00     0.220 HD
ENDBRANCH   8   9
BRANCH   8  11
HETATM   11  N4  UNL     1      15.242 -11.582  19.480  1.00  0.00    -0.344 N 
HETATM   12  C9  UNL     1      15.516 -11.197  20.916  1.00  0.00     0.154 C 
HETATM   13  C10 UNL     1      14.552 -12.025  21.721  1.00  0.00     0.256 C 
HETATM   14  N5  UNL     1      13.183 -11.648  21.418  1.00  0.00    -0.072 N 
HETATM   15  C11 UNL     1      12.654 -10.948  22.573  1.00  0.00     0.272 C 
HETATM   16  C12 UNL     1      12.418 -12.856  21.226  1.00  0.00     0.272 C 
HETATM   17  C13 UNL     1      13.097 -10.764  20.295  1.00  0.00     0.256 C 
HETATM   18  C14 UNL     1      13.911 -11.227  19.088  1.00  0.00     0.154 C 
ENDBRANCH   8  11
ENDBRANCH   3   8
BRANCH   1  19
HETATM   19  N2  UNL     1      18.057 -15.130  21.737  1.00  0.00    -0.334 N 
HETATM   20  C5  UNL     1      18.395 -14.397  22.896  1.00  0.00     0.318 C 
HETATM   21  N1  UNL     1      19.372 -14.841  23.833  1.00  0.00    -0.339 N 
HETATM   22  O1  UNL     1      17.804 -13.306  23.105  1.00  0.00    -0.247 OA
HETATM   23  C4  UNL     1      20.074 -16.075  23.634  1.00  0.00     0.154 C 
ATOM     24  H2  UNL     1      18.524 -16.016  21.545  1.00  0.00     0.164 HD
BRANCH  21  25
HETATM   25  C3  UNL     1      19.672 -14.050  25.000  1.00  0.00     0.127 C 
BRANCH  25  26
HETATM   26  C2  UNL     1      20.865 -13.143  24.796  1.00  0.00     0.015 C 
HETATM   27  C1  UNL     1      21.223 -12.554  26.151  1.00  0.00     0.006 C 
ENDBRANCH  25  26
ENDBRANCH  21  25
ENDBRANCH   1  19
BRANCH   7  28
HETATM   28  N6  UNL     1      16.833 -16.882  19.915  1.00  0.00    -0.341 N 
HETATM   29  C19 UNL     1      16.231 -18.110  19.609  1.00  0.00     0.214 C 
HETATM   30  C20 UNL     1      17.093 -19.236  19.079  1.00  0.00     0.117 C 
HETATM   31  O3  UNL     1      15.018 -18.411  19.721  1.00  0.00    -0.274 OA
ATOM     32  H6  UNL     1      17.838 -16.783  19.774  1.00  0.00     0.163 HD
ENDBRANCH   7  28
BRANCH   7  33
HETATM   33  C21 UNL     1      15.437 -16.234  21.700  1.00  0.00     0.204 C 
HETATM   34  O4  UNL     1      16.060 -16.919  22.509  1.00  0.00    -0.646 OA
HETATM   35  O5  UNL     1      14.129 -15.886  21.940  1.00  0.00    -0.646 OA
ENDBRANCH   7  33
TORSDOF 8
ENDMDL
MODEL 2
REMARK VINA RESULT: -6.931336055      2.235      6.519
REMARK  8 active torsions:
REMARK  status: ('A' for Active; 'I' for Inactive)
REMARK    1  A    between atoms: C2_2  and  C3_3 
REMARK    2  A    between atoms: C3_3  and  N1_4 
REMARK       I    between atoms: N1_4  and  C5_6 
REMARK       I    between atoms: C5_6  and  N2_8 
REMARK    3  A    between atoms: N2_8  and  C6_10 
REMARK    4  A    between atoms: N3_12  and  C8_13 
REMARK    5  A    between atoms: C8_13  and  O2_14 
REMARK    6  A    between atoms: C8_13  and  N4_16 
REMARK    7  A    between atoms: C18_27  and  N6_28 
REMARK    8  A    between atoms: C18_27  and  C21_33 
REMARK       I    between atoms: N6_28  and  C19_30 
ROOT
HETATM    1  C6  UNL     1      14.902 -13.018  19.696  1.00  0.00     0.143 C 
HETATM    2  C7  UNL     1      13.999 -14.106  19.290  1.00  0.00     0.154 C 
HETATM    3  N3  UNL     1      14.725 -15.319  18.839  1.00  0.00    -0.345 N 
HETATM    4  C15 UNL     1      15.319 -15.510  17.569  1.00  0.00     0.126 C 
HETATM    5  C16 UNL     1      16.640 -14.775  17.410  1.00  0.00     0.023 C 
HETATM    6  C17 UNL     1      16.917 -13.995  18.629  1.00  0.00     0.046 C 
HETATM    7  C18 UNL     1      16.110 -12.771  18.786  1.00  0.00     0.143 C 
ENDROOT
BRANCH   3   8
HETATM    8  C8  UNL     1      14.752 -16.295  19.819  1.00  0.00     0.217 C 
BRANCH   8   9
HETATM    9  O2  UNL     1      13.547 -16.817  20.107  1.00  0.00    -0.333 OA
ATOM     10  H2  UNL     1      13.395 -16.955  21.034  1.00  0.00     0.220 HD
ENDBRANCH   8   9
BRANCH   8  11
HETATM   11  N4  UNL     1      15.756 -16.867  20.586  1.00  0.00    -0.344 N 
HETATM   12  C9  UNL     1      15.832 -16.524  22.056  1.00  0.00     0.154 C 
HETATM   13  C10 UNL     1      17.143 -15.801  22.208  1.00  0.00     0.256 C 
HETATM   14  N5  UNL     1      18.251 -16.689  21.906  1.00  0.00    -0.072 N 
HETATM   15  C11 UNL     1      18.928 -16.989  23.153  1.00  0.00     0.272 C 
HETATM   16  C12 UNL     1      19.169 -15.982  21.045  1.00  0.00     0.272 C 
HETATM   17  C13 UNL     1      17.815 -17.929  21.337  1.00  0.00     0.256 C 
HETATM   18  C14 UNL     1      16.806 -17.761  20.202  1.00  0.00     0.154 C 
ENDBRANCH   8  11
ENDBRANCH   3   8
BRANCH   1  19
HETATM   19  N2  UNL     1      14.187 -11.786  19.931  1.00  0.00    -0.334 N 
HETATM   20  C5  UNL     1      13.937 -11.342  21.248  1.00  0.00     0.318 C 
HETATM   21  N1  UNL     1      13.241 -10.133  21.537  1.00  0.00    -0.339 N 
HETATM   22  O1  UNL     1      14.350 -12.049  22.204  1.00  0.00    -0.247 OA
HETATM   23  C4  UNL     1      12.749  -9.298  20.481  1.00  0.00     0.154 C 
ATOM     24  H2  UNL     1      13.861 -11.231  19.140  1.00  0.00     0.164 HD
BRANCH  21  25
HETATM   25  C3  UNL     1      13.020  -9.731  22.903  1.00  0.00     0.127 C 
BRANCH  25  26
HETATM   26  C2  UNL     1      11.577  -9.890  23.328  1.00  0.00     0.015 C 
HETATM   27  C1  UNL     1      11.493 -11.143  24.185  1.00  0.00     0.006 C 
ENDBRANCH  25  26
ENDBRANCH  21  25
ENDBRANCH   1  19
BRANCH   7  28
HETATM   28  N6  UNL     1      15.702 -12.103  17.588  1.00  0.00    -0.341 N 
HETATM   29  C19 UNL     1      16.614 -11.623  16.637  1.00  0.00     0.214 C 
HETATM   30  C20 UNL     1      16.083 -10.933  15.399  1.00  0.00     0.117 C 
HETATM   31  O3  UNL     1      17.866 -11.692  16.682  1.00  0.00    -0.274 OA
ATOM     32  H6  UNL     1      14.705 -11.972  17.418  1.00  0.00     0.163 HD
ENDBRANCH   7  28
BRANCH   7  33
HETATM   33  C21 UNL     1      17.002 -11.790  19.529  1.00  0.00     0.204 C 
HETATM   34  O4  UNL     1      16.699 -10.601  19.602  1.00  0.00    -0.646 OA
HETATM   35  O5  UNL     1      18.156 -12.255  20.115  1.00  0.00    -0.646 OA
ENDBRANCH   7  33
TORSDOF 8
ENDMDL
MODEL 3
REMARK VINA RESULT: -6.765298494      2.816      6.834
REMARK  8 active torsions:
REMARK  status: ('A' for Active; 'I' for Inactive)
REMARK    1  A    between atoms: C2_2  and  C3_3 
REMARK    2  A    between atoms: C3_3  and  N1_4 
REMARK       I    between atoms: N1_4  and  C5_6 
REMARK       I    between atoms: C5_6  and  N2_8 
REMARK    3  A    between atoms: N2_8  and  C6_10 
REMARK    4  A    between atoms: N3_12  and  C8_13 
REMARK    5  A    between atoms: C8_13  and  O2_14 
REMARK    6  A    between atoms: C8_13  and  N4_16 
REMARK    7  A    between atoms: C18_27  and  N6_28 
REMARK    8  A    between atoms: C18_27  and  C21_33 
REMARK       I    between atoms: N6_28  and  C19_30 
ROOT
HETATM    1  C6  UNL     1      14.859 -12.886  20.622  1.00  0.00     0.143 C 
HETATM    2  C7  UNL     1      14.029 -14.079  20.392  1.00  0.00     0.154 C 
HETATM    3  N3  UNL     1      14.833 -15.315  20.219  1.00  0.00    -0.345 N 
HETATM    4  C15 UNL     1      15.506 -15.712  19.040  1.00  0.00     0.126 C 
HETATM    5  C16 UNL     1      16.801 -14.951  18.805  1.00  0.00     0.023 C 
HETATM    6  C17 UNL     1      16.973 -13.938  19.862  1.00  0.00     0.046 C 
HETATM    7  C18 UNL     1      16.105 -12.753  19.740  1.00  0.00     0.143 C 
ENDROOT
BRANCH   3   8
HETATM    8  C8  UNL     1      14.847 -16.082  21.369  1.00  0.00     0.217 C 
BRANCH   8   9
HETATM    9  O2  UNL     1      13.914 -15.734  22.274  1.00  0.00    -0.333 OA
ATOM     10  H2  UNL     1      13.979 -16.201  23.098  1.00  0.00     0.220 HD
ENDBRANCH   8   9
BRANCH   8  11
HETATM   11  N4  UNL     1      15.616 -17.148  21.812  1.00  0.00    -0.344 N 
HETATM   12  C9  UNL     1      14.927 -18.448  22.157  1.00  0.00     0.154 C 
HETATM   13  C10 UNL     1      15.161 -18.621  23.633  1.00  0.00     0.256 C 
HETATM   14  N5  UNL     1      16.578 -18.788  23.906  1.00  0.00    -0.072 N 
HETATM   15  C11 UNL     1      16.791 -20.169  24.293  1.00  0.00     0.272 C 
HETATM   16  C12 UNL     1      16.921 -17.942  25.023  1.00  0.00     0.272 C 
HETATM   17  C13 UNL     1      17.388 -18.527  22.755  1.00  0.00     0.256 C 
HETATM   18  C14 UNL     1      17.029 -17.229  22.034  1.00  0.00     0.154 C 
ENDBRANCH   8  11
ENDBRANCH   3   8
BRANCH   1  19
HETATM   19  N2  UNL     1      14.079 -11.672  20.580  1.00  0.00    -0.334 N 
HETATM   20  C5  UNL     1      13.378 -11.231  21.724  1.00  0.00     0.318 C 
HETATM   21  N1  UNL     1      12.597 -10.039  21.738  1.00  0.00    -0.339 N 
HETATM   22  O1  UNL     1      13.450 -11.923  22.772  1.00  0.00    -0.247 OA
HETATM   23  C4  UNL     1      12.482  -9.221  20.567  1.00  0.00     0.154 C 
ATOM     24  H2  UNL     1      14.034 -11.129  19.719  1.00  0.00     0.164 HD
BRANCH  21  25
HETATM   25  C3  UNL     1      11.907  -9.638  22.939  1.00  0.00     0.127 C 
BRANCH  25  26
HETATM   26  C2  UNL     1      12.680  -8.613  23.738  1.00  0.00     0.015 C 
HETATM   27  C1  UNL     1      11.664  -7.748  24.467  1.00  0.00     0.006 C 
ENDBRANCH  25  26
ENDBRANCH  21  25
ENDBRANCH   1  19
BRANCH   7  28
HETATM   28  N6  UNL     1      15.738 -12.349  18.418  1.00  0.00    -0.341 N 
HETATM   29  C19 UNL     1      16.679 -11.989  17.443  1.00  0.00     0.214 C 
HETATM   30  C20 UNL     1      16.191 -11.581  16.070  1.00  0.00     0.117 C 
HETATM   31  O3  UNL     1      17.928 -11.961  17.566  1.00  0.00    -0.274 OA
ATOM     32  H6  UNL     1      14.748 -12.322  18.173  1.00  0.00     0.163 HD
ENDBRANCH   7  28
BRANCH   7  33
HETATM   33  C21 UNL     1      16.909 -11.601  20.321  1.00  0.00     0.204 C 
HETATM   34  O4  UNL     1      16.552 -10.438  20.146  1.00  0.00    -0.646 OA
HETATM   35  O5  UNL     1      18.045 -11.883  21.044  1.00  0.00    -0.646 OA
ENDBRANCH   7  33
TORSDOF 8
ENDMDL
MODEL 4
REMARK VINA RESULT: -6.716368373      3.391      6.696
REMARK  8 active torsions:
REMARK  status: ('A' for Active; 'I' for Inactive)
REMARK    1  A    between atoms: C2_2  and  C3_3 
REMARK    2  A    between atoms: C3_3  and  N1_4 
REMARK       I    between atoms: N1_4  and  C5_6 
REMARK       I    between atoms: C5_6  and  N2_8 
REMARK    3  A    between atoms: N2_8  and  C6_10 
REMARK    4  A    between atoms: N3_12  and  C8_13 
REMARK    5  A    between atoms: C8_13  and  O2_14 
REMARK    6  A    between atoms: C8_13  and  N4_16 
REMARK    7  A    between atoms: C18_27  and  N6_28 
REMARK    8  A    between atoms: C18_27  and  C21_33 
REMARK       I    between atoms: N6_28  and  C19_30 
ROOT
HETATM    1  C6  UNL     1      14.851 -12.953  19.664  1.00  0.00     0.143 C 
HETATM    2  C7  UNL     1      13.932 -14.015  19.226  1.00  0.00     0.154 C 
HETATM    3  N3  UNL     1      14.640 -15.240  18.777  1.00  0.00    -0.345 N 
HETATM    4  C15 UNL     1      15.257 -15.431  17.519  1.00  0.00     0.126 C 
HETATM    5  C16 UNL     1      16.598 -14.726  17.397  1.00  0.00     0.023 C 
HETATM    6  C17 UNL     1      16.867 -13.967  18.630  1.00  0.00     0.046 C 
HETATM    7  C18 UNL     1      16.086 -12.725  18.783  1.00  0.00     0.143 C 
ENDROOT
BRANCH   3   8
HETATM    8  C8  UNL     1      14.622 -16.226  19.746  1.00  0.00     0.217 C 
BRANCH   8   9
HETATM    9  O2  UNL     1      15.665 -16.182  20.595  1.00  0.00    -0.333 OA
ATOM     10  H2  UNL     1      16.017 -17.034  20.821  1.00  0.00     0.220 HD
ENDBRANCH   8   9
BRANCH   8  11
HETATM   11  N4  UNL     1      13.759 -17.269  20.049  1.00  0.00    -0.344 N 
HETATM   12  C9  UNL     1      14.188 -18.683  19.729  1.00  0.00     0.154 C 
HETATM   13  C10 UNL     1      13.208 -19.150  18.687  1.00  0.00     0.256 C 
HETATM   14  N5  UNL     1      11.868 -19.212  19.244  1.00  0.00    -0.072 N 
HETATM   15  C11 UNL     1      11.512 -20.611  19.380  1.00  0.00     0.272 C 
HETATM   16  C12 UNL     1      10.963 -18.600  18.301  1.00  0.00     0.272 C 
HETATM   17  C13 UNL     1      11.789 -18.613  20.542  1.00  0.00     0.256 C 
HETATM   18  C14 UNL     1      12.449 -17.238  20.624  1.00  0.00     0.154 C 
ENDBRANCH   8  11
ENDBRANCH   3   8
BRANCH   1  19
HETATM   19  N2  UNL     1      14.162 -11.707  19.898  1.00  0.00    -0.334 N 
HETATM   20  C5  UNL     1      13.907 -11.264  21.214  1.00  0.00     0.318 C 
HETATM   21  N1  UNL     1      13.235 -10.042  21.501  1.00  0.00    -0.339 N 
HETATM   22  O1  UNL     1      14.294 -11.984  22.171  1.00  0.00    -0.247 OA
HETATM   23  C4  UNL     1      12.772  -9.191  20.444  1.00  0.00     0.154 C 
ATOM     24  H2  UNL     1      13.856 -11.142  19.106  1.00  0.00     0.164 HD
BRANCH  21  25
HETATM   25  C3  UNL     1      13.007  -9.641  22.867  1.00  0.00     0.127 C 
BRANCH  25  26
HETATM   26  C2  UNL     1      11.575  -9.856  23.304  1.00  0.00     0.015 C 
HETATM   27  C1  UNL     1      11.553 -11.095  24.186  1.00  0.00     0.006 C 
ENDBRANCH  25  26
ENDBRANCH  21  25
ENDBRANCH   1  19
BRANCH   7  28
HETATM   28  N6  UNL     1      15.720 -12.035  17.584  1.00  0.00    -0.341 N 
HETATM   29  C19 UNL     1      16.662 -11.589  16.647  1.00  0.00     0.214 C 
HETATM   30  C20 UNL     1      16.176 -10.872  15.406  1.00  0.00     0.117 C 
HETATM   31  O3  UNL     1      17.910 -11.713  16.705  1.00  0.00    -0.274 OA
ATOM     32  H6  UNL     1      14.732 -11.860  17.404  1.00  0.00     0.163 HD
ENDBRANCH   7  28
BRANCH   7  33
HETATM   33  C21 UNL     1      16.984 -11.775  19.557  1.00  0.00     0.204 C 
HETATM   34  O4  UNL     1      16.710 -10.578  19.633  1.00  0.00    -0.646 OA
HETATM   35  O5  UNL     1      18.110 -12.274  20.168  1.00  0.00    -0.646 OA
ENDBRANCH   7  33
TORSDOF 8
ENDMDL
MODEL 5
REMARK VINA RESULT: -6.708803925      3.115      6.080
REMARK  8 active torsions:
REMARK  status: ('A' for Active; 'I' for Inactive)
REMARK    1  A    between atoms: C2_2  and  C3_3 
REMARK    2  A    between atoms: C3_3  and  N1_4 
REMARK       I    between atoms: N1_4  and  C5_6 
REMARK       I    between atoms: C5_6  and  N2_8 
REMARK    3  A    between atoms: N2_8  and  C6_10 
REMARK    4  A    between atoms: N3_12  and  C8_13 
REMARK    5  A    between atoms: C8_13  and  O2_14 
REMARK    6  A    between atoms: C8_13  and  N4_16 
REMARK    7  A    between atoms: C18_27  and  N6_28 
REMARK    8  A    between atoms: C18_27  and  C21_33 
REMARK       I    between atoms: N6_28  and  C19_30 
ROOT
HETATM    1  C6  UNL     1      15.882 -13.875  20.294  1.00  0.00     0.143 C 
HETATM    2  C7  UNL     1      15.374 -14.842  21.279  1.00  0.00     0.154 C 
HETATM    3  N3  UNL     1      14.016 -15.340  20.949  1.00  0.00    -0.345 N 
HETATM    4  C15 UNL     1      12.799 -14.657  21.182  1.00  0.00     0.126 C 
HETATM    5  C16 UNL     1      12.533 -13.548  20.176  1.00  0.00     0.023 C 
HETATM    6  C17 UNL     1      13.674 -13.444  19.249  1.00  0.00     0.046 C 
HETATM    7  C18 UNL     1      14.883 -12.817  19.812  1.00  0.00     0.143 C 
ENDROOT
BRANCH   3   8
HETATM    8  C8  UNL     1      14.055 -16.601  20.380  1.00  0.00     0.217 C 
BRANCH   8   9
HETATM    9  O2  UNL     1      15.235 -17.232  20.526  1.00  0.00    -0.333 OA
ATOM     10  H2  UNL     1      15.192 -18.170  20.389  1.00  0.00     0.220 HD
ENDBRANCH   8   9
BRANCH   8  11
HETATM   11  N4  UNL     1      13.142 -17.376  19.683  1.00  0.00    -0.344 N 
HETATM   12  C9  UNL     1      13.535 -17.919  18.328  1.00  0.00     0.154 C 
HETATM   13  C10 UNL     1      12.591 -17.253  17.364  1.00  0.00     0.256 C 
HETATM   14  N5  UNL     1      11.224 -17.667  17.624  1.00  0.00    -0.072 N 
HETATM   15  C11 UNL     1      10.811 -18.532  16.537  1.00  0.00     0.272 C 
HETATM   16  C12 UNL     1      10.390 -16.489  17.613  1.00  0.00     0.272 C 
HETATM   17  C13 UNL     1      11.102 -18.409  18.843  1.00  0.00     0.256 C 
HETATM   18  C14 UNL     1      11.806 -17.755  20.031  1.00  0.00     0.154 C 
ENDBRANCH   8  11
ENDBRANCH   3   8
BRANCH   1  19
HETATM   19  N2  UNL     1      17.106 -13.250  20.736  1.00  0.00    -0.334 N 
HETATM   20  C5  UNL     1      18.323 -13.502  20.067  1.00  0.00     0.318 C 
HETATM   21  N1  UNL     1      19.558 -12.909  20.459  1.00  0.00    -0.339 N 
HETATM   22  O1  UNL     1      18.311 -14.285  19.082  1.00  0.00    -0.247 OA
HETATM   23  C4  UNL     1      19.621 -12.015  21.577  1.00  0.00     0.154 C 
ATOM     24  H2  UNL     1      17.091 -12.620  21.538  1.00  0.00     0.164 HD
BRANCH  21  25
HETATM   25  C3  UNL     1      20.767 -13.204  19.733  1.00  0.00     0.127 C 
BRANCH  25  26
HETATM   26  C2  UNL     1      21.202 -12.062  18.841  1.00  0.00     0.015 C 
HETATM   27  C1  UNL     1      20.755 -12.397  17.426  1.00  0.00     0.006 C 
ENDBRANCH  25  26
ENDBRANCH  21  25
ENDBRANCH   1  19
BRANCH   7  28
HETATM   28  N6  UNL     1      14.690 -11.820  20.821  1.00  0.00    -0.341 N 
HETATM   29  C19 UNL     1      14.006 -10.620  20.583  1.00  0.00     0.214 C 
HETATM   30  C20 UNL     1      13.849  -9.630  21.717  1.00  0.00     0.117 C 
HETATM   31  O3  UNL     1      13.485 -10.243  19.505  1.00  0.00    -0.274 OA
ATOM     32  H6  UNL     1      15.065 -11.991  21.754  1.00  0.00     0.163 HD
ENDBRANCH   7  28
BRANCH   7  33
HETATM   33  C21 UNL     1      15.552 -12.108  18.647  1.00  0.00     0.204 C 
HETATM   34  O4  UNL     1      15.235 -12.371  17.489  1.00  0.00    -0.646 OA
HETATM   35  O5  UNL     1      16.522 -11.168  18.909  1.00  0.00    -0.646 OA
ENDBRANCH   7  33
TORSDOF 8
ENDMDL
