MODEL 1
REMARK VINA RESULT: -8.415770962      0.000      0.000
REMARK  5 active torsions:
REMARK  status: ('A' for Active; 'I' for Inactive)
REMARK    1  A    between atoms: C11_11  and  C12_12 
REMARK       I    between atoms: C12_12  and  N1_14 
REMARK    2  A    between atoms: N1_14  and  C13_15 
REMARK    3  A    between atoms: N1_14  and  C15_19 
REMARK    4  A    between atoms: C13_15  and  C14_16 
REMARK    5  A    between atoms: C15_19  and  C16_20 
ROOT
HETATM    1  C1  UNL     1      28.645  10.947  31.899  1.00  0.00     0.011 C 
HETATM    2  C2  UNL     1      27.183  10.920  32.116  1.00  0.00    -0.010 C 
HETATM    3  C3  UNL     1      26.612   9.582  32.465  1.00  0.00     0.005 C 
HETATM    4  C4  UNL     1      25.115   9.849  32.250  1.00  0.00     0.006 C 
HETATM    5  C5  UNL     1      25.167  10.489  30.855  1.00  0.00    -0.002 C 
HETATM    6  C6  UNL     1      23.905  11.095  30.427  1.00  0.00    -0.005 C 
HETATM    7  C7  UNL     1      22.718  10.417  31.124  1.00  0.00     0.006 C 
HETATM    8  C8  UNL     1      21.509  11.334  31.154  1.00  0.00     0.011 C 
HETATM    9  C9  UNL     1      21.808  12.467  32.107  1.00  0.00    -0.028 C 
HETATM   10  C10 UNL     1      21.610  12.004  33.504  1.00  0.00     0.016 C 
HETATM   11  C11 UNL     1      20.947  13.642  31.694  1.00  0.00     0.086 C 
HETATM   12  C20 UNL     1      21.678  14.751  32.452  1.00  0.00     0.015 C 
HETATM   13  C21 UNL     1      23.096  14.513  31.904  1.00  0.00     0.007 C 
HETATM   14  C22 UNL     1      23.217  12.988  31.931  1.00  0.00    -0.001 C 
HETATM   15  C23 UNL     1      23.741  12.558  30.591  1.00  0.00    -0.005 C 
HETATM   16  C24 UNL     1      24.995  13.291  30.191  1.00  0.00     0.006 C 
HETATM   17  C25 UNL     1      26.158  12.799  30.994  1.00  0.00     0.010 C 
HETATM   18  C26 UNL     1      26.378  11.338  30.883  1.00  0.00    -0.037 C 
HETATM   19  C27 UNL     1      27.213  11.095  29.619  1.00  0.00     0.016 C 
ENDROOT
BRANCH  11  20
HETATM   20  C12 UNL     1      19.554  13.520  32.089  1.00  0.00     0.225 C 
HETATM   21  O1  UNL     1      19.243  13.163  33.253  1.00  0.00    -0.273 OA
HETATM   22  N1  UNL     1      18.515  13.801  31.178  1.00  0.00    -0.336 N 
BRANCH  22  23
HETATM   23  C13 UNL     1      18.763  14.180  29.808  1.00  0.00     0.225 C 
BRANCH  23  24
HETATM   24  C14 UNL     1      18.230  15.571  29.587  1.00  0.00     0.249 C 
HETATM   25  N2  UNL     1      17.209  15.762  28.625  1.00  0.00    -0.061 NA
HETATM   26  O2  UNL     1      18.661  16.538  30.219  1.00  0.00    -0.275 OA
ENDBRANCH  23  24
ENDBRANCH  22  23
BRANCH  22  27
HETATM   27  C15 UNL     1      17.114  13.703  31.624  1.00  0.00     0.203 C 
BRANCH  27  28
HETATM   28  C16 UNL     1      16.355  12.680  30.880  1.00  0.00     0.101 A 
HETATM   29  N3  UNL     1      16.101  12.741  29.561  1.00  0.00    -0.353 N 
HETATM   30  C17 UNL     1      15.387  11.660  29.204  1.00  0.00     0.106 A 
ATOM     31  H3  UNL     1      16.402  13.486  28.934  1.00  0.00     0.166 HD
HETATM   32  C18 UNL     1      15.199  10.919  30.343  1.00  0.00     0.108 A 
HETATM   33  N4  UNL     1      15.800  11.557  31.364  1.00  0.00    -0.348 N 
HETATM   34  C19 UNL     1      15.796  11.054  32.725  1.00  0.00     0.157 C 
ENDBRANCH  27  28
ENDBRANCH  22  27
ENDBRANCH  11  20
TORSDOF 5
ENDMDL
MODEL 2
REMARK VINA RESULT: -8.389447815      5.709      7.932
REMARK  5 active torsions:
REMARK  status: ('A' for Active; 'I' for Inactive)
REMARK    1  A    between atoms: C11_11  and  C12_12 
REMARK       I    between atoms: C12_12  and  N1_14 
REMARK    2  A    between atoms: N1_14  and  C13_15 
REMARK    3  A    between atoms: N1_14  and  C15_19 
REMARK    4  A    between atoms: C13_15  and  C14_16 
REMARK    5  A    between atoms: C15_19  and  C16_20 
ROOT
HETATM    1  C1  UNL     1      25.378   9.953  32.217  1.00  0.00     0.011 C 
HETATM    2  C2  UNL     1      25.074  11.399  32.268  1.00  0.00    -0.010 C 
HETATM    3  C3  UNL     1      23.619  11.747  32.315  1.00  0.00     0.005 C 
HETATM    4  C4  UNL     1      23.677  13.247  31.991  1.00  0.00     0.006 C 
HETATM    5  C5  UNL     1      24.571  13.205  30.743  1.00  0.00    -0.002 C 
HETATM    6  C6  UNL     1      25.035  14.519  30.295  1.00  0.00    -0.005 C 
HETATM    7  C7  UNL     1      24.055  15.615  30.732  1.00  0.00     0.006 C 
HETATM    8  C8  UNL     1      24.741  16.967  30.791  1.00  0.00     0.011 C 
HETATM    9  C9  UNL     1      25.706  16.948  31.954  1.00  0.00    -0.028 C 
HETATM   10  C10 UNL     1      24.959  17.165  33.220  1.00  0.00     0.016 C 
HETATM   11  C11 UNL     1      26.782  17.971  31.663  1.00  0.00     0.086 C 
HETATM   12  C20 UNL     1      27.830  17.509  32.677  1.00  0.00     0.015 C 
HETATM   13  C21 UNL     1      27.933  16.035  32.250  1.00  0.00     0.007 C 
HETATM   14  C22 UNL     1      26.471  15.645  32.024  1.00  0.00    -0.001 C 
HETATM   15  C23 UNL     1      26.394  14.954  30.693  1.00  0.00    -0.005 C 
HETATM   16  C24 UNL     1      27.383  13.824  30.563  1.00  0.00     0.006 C 
HETATM   17  C25 UNL     1      26.942  12.656  31.388  1.00  0.00     0.010 C 
HETATM   18  C26 UNL     1      25.583  12.170  31.048  1.00  0.00    -0.037 C 
HETATM   19  C27 UNL     1      25.723  11.213  29.857  1.00  0.00     0.016 C 
ENDROOT
BRANCH  11  20
HETATM   20  C12 UNL     1      26.364  19.346  31.880  1.00  0.00     0.225 C 
HETATM   21  O1  UNL     1      26.429  19.867  33.021  1.00  0.00    -0.273 OA
HETATM   22  N1  UNL     1      25.875  20.130  30.815  1.00  0.00    -0.336 N 
BRANCH  22  23
HETATM   23  C13 UNL     1      25.722  19.616  29.475  1.00  0.00     0.225 C 
BRANCH  23  24
HETATM   24  C14 UNL     1      26.537  20.466  28.535  1.00  0.00     0.249 C 
HETATM   25  N2  UNL     1      25.860  21.329  27.640  1.00  0.00    -0.061 NA
HETATM   26  O2  UNL     1      27.770  20.426  28.529  1.00  0.00    -0.275 OA
ENDBRANCH  23  24
ENDBRANCH  22  23
BRANCH  22  27
HETATM   27  C15 UNL     1      25.496  21.533  31.063  1.00  0.00     0.203 C 
BRANCH  27  28
HETATM   28  C16 UNL     1      24.039  21.748  30.969  1.00  0.00     0.101 A 
HETATM   29  N3  UNL     1      23.416  22.220  29.874  1.00  0.00    -0.353 N 
HETATM   30  C17 UNL     1      22.098  22.300  30.122  1.00  0.00     0.106 A 
ATOM     31  H3  UNL     1      23.871  22.475  28.998  1.00  0.00     0.166 HD
HETATM   32  C18 UNL     1      21.914  21.865  31.410  1.00  0.00     0.108 A 
HETATM   33  N4  UNL     1      23.114  21.528  31.917  1.00  0.00    -0.348 N 
HETATM   34  C19 UNL     1      23.292  21.028  33.267  1.00  0.00     0.157 C 
ENDBRANCH  27  28
ENDBRANCH  22  27
ENDBRANCH  11  20
TORSDOF 5
ENDMDL
MODEL 3
REMARK VINA RESULT: -8.380325831      4.082      8.790
REMARK  5 active torsions:
REMARK  status: ('A' for Active; 'I' for Inactive)
REMARK    1  A    between atoms: C11_11  and  C12_12 
REMARK       I    between atoms: C12_12  and  N1_14 
REMARK    2  A    between atoms: N1_14  and  C13_15 
REMARK    3  A    between atoms: N1_14  and  C15_19 
REMARK    4  A    between atoms: C13_15  and  C14_16 
REMARK    5  A    between atoms: C15_19  and  C16_20 
ROOT
HETATM    1  C1  UNL     1      15.707  12.853  32.586  1.00  0.00     0.011 C 
HETATM    2  C2  UNL     1      16.994  12.933  31.862  1.00  0.00    -0.010 C 
HETATM    3  C3  UNL     1      16.975  12.407  30.461  1.00  0.00     0.005 C 
HETATM    4  C4  UNL     1      18.481  12.305  30.177  1.00  0.00     0.006 C 
HETATM    5  C5  UNL     1      18.927  11.547  31.436  1.00  0.00    -0.002 C 
HETATM    6  C6  UNL     1      20.379  11.481  31.611  1.00  0.00    -0.005 C 
HETATM    7  C7  UNL     1      21.092  11.588  30.257  1.00  0.00     0.006 C 
HETATM    8  C8  UNL     1      22.517  12.077  30.429  1.00  0.00     0.011 C 
HETATM    9  C9  UNL     1      22.463  13.527  30.853  1.00  0.00    -0.028 C 
HETATM   10  C10 UNL     1      22.213  14.381  29.665  1.00  0.00     0.016 C 
HETATM   11  C11 UNL     1      23.747  13.826  31.597  1.00  0.00     0.086 C 
HETATM   12  C20 UNL     1      23.327  15.126  32.284  1.00  0.00     0.015 C 
HETATM   13  C21 UNL     1      22.050  14.621  32.978  1.00  0.00     0.007 C 
HETATM   14  C22 UNL     1      21.393  13.764  31.895  1.00  0.00    -0.001 C 
HETATM   15  C23 UNL     1      21.018  12.455  32.527  1.00  0.00    -0.005 C 
HETATM   16  C24 UNL     1      20.207  12.625  33.786  1.00  0.00     0.006 C 
HETATM   17  C25 UNL     1      18.814  13.056  33.447  1.00  0.00     0.010 C 
HETATM   18  C26 UNL     1      18.115  12.129  32.526  1.00  0.00    -0.037 C 
HETATM   19  C27 UNL     1      17.507  11.008  33.378  1.00  0.00     0.016 C 
ENDROOT
BRANCH  11  20
HETATM   20  C12 UNL     1      24.903  13.999  30.734  1.00  0.00     0.225 C 
HETATM   21  O1  UNL     1      24.983  14.980  29.953  1.00  0.00    -0.273 OA
HETATM   22  N1  UNL     1      25.965  13.072  30.750  1.00  0.00    -0.336 N 
BRANCH  22  23
HETATM   23  C13 UNL     1      25.955  11.891  31.580  1.00  0.00     0.225 C 
BRANCH  23  24
HETATM   24  C14 UNL     1      26.139  10.681  30.702  1.00  0.00     0.249 C 
HETATM   25  N2  UNL     1      27.123   9.726  31.058  1.00  0.00    -0.061 NA
HETATM   26  O2  UNL     1      25.458  10.505  29.689  1.00  0.00    -0.275 OA
ENDBRANCH  23  24
ENDBRANCH  22  23
BRANCH  22  27
HETATM   27  C15 UNL     1      27.139  13.299  29.888  1.00  0.00     0.203 C 
BRANCH  27  28
HETATM   28  C16 UNL     1      28.127  14.203  30.508  1.00  0.00     0.101 A 
HETATM   29  N3  UNL     1      28.170  15.530  30.296  1.00  0.00    -0.353 N 
HETATM   30  C17 UNL     1      29.187  16.052  31.003  1.00  0.00     0.106 A 
ATOM     31  H3  UNL     1      27.535  16.056  29.697  1.00  0.00     0.166 HD
HETATM   32  C18 UNL     1      29.782  15.007  31.664  1.00  0.00     0.108 A 
HETATM   33  N4  UNL     1      29.119  13.879  31.352  1.00  0.00    -0.348 N 
HETATM   34  C19 UNL     1      29.484  12.575  31.874  1.00  0.00     0.157 C 
ENDBRANCH  27  28
ENDBRANCH  22  27
ENDBRANCH  11  20
TORSDOF 5
ENDMDL
MODEL 4
REMARK VINA RESULT: -8.355315273      5.237      9.596
REMARK  5 active torsions:
REMARK  status: ('A' for Active; 'I' for Inactive)
REMARK    1  A    between atoms: C11_11  and  C12_12 
REMARK       I    between atoms: C12_12  and  N1_14 
REMARK    2  A    between atoms: N1_14  and  C13_15 
REMARK    3  A    between atoms: N1_14  and  C15_19 
REMARK    4  A    between atoms: C13_15  and  C14_16 
REMARK    5  A    between atoms: C15_19  and  C16_20 
ROOT
HETATM    1  C1  UNL     1      18.093  12.259  31.245  1.00  0.00     0.011 C 
HETATM    2  C2  UNL     1      19.524  11.897  31.178  1.00  0.00    -0.010 C 
HETATM    3  C3  UNL     1      19.822  10.435  31.296  1.00  0.00     0.005 C 
HETATM    4  C4  UNL     1      21.336  10.475  31.557  1.00  0.00     0.006 C 
HETATM    5  C5  UNL     1      21.373  11.514  32.687  1.00  0.00    -0.002 C 
HETATM    6  C6  UNL     1      22.719  11.979  33.028  1.00  0.00    -0.005 C 
HETATM    7  C7  UNL     1      23.764  10.913  32.674  1.00  0.00     0.006 C 
HETATM    8  C8  UNL     1      25.134  11.536  32.483  1.00  0.00     0.011 C 
HETATM    9  C9  UNL     1      25.099  12.354  31.212  1.00  0.00    -0.028 C 
HETATM   10  C10 UNL     1      25.240  11.452  30.040  1.00  0.00     0.016 C 
HETATM   11  C11 UNL     1      26.168  13.419  31.333  1.00  0.00     0.086 C 
HETATM   12  C20 UNL     1      25.700  14.353  30.217  1.00  0.00     0.015 C 
HETATM   13  C21 UNL     1      24.248  14.562  30.680  1.00  0.00     0.007 C 
HETATM   14  C22 UNL     1      23.820  13.154  31.098  1.00  0.00    -0.001 C 
HETATM   15  C23 UNL     1      23.182  13.264  32.451  1.00  0.00    -0.005 C 
HETATM   16  C24 UNL     1      22.091  14.302  32.501  1.00  0.00     0.006 C 
HETATM   17  C25 UNL     1      20.877  13.809  31.779  1.00  0.00     0.010 C 
HETATM   18  C26 UNL     1      20.361  12.521  32.299  1.00  0.00    -0.037 C 
HETATM   19  C27 UNL     1      19.457  12.839  33.498  1.00  0.00     0.016 C 
ENDROOT
BRANCH  11  20
HETATM   20  C12 UNL     1      27.518  12.926  31.120  1.00  0.00     0.225 C 
HETATM   21  O1  UNL     1      27.727  11.892  30.437  1.00  0.00    -0.273 OA
HETATM   22  N1  UNL     1      28.630  13.595  31.671  1.00  0.00    -0.336 N 
BRANCH  22  23
HETATM   23  C13 UNL     1      28.498  14.768  32.503  1.00  0.00     0.225 C 
BRANCH  23  24
HETATM   24  C14 UNL     1      29.048  15.954  31.756  1.00  0.00     0.249 C 
HETATM   25  N2  UNL     1      29.940  16.826  32.428  1.00  0.00    -0.061 NA
HETATM   26  O2  UNL     1      28.741  16.182  30.584  1.00  0.00    -0.275 OA
ENDBRANCH  23  24
ENDBRANCH  22  23
BRANCH  22  27
HETATM   27  C15 UNL     1      29.988  13.089  31.402  1.00  0.00     0.203 C 
BRANCH  27  28
HETATM   28  C16 UNL     1      30.742  12.814  32.640  1.00  0.00     0.101 A 
HETATM   29  N3  UNL     1      30.388  11.888  33.548  1.00  0.00    -0.353 N 
HETATM   30  C17 UNL     1      31.281  11.897  34.553  1.00  0.00     0.106 A 
ATOM     31  H3  UNL     1      29.574  11.277  33.485  1.00  0.00     0.166 HD
HETATM   32  C18 UNL     1      32.206  12.862  34.245  1.00  0.00     0.108 A 
HETATM   33  N4  UNL     1      31.863  13.416  33.068  1.00  0.00    -0.348 N 
HETATM   34  C19 UNL     1      32.625  14.479  32.441  1.00  0.00     0.157 C 
ENDBRANCH  27  28
ENDBRANCH  22  27
ENDBRANCH  11  20
TORSDOF 5
ENDMDL
MODEL 5
REMARK VINA RESULT: -8.185388547      2.811      4.351
REMARK  5 active torsions:
REMARK  status: ('A' for Active; 'I' for Inactive)
REMARK    1  A    between atoms: C11_11  and  C12_12 
REMARK       I    between atoms: C12_12  and  N1_14 
REMARK    2  A    between atoms: N1_14  and  C13_15 
REMARK    3  A    between atoms: N1_14  and  C15_19 
REMARK    4  A    between atoms: C13_15  and  C14_16 
REMARK    5  A    between atoms: C15_19  and  C16_20 
ROOT
HETATM    1  C1  UNL     1      26.985   9.569  32.627  1.00  0.00     0.011 C 
HETATM    2  C2  UNL     1      25.748  10.376  32.575  1.00  0.00    -0.010 C 
HETATM    3  C3  UNL     1      24.474   9.612  32.758  1.00  0.00     0.005 C 
HETATM    4  C4  UNL     1      23.449  10.654  32.286  1.00  0.00     0.006 C 
HETATM    5  C5  UNL     1      24.092  11.060  30.952  1.00  0.00    -0.002 C 
HETATM    6  C6  UNL     1      23.484  12.236  30.329  1.00  0.00    -0.005 C 
HETATM    7  C7  UNL     1      22.022  12.386  30.770  1.00  0.00     0.006 C 
HETATM    8  C8  UNL     1      21.552  13.820  30.618  1.00  0.00     0.011 C 
HETATM    9  C9  UNL     1      22.264  14.655  31.657  1.00  0.00    -0.028 C 
HETATM   10  C10 UNL     1      21.602  14.477  32.974  1.00  0.00     0.016 C 
HETATM   11  C11 UNL     1      22.297  16.079  31.145  1.00  0.00     0.086 C 
HETATM   12  C20 UNL     1      23.379  16.640  32.069  1.00  0.00     0.015 C 
HETATM   13  C21 UNL     1      24.489  15.615  31.777  1.00  0.00     0.007 C 
HETATM   14  C22 UNL     1      23.728  14.288  31.761  1.00  0.00    -0.001 C 
HETATM   15  C23 UNL     1      24.143  13.550  30.521  1.00  0.00    -0.005 C 
HETATM   16  C24 UNL     1      25.639  13.429  30.386  1.00  0.00     0.006 C 
HETATM   17  C25 UNL     1      26.165  12.427  31.366  1.00  0.00     0.010 C 
HETATM   18  C26 UNL     1      25.544  11.088  31.234  1.00  0.00    -0.037 C 
HETATM   19  C27 UNL     1      26.303  10.336  30.133  1.00  0.00     0.016 C 
ENDROOT
BRANCH  11  20
HETATM   20  C12 UNL     1      21.032  16.782  31.275  1.00  0.00     0.225 C 
HETATM   21  O1  UNL     1      20.778  17.469  32.296  1.00  0.00    -0.273 OA
HETATM   22  N1  UNL     1      20.057  16.714  30.259  1.00  0.00    -0.336 N 
BRANCH  22  23
HETATM   23  C13 UNL     1      20.231  15.923  29.065  1.00  0.00     0.225 C 
BRANCH  23  24
HETATM   24  C14 UNL     1      18.935  15.220  28.757  1.00  0.00     0.249 C 
HETATM   25  N2  UNL     1      18.409  15.309  27.445  1.00  0.00    -0.061 NA
HETATM   26  O2  UNL     1      18.328  14.574  29.615  1.00  0.00    -0.275 OA
ENDBRANCH  23  24
ENDBRANCH  22  23
BRANCH  22  27
HETATM   27  C15 UNL     1      18.800  17.471  30.408  1.00  0.00     0.203 C 
BRANCH  27  28
HETATM   28  C16 UNL     1      18.899  18.839  29.866  1.00  0.00     0.101 A 
HETATM   29  N3  UNL     1      19.602  19.830  30.443  1.00  0.00    -0.353 N 
HETATM   30  C17 UNL     1      19.479  20.943  29.701  1.00  0.00     0.106 A 
ATOM     31  H3  UNL     1      20.141  19.750  31.306  1.00  0.00     0.166 HD
HETATM   32  C18 UNL     1      18.674  20.619  28.639  1.00  0.00     0.108 A 
HETATM   33  N4  UNL     1      18.327  19.324  28.753  1.00  0.00    -0.348 N 
HETATM   34  C19 UNL     1      17.472  18.646  27.797  1.00  0.00     0.157 C 
ENDBRANCH  27  28
ENDBRANCH  22  27
ENDBRANCH  11  20
TORSDOF 5
ENDMDL
