MODEL 1
REMARK VINA RESULT: -9.096857527      0.000      0.000
REMARK  7 active torsions:
REMARK  status: ('A' for Active; 'I' for Inactive)
REMARK    1  A    between atoms: C2_2  and  N1_3 
REMARK    2  A    between atoms: N1_3  and  C3_4 
REMARK       I    between atoms: N1_3  and  C5_6 
REMARK    3  A    between atoms: C5_6  and  C6_8 
REMARK    4  A    between atoms: C6_8  and  C7_9 
REMARK    5  A    between atoms: C18_20  and  O2_21 
REMARK    6  A    between atoms: O2_21  and  S1_22 
REMARK    7  A    between atoms: S1_22  and  N2_23 
ROOT
HETATM    1  C7  UNL     1      20.727  11.124  32.735  1.00  0.00     0.003 C 
HETATM    2  C8  UNL     1      22.002  11.169  33.573  1.00  0.00     0.039 C 
HETATM    3  C9  UNL     1      22.974  11.882  32.664  1.00  0.00    -0.078 C 
HETATM    4  C10 UNL     1      23.966  12.757  32.610  1.00  0.00    -0.013 C 
HETATM    5  C11 UNL     1      24.383  12.895  31.215  1.00  0.00    -0.014 C 
HETATM    6  C12 UNL     1      25.488  11.855  30.979  1.00  0.00     0.021 C 
HETATM    7  C13 UNL     1      23.199  12.443  30.434  1.00  0.00     0.007 C 
HETATM    8  C14 UNL     1      22.172  13.467  30.129  1.00  0.00     0.007 C 
HETATM    9  C15 UNL     1      22.858  14.674  29.471  1.00  0.00     0.006 C 
HETATM   10  C16 UNL     1      23.798  15.211  30.557  1.00  0.00    -0.003 C 
HETATM   11  C17 UNL     1      24.272  16.552  30.118  1.00  0.00     0.039 C 
HETATM   12  C18 UNL     1      25.402  17.069  30.983  1.00  0.00     0.144 C 
HETATM   13  C19 UNL     1      25.479  16.272  32.238  1.00  0.00     0.034 C 
HETATM   14  C20 UNL     1      25.839  14.834  31.833  1.00  0.00     0.013 C 
HETATM   15  C21 UNL     1      24.906  14.252  30.840  1.00  0.00    -0.029 C 
HETATM   16  C22 UNL     1      25.678  14.063  29.529  1.00  0.00     0.016 C 
HETATM   17  C23 UNL     1      22.639  11.368  31.330  1.00  0.00     0.023 C 
HETATM   18  C24 UNL     1      21.182  11.165  31.303  1.00  0.00    -0.005 C 
HETATM   19  C25 UNL     1      20.800   9.842  30.640  1.00  0.00     0.011 C 
ENDROOT
BRANCH   1  20
HETATM   20  C6  UNL     1      19.789  12.218  33.129  1.00  0.00     0.108 C 
BRANCH  20  21
HETATM   21  C5  UNL     1      18.417  11.749  33.413  1.00  0.00     0.220 C 
HETATM   22  N1  UNL     1      17.395  11.773  32.411  1.00  0.00    -0.353 N 
HETATM   23  O1  UNL     1      18.089  11.310  34.542  1.00  0.00    -0.273 OA
BRANCH  22  24
HETATM   24  C2  UNL     1      16.067  11.295  32.719  1.00  0.00     0.121 C 
HETATM   25  C1  UNL     1      15.191  11.262  31.477  1.00  0.00     0.026 C 
ENDBRANCH  22  24
BRANCH  22  26
HETATM   26  C3  UNL     1      17.657  12.266  31.090  1.00  0.00     0.121 C 
HETATM   27  C4  UNL     1      17.339  13.710  30.880  1.00  0.00     0.026 C 
ENDBRANCH  22  26
ENDBRANCH  20  21
ENDBRANCH   1  20
BRANCH  12  28
HETATM   28  O2  UNL     1      25.244  18.411  31.142  1.00  0.00    -0.254 OA
BRANCH  28  29
HETATM   29  S1  UNL     1      26.219  19.362  30.190  1.00  0.00     0.355 S 
HETATM   30  O3  UNL     1      27.358  19.974  30.992  1.00  0.00    -0.176 OA
HETATM   31  O4  UNL     1      25.474  20.406  29.417  1.00  0.00    -0.176 OA
BRANCH  29  32
HETATM   32  N2  UNL     1      26.983  18.318  29.025  1.00  0.00    -0.306 N 
ATOM     33  H22 UNL     1      26.811  17.318  28.922  1.00  0.00     0.171 HD
ATOM     34  H21 UNL     1      27.623  18.892  28.477  1.00  0.00     0.171 HD
ENDBRANCH  29  32
ENDBRANCH  28  29
ENDBRANCH  12  28
TORSDOF 7
ENDMDL
MODEL 2
REMARK VINA RESULT: -8.599833616      3.820      7.570
REMARK  7 active torsions:
REMARK  status: ('A' for Active; 'I' for Inactive)
REMARK    1  A    between atoms: C2_2  and  N1_3 
REMARK    2  A    between atoms: N1_3  and  C3_4 
REMARK       I    between atoms: N1_3  and  C5_6 
REMARK    3  A    between atoms: C5_6  and  C6_8 
REMARK    4  A    between atoms: C6_8  and  C7_9 
REMARK    5  A    between atoms: C18_20  and  O2_21 
REMARK    6  A    between atoms: O2_21  and  S1_22 
REMARK    7  A    between atoms: S1_22  and  N2_23 
ROOT
HETATM    1  C7  UNL     1      27.155  10.900  30.317  1.00  0.00     0.003 C 
HETATM    2  C8  UNL     1      26.158  10.411  29.270  1.00  0.00     0.039 C 
HETATM    3  C9  UNL     1      24.825  10.756  29.891  1.00  0.00    -0.078 C 
HETATM    4  C10 UNL     1      23.598  11.192  29.654  1.00  0.00    -0.013 C 
HETATM    5  C11 UNL     1      22.873  11.243  30.922  1.00  0.00    -0.014 C 
HETATM    6  C12 UNL     1      22.192   9.879  31.098  1.00  0.00     0.021 C 
HETATM    7  C13 UNL     1      23.946  11.319  31.953  1.00  0.00     0.007 C 
HETATM    8  C14 UNL     1      24.447  12.672  32.293  1.00  0.00     0.007 C 
HETATM    9  C15 UNL     1      23.251  13.565  32.654  1.00  0.00     0.006 C 
HETATM   10  C16 UNL     1      22.435  13.642  31.357  1.00  0.00    -0.003 C 
HETATM   11  C17 UNL     1      21.429  14.728  31.524  1.00  0.00     0.039 C 
HETATM   12  C18 UNL     1      20.400  14.727  30.413  1.00  0.00     0.144 C 
HETATM   13  C19 UNL     1      20.883  13.888  29.282  1.00  0.00     0.034 C 
HETATM   14  C20 UNL     1      20.986  12.448  29.805  1.00  0.00     0.013 C 
HETATM   15  C21 UNL     1      21.831  12.321  31.016  1.00  0.00    -0.029 C 
HETATM   16  C22 UNL     1      20.919  11.931  32.185  1.00  0.00     0.016 C 
HETATM   17  C23 UNL     1      25.031  10.485  31.320  1.00  0.00     0.023 C 
HETATM   18  C24 UNL     1      26.422  10.850  31.629  1.00  0.00    -0.005 C 
HETATM   19  C25 UNL     1      27.103   9.811  32.519  1.00  0.00     0.011 C 
ENDROOT
BRANCH   1  20
HETATM   20  C6  UNL     1      27.698  12.243  29.951  1.00  0.00     0.108 C 
BRANCH  20  21
HETATM   21  C5  UNL     1      28.571  12.832  30.988  1.00  0.00     0.220 C 
HETATM   22  N1  UNL     1      28.336  14.145  31.506  1.00  0.00    -0.353 N 
HETATM   23  O1  UNL     1      29.553  12.208  31.458  1.00  0.00    -0.273 OA
BRANCH  22  24
HETATM   24  C2  UNL     1      29.201  14.686  32.530  1.00  0.00     0.121 C 
HETATM   25  C1  UNL     1      30.242  15.620  31.933  1.00  0.00     0.026 C 
ENDBRANCH  22  24
BRANCH  22  26
HETATM   26  C3  UNL     1      27.249  14.951  31.031  1.00  0.00     0.121 C 
HETATM   27  C4  UNL     1      26.532  15.728  32.086  1.00  0.00     0.026 C 
ENDBRANCH  22  26
ENDBRANCH  20  21
ENDBRANCH   1  20
BRANCH  12  28
HETATM   28  O2  UNL     1      20.097  16.018  30.107  1.00  0.00    -0.254 OA
BRANCH  28  29
HETATM   29  S1  UNL     1      18.584  16.262  29.464  1.00  0.00     0.355 S 
HETATM   30  O3  UNL     1      17.537  15.397  30.153  1.00  0.00    -0.176 OA
HETATM   31  O4  UNL     1      18.529  16.104  27.976  1.00  0.00    -0.176 OA
BRANCH  29  32
HETATM   32  N2  UNL     1      18.131  17.905  29.816  1.00  0.00    -0.306 N 
ATOM     33  H22 UNL     1      17.748  18.239  30.701  1.00  0.00     0.171 HD
ATOM     34  H21 UNL     1      18.319  18.457  28.979  1.00  0.00     0.171 HD
ENDBRANCH  29  32
ENDBRANCH  28  29
ENDBRANCH  12  28
TORSDOF 7
ENDMDL
MODEL 3
REMARK VINA RESULT: -8.550531062      3.144      7.802
REMARK  7 active torsions:
REMARK  status: ('A' for Active; 'I' for Inactive)
REMARK    1  A    between atoms: C2_2  and  N1_3 
REMARK    2  A    between atoms: N1_3  and  C3_4 
REMARK       I    between atoms: N1_3  and  C5_6 
REMARK    3  A    between atoms: C5_6  and  C6_8 
REMARK    4  A    between atoms: C6_8  and  C7_9 
REMARK    5  A    between atoms: C18_20  and  O2_21 
REMARK    6  A    between atoms: O2_21  and  S1_22 
REMARK    7  A    between atoms: S1_22  and  N2_23 
ROOT
HETATM    1  C7  UNL     1      26.824  12.277  29.786  1.00  0.00     0.003 C 
HETATM    2  C8  UNL     1      26.025  11.094  29.244  1.00  0.00     0.039 C 
HETATM    3  C9  UNL     1      24.914  10.949  30.257  1.00  0.00    -0.078 C 
HETATM    4  C10 UNL     1      23.631  10.673  30.427  1.00  0.00    -0.013 C 
HETATM    5  C11 UNL     1      23.326  10.758  31.855  1.00  0.00    -0.014 C 
HETATM    6  C12 UNL     1      23.550   9.356  32.439  1.00  0.00     0.021 C 
HETATM    7  C13 UNL     1      24.404  11.626  32.407  1.00  0.00     0.007 C 
HETATM    8  C14 UNL     1      24.167  13.088  32.366  1.00  0.00     0.007 C 
HETATM    9  C15 UNL     1      22.809  13.386  33.019  1.00  0.00     0.006 C 
HETATM   10  C16 UNL     1      21.792  12.686  32.109  1.00  0.00    -0.003 C 
HETATM   11  C17 UNL     1      20.438  13.175  32.488  1.00  0.00     0.039 C 
HETATM   12  C18 UNL     1      19.336  12.367  31.836  1.00  0.00     0.144 C 
HETATM   13  C19 UNL     1      19.900  11.554  30.725  1.00  0.00     0.034 C 
HETATM   14  C20 UNL     1      20.883  10.556  31.354  1.00  0.00     0.013 C 
HETATM   15  C21 UNL     1      21.929  11.202  32.181  1.00  0.00    -0.029 C 
HETATM   16  C22 UNL     1      21.685  10.802  33.641  1.00  0.00     0.016 C 
HETATM   17  C23 UNL     1      25.574  11.244  31.536  1.00  0.00     0.023 C 
HETATM   18  C24 UNL     1      26.578  12.286  31.269  1.00  0.00    -0.005 C 
HETATM   19  C25 UNL     1      27.902  11.999  31.977  1.00  0.00     0.011 C 
ENDROOT
BRANCH   1  20
HETATM   20  C6  UNL     1      26.455  13.540  29.080  1.00  0.00     0.108 C 
BRANCH  20  21
HETATM   21  C5  UNL     1      26.507  14.739  29.942  1.00  0.00     0.220 C 
HETATM   22  N1  UNL     1      25.384  15.616  30.072  1.00  0.00    -0.353 N 
HETATM   23  O1  UNL     1      27.535  15.037  30.595  1.00  0.00    -0.273 OA
BRANCH  22  24
HETATM   24  C2  UNL     1      25.465  16.773  30.934  1.00  0.00     0.121 C 
HETATM   25  C1  UNL     1      25.779  18.031  30.139  1.00  0.00     0.026 C 
ENDBRANCH  22  24
BRANCH  22  26
HETATM   26  C3  UNL     1      24.163  15.376  29.359  1.00  0.00     0.121 C 
HETATM   27  C4  UNL     1      22.917  15.701  30.116  1.00  0.00     0.026 C 
ENDBRANCH  22  26
ENDBRANCH  20  21
ENDBRANCH   1  20
BRANCH  12  28
HETATM   28  O2  UNL     1      18.324  13.212  31.499  1.00  0.00    -0.254 OA
BRANCH  28  29
HETATM   29  S1  UNL     1      16.796  12.564  31.578  1.00  0.00     0.355 S 
HETATM   30  O3  UNL     1      16.437  11.822  30.298  1.00  0.00    -0.176 OA
HETATM   31  O4  UNL     1      15.738  13.556  31.948  1.00  0.00    -0.176 OA
BRANCH  29  32
HETATM   32  N2  UNL     1      16.812  11.351  32.826  1.00  0.00    -0.306 N 
ATOM     33  H22 UNL     1      17.609  10.763  33.073  1.00  0.00     0.171 HD
ATOM     34  H21 UNL     1      15.887  11.345  33.255  1.00  0.00     0.171 HD
ENDBRANCH  29  32
ENDBRANCH  28  29
ENDBRANCH  12  28
TORSDOF 7
ENDMDL
MODEL 4
REMARK VINA RESULT: -8.522986638      2.234      4.522
REMARK  7 active torsions:
REMARK  status: ('A' for Active; 'I' for Inactive)
REMARK    1  A    between atoms: C2_2  and  N1_3 
REMARK    2  A    between atoms: N1_3  and  C3_4 
REMARK       I    between atoms: N1_3  and  C5_6 
REMARK    3  A    between atoms: C5_6  and  C6_8 
REMARK    4  A    between atoms: C6_8  and  C7_9 
REMARK    5  A    between atoms: C18_20  and  O2_21 
REMARK    6  A    between atoms: O2_21  and  S1_22 
REMARK    7  A    between atoms: S1_22  and  N2_23 
ROOT
HETATM    1  C7  UNL     1      20.853  10.538  32.475  1.00  0.00     0.003 C 
HETATM    2  C8  UNL     1      21.275  10.567  31.009  1.00  0.00     0.039 C 
HETATM    3  C9  UNL     1      21.344  12.046  30.710  1.00  0.00    -0.078 C 
HETATM    4  C10 UNL     1      22.004  12.992  30.061  1.00  0.00    -0.013 C 
HETATM    5  C11 UNL     1      21.357  14.275  30.330  1.00  0.00    -0.014 C 
HETATM    6  C12 UNL     1      20.297  14.474  29.237  1.00  0.00     0.021 C 
HETATM    7  C13 UNL     1      20.617  14.050  31.604  1.00  0.00     0.007 C 
HETATM    8  C14 UNL     1      21.371  14.274  32.860  1.00  0.00     0.007 C 
HETATM    9  C15 UNL     1      22.005  15.672  32.812  1.00  0.00     0.006 C 
HETATM   10  C16 UNL     1      22.991  15.599  31.640  1.00  0.00    -0.003 C 
HETATM   11  C17 UNL     1      23.866  16.802  31.712  1.00  0.00     0.039 C 
HETATM   12  C18 UNL     1      24.707  16.971  30.465  1.00  0.00     0.144 C 
HETATM   13  C19 UNL     1      24.699  15.708  29.678  1.00  0.00     0.034 C 
HETATM   14  C20 UNL     1      23.251  15.475  29.221  1.00  0.00     0.013 C 
HETATM   15  C21 UNL     1      22.276  15.462  30.337  1.00  0.00    -0.029 C 
HETATM   16  C22 UNL     1      21.379  16.696  30.188  1.00  0.00     0.016 C 
HETATM   17  C23 UNL     1      20.215  12.603  31.467  1.00  0.00     0.023 C 
HETATM   18  C24 UNL     1      20.102  11.820  32.707  1.00  0.00    -0.005 C 
HETATM   19  C25 UNL     1      18.650  11.472  33.034  1.00  0.00     0.011 C 
ENDROOT
BRANCH   1  20
HETATM   20  C6  UNL     1      22.034  10.331  33.366  1.00  0.00     0.108 C 
BRANCH  20  21
HETATM   21  C5  UNL     1      23.203   9.747  32.676  1.00  0.00     0.220 C 
HETATM   22  N1  UNL     1      24.324  10.549  32.292  1.00  0.00    -0.353 N 
HETATM   23  O1  UNL     1      23.261   8.525  32.398  1.00  0.00    -0.273 OA
BRANCH  22  24
HETATM   24  C2  UNL     1      25.456   9.941  31.629  1.00  0.00     0.121 C 
HETATM   25  C1  UNL     1      26.583   9.662  32.611  1.00  0.00     0.026 C 
ENDBRANCH  22  24
BRANCH  22  26
HETATM   26  C3  UNL     1      24.355  11.959  32.550  1.00  0.00     0.121 C 
HETATM   27  C4  UNL     1      25.219  12.751  31.624  1.00  0.00     0.026 C 
ENDBRANCH  22  26
ENDBRANCH  20  21
ENDBRANCH   1  20
BRANCH  12  28
HETATM   28  O2  UNL     1      25.933  17.433  30.832  1.00  0.00    -0.254 OA
BRANCH  28  29
HETATM   29  S1  UNL     1      26.360  18.908  30.194  1.00  0.00     0.355 S 
HETATM   30  O3  UNL     1      27.504  19.542  30.972  1.00  0.00    -0.176 OA
HETATM   31  O4  UNL     1      25.211  19.855  30.044  1.00  0.00    -0.176 OA
BRANCH  29  32
HETATM   32  N2  UNL     1      26.990  18.618  28.598  1.00  0.00    -0.306 N 
ATOM     33  H22 UNL     1      27.209  17.703  28.203  1.00  0.00     0.171 HD
ATOM     34  H21 UNL     1      27.094  19.525  28.144  1.00  0.00     0.171 HD
ENDBRANCH  29  32
ENDBRANCH  28  29
ENDBRANCH  12  28
TORSDOF 7
ENDMDL
MODEL 5
REMARK VINA RESULT: -8.439224875      3.717      7.388
REMARK  7 active torsions:
REMARK  status: ('A' for Active; 'I' for Inactive)
REMARK    1  A    between atoms: C2_2  and  N1_3 
REMARK    2  A    between atoms: N1_3  and  C3_4 
REMARK       I    between atoms: N1_3  and  C5_6 
REMARK    3  A    between atoms: C5_6  and  C6_8 
REMARK    4  A    between atoms: C6_8  and  C7_9 
REMARK    5  A    between atoms: C18_20  and  O2_21 
REMARK    6  A    between atoms: O2_21  and  S1_22 
REMARK    7  A    between atoms: S1_22  and  N2_23 
ROOT
HETATM    1  C7  UNL     1      26.417  10.820  30.450  1.00  0.00     0.003 C 
HETATM    2  C8  UNL     1      25.349  10.419  29.436  1.00  0.00     0.039 C 
HETATM    3  C9  UNL     1      24.095  11.031  30.011  1.00  0.00    -0.078 C 
HETATM    4  C10 UNL     1      22.957  11.644  29.725  1.00  0.00    -0.013 C 
HETATM    5  C11 UNL     1      22.254  11.922  30.977  1.00  0.00    -0.014 C 
HETATM    6  C12 UNL     1      21.355  10.709  31.258  1.00  0.00     0.021 C 
HETATM    7  C13 UNL     1      23.328  11.904  32.010  1.00  0.00     0.007 C 
HETATM    8  C14 UNL     1      24.050  13.177  32.242  1.00  0.00     0.007 C 
HETATM    9  C15 UNL     1      23.020  14.284  32.515  1.00  0.00     0.006 C 
HETATM   10  C16 UNL     1      22.225  14.388  31.208  1.00  0.00    -0.003 C 
HETATM   11  C17 UNL     1      21.415  15.636  31.272  1.00  0.00     0.039 C 
HETATM   12  C18 UNL     1      20.397  15.714  30.154  1.00  0.00     0.144 C 
HETATM   13  C19 UNL     1      20.729  14.715  29.102  1.00  0.00     0.034 C 
HETATM   14  C20 UNL     1      20.592  13.327  29.744  1.00  0.00     0.013 C 
HETATM   15  C21 UNL     1      21.408  13.162  30.970  1.00  0.00    -0.029 C 
HETATM   16  C22 UNL     1      20.447  13.029  32.157  1.00  0.00     0.016 C 
HETATM   17  C23 UNL     1      24.257  10.850  31.461  1.00  0.00     0.023 C 
HETATM   18  C24 UNL     1      25.690  11.003  31.753  1.00  0.00    -0.005 C 
HETATM   19  C25 UNL     1      26.190   9.942  32.734  1.00  0.00     0.011 C 
ENDROOT
BRANCH   1  20
HETATM   20  C6  UNL     1      27.176  12.018  29.980  1.00  0.00     0.108 C 
BRANCH  20  21
HETATM   21  C5  UNL     1      28.367  12.325  30.799  1.00  0.00     0.220 C 
HETATM   22  N1  UNL     1      28.672  13.663  31.204  1.00  0.00    -0.353 N 
HETATM   23  O1  UNL     1      29.159  11.427  31.174  1.00  0.00    -0.273 OA
BRANCH  22  24
HETATM   24  C2  UNL     1      29.838  13.925  32.017  1.00  0.00     0.121 C 
HETATM   25  C1  UNL     1      30.299  15.367  31.870  1.00  0.00     0.026 C 
ENDBRANCH  22  24
BRANCH  22  26
HETATM   26  C3  UNL     1      27.841  14.766  30.821  1.00  0.00     0.121 C 
HETATM   27  C4  UNL     1      26.823  15.173  31.835  1.00  0.00     0.026 C 
ENDBRANCH  22  26
ENDBRANCH  20  21
ENDBRANCH   1  20
BRANCH  12  28
HETATM   28  O2  UNL     1      20.313  17.007  29.739  1.00  0.00    -0.254 OA
BRANCH  28  29
HETATM   29  S1  UNL     1      18.804  17.696  29.850  1.00  0.00     0.355 S 
HETATM   30  O3  UNL     1      18.554  18.681  28.718  1.00  0.00    -0.176 OA
HETATM   31  O4  UNL     1      18.521  18.313  31.184  1.00  0.00    -0.176 OA
BRANCH  29  32
HETATM   32  N2  UNL     1      17.637  16.424  29.623  1.00  0.00    -0.306 N 
ATOM     33  H22 UNL     1      17.716  15.659  28.953  1.00  0.00     0.171 HD
ATOM     34  H21 UNL     1      16.874  16.593  30.278  1.00  0.00     0.171 HD
ENDBRANCH  29  32
ENDBRANCH  28  29
ENDBRANCH  12  28
TORSDOF 7
ENDMDL
