MODEL 1
REMARK VINA RESULT: -7.518021623      0.000      0.000
REMARK  5 active torsions:
REMARK  status: ('A' for Active; 'I' for Inactive)
REMARK    1  A    between atoms: N5_12  and  C6_13 
REMARK    2  A    between atoms: C6_13  and  C7_14 
REMARK    3  A    between atoms: C7_14  and  C8_15 
REMARK    4  A    between atoms: C8_15  and  C9_16 
REMARK    5  A    between atoms: C9_16  and  C10_17 
ROOT
HETATM    1  C1  UNL     1       9.427  19.776  29.200  1.00  0.00     0.063 C 
HETATM    2  C2  UNL     1      10.261  19.818  27.931  1.00  0.00     0.102 C 
HETATM    3  C3  UNL     1       9.995  21.146  27.221  1.00  0.00     0.063 C 
HETATM    4  N1  UNL     1      11.654  19.812  28.320  1.00  0.00    -0.338 N 
ATOM      5  H1  UNL     1      11.927  20.470  29.049  1.00  0.00     0.164 HD
HETATM    6  C4  UNL     1      12.575  19.072  27.848  1.00  0.00     0.192 C 
HETATM    7  N2  UNL     1      13.941  19.152  28.308  1.00  0.00    -0.063 NA
HETATM    8  N3  UNL     1      12.207  18.104  26.860  1.00  0.00    -0.305 N 
ATOM      9  H3  UNL     1      12.926  17.501  26.461  1.00  0.00     0.171 HD
HETATM   10  C5  UNL     1      10.990  17.974  26.464  1.00  0.00     0.194 C 
HETATM   11  N4  UNL     1      10.697  16.995  25.476  1.00  0.00    -0.063 NA
HETATM   12  N5  UNL     1       9.902  18.752  27.029  1.00  0.00    -0.329 N 
ENDROOT
BRANCH  12  13
HETATM   13  C6  UNL     1       8.578  18.374  26.661  1.00  0.00     0.128 C 
BRANCH  13  14
HETATM   14  C7  UNL     1       7.755  19.372  25.937  1.00  0.00     0.020 C 
BRANCH  14  15
HETATM   15  C8  UNL     1       7.912  19.105  24.432  1.00  0.00     0.007 C 
BRANCH  15  16
HETATM   16  C9  UNL     1       6.599  18.588  23.884  1.00  0.00     0.057 C 
BRANCH  16  17
HETATM   17  C10 UNL     1       6.767  18.160  22.473  1.00  0.00     0.010 A 
HETATM   18  C11 UNL     1       7.482  18.804  21.499  1.00  0.00     0.045 A 
HETATM   19  C12 UNL     1       7.394  18.079  20.305  1.00  0.00     0.028 A 
HETATM   20 BR1  UNL     1       8.177  18.482  18.615  1.00  0.00    -0.050 Br
HETATM   21  C13 UNL     1       6.605  16.989  20.610  1.00  0.00     0.107 A 
HETATM   22  N6  UNL     1       6.253  17.068  21.899  1.00  0.00    -0.368 N 
ATOM     23  H6  UNL     1       5.667  16.386  22.380  1.00  0.00     0.165 HD
ENDBRANCH  16  17
ENDBRANCH  15  16
ENDBRANCH  14  15
ENDBRANCH  13  14
ENDBRANCH  12  13
TORSDOF 5
ENDMDL
MODEL 2
REMARK VINA RESULT: -7.360441210      1.371      1.541
REMARK  5 active torsions:
REMARK  status: ('A' for Active; 'I' for Inactive)
REMARK    1  A    between atoms: N5_12  and  C6_13 
REMARK    2  A    between atoms: C6_13  and  C7_14 
REMARK    3  A    between atoms: C7_14  and  C8_15 
REMARK    4  A    between atoms: C8_15  and  C9_16 
REMARK    5  A    between atoms: C9_16  and  C10_17 
ROOT
HETATM    1  C1  UNL     1       9.326  19.782  29.155  1.00  0.00     0.063 C 
HETATM    2  C2  UNL     1      10.193  19.825  27.907  1.00  0.00     0.102 C 
HETATM    3  C3  UNL     1       9.967  21.166  27.207  1.00  0.00     0.063 C 
HETATM    4  N1  UNL     1      11.575  19.791  28.331  1.00  0.00    -0.338 N 
ATOM      5  H1  UNL     1      11.841  20.435  29.075  1.00  0.00     0.164 HD
HETATM    6  C4  UNL     1      12.496  19.041  27.873  1.00  0.00     0.192 C 
HETATM    7  N2  UNL     1      13.850  19.092  28.369  1.00  0.00    -0.063 NA
HETATM    8  N3  UNL     1      12.136  18.090  26.865  1.00  0.00    -0.305 N 
ATOM      9  H3  UNL     1      12.855  17.480  26.476  1.00  0.00     0.171 HD
HETATM   10  C5  UNL     1      10.928  17.987  26.437  1.00  0.00     0.194 C 
HETATM   11  N4  UNL     1      10.644  17.025  25.429  1.00  0.00    -0.063 NA
HETATM   12  N5  UNL     1       9.839  18.776  26.984  1.00  0.00    -0.329 N 
ENDROOT
BRANCH  12  13
HETATM   13  C6  UNL     1       8.518  18.425  26.577  1.00  0.00     0.128 C 
BRANCH  13  14
HETATM   14  C7  UNL     1       7.772  19.403  25.750  1.00  0.00     0.020 C 
BRANCH  14  15
HETATM   15  C8  UNL     1       7.813  18.913  24.294  1.00  0.00     0.007 C 
BRANCH  15  16
HETATM   16  C9  UNL     1       6.993  17.647  24.177  1.00  0.00     0.057 C 
BRANCH  16  17
HETATM   17  C10 UNL     1       6.421  17.533  22.812  1.00  0.00     0.010 A 
HETATM   18  C11 UNL     1       5.162  17.106  22.483  1.00  0.00     0.045 A 
HETATM   19  C12 UNL     1       5.010  17.144  21.092  1.00  0.00     0.028 A 
HETATM   20 BR1  UNL     1       3.484  16.667  20.055  1.00  0.00    -0.050 Br
HETATM   21  C13 UNL     1       6.220  17.606  20.616  1.00  0.00     0.107 A 
HETATM   22  N6  UNL     1       7.030  17.825  21.660  1.00  0.00    -0.368 N 
ATOM     23  H6  UNL     1       7.986  18.171  21.584  1.00  0.00     0.165 HD
ENDBRANCH  16  17
ENDBRANCH  15  16
ENDBRANCH  14  15
ENDBRANCH  13  14
ENDBRANCH  12  13
TORSDOF 5
ENDMDL
MODEL 3
REMARK VINA RESULT: -7.227409085      4.530      6.386
REMARK  5 active torsions:
REMARK  status: ('A' for Active; 'I' for Inactive)
REMARK    1  A    between atoms: N5_12  and  C6_13 
REMARK    2  A    between atoms: C6_13  and  C7_14 
REMARK    3  A    between atoms: C7_14  and  C8_15 
REMARK    4  A    between atoms: C8_15  and  C9_16 
REMARK    5  A    between atoms: C9_16  and  C10_17 
ROOT
HETATM    1  C1  UNL     1      14.795  16.027  24.968  1.00  0.00     0.063 C 
HETATM    2  C2  UNL     1      14.413  16.081  26.438  1.00  0.00     0.102 C 
HETATM    3  C3  UNL     1      13.519  14.880  26.750  1.00  0.00     0.063 C 
HETATM    4  N1  UNL     1      15.624  15.927  27.213  1.00  0.00    -0.338 N 
ATOM      5  H1  UNL     1      16.242  15.161  26.946  1.00  0.00     0.164 HD
HETATM    6  C4  UNL     1      15.999  16.645  28.194  1.00  0.00     0.192 C 
HETATM    7  N2  UNL     1      17.232  16.398  28.903  1.00  0.00    -0.063 NA
HETATM    8  N3  UNL     1      15.175  17.758  28.555  1.00  0.00    -0.305 N 
ATOM      9  H3  UNL     1      15.449  18.348  29.340  1.00  0.00     0.171 HD
HETATM   10  C5  UNL     1      14.096  18.034  27.912  1.00  0.00     0.194 C 
HETATM   11  N4  UNL     1      13.322  19.151  28.329  1.00  0.00    -0.063 NA
HETATM   12  N5  UNL     1      13.672  17.279  26.746  1.00  0.00    -0.329 N 
ENDROOT
BRANCH  12  13
HETATM   13  C6  UNL     1      12.578  17.806  25.998  1.00  0.00     0.128 C 
BRANCH  13  14
HETATM   14  C7  UNL     1      11.434  16.903  25.727  1.00  0.00     0.020 C 
BRANCH  14  15
HETATM   15  C8  UNL     1      10.142  17.708  25.935  1.00  0.00     0.007 C 
BRANCH  15  16
HETATM   16  C9  UNL     1      10.484  19.181  25.998  1.00  0.00     0.057 C 
BRANCH  16  17
HETATM   17  C10 UNL     1       9.977  19.770  27.262  1.00  0.00     0.010 A 
HETATM   18  C11 UNL     1       8.961  19.288  28.043  1.00  0.00     0.045 A 
HETATM   19  C12 UNL     1       8.790  20.129  29.149  1.00  0.00     0.028 A 
HETATM   20 BR1  UNL     1       7.533  19.971  30.573  1.00  0.00    -0.050 Br
HETATM   21  C13 UNL     1       9.738  21.119  28.992  1.00  0.00     0.107 A 
HETATM   22  N6  UNL     1      10.422  20.876  27.867  1.00  0.00    -0.368 N 
ATOM     23  H6  UNL     1      11.182  21.458  27.517  1.00  0.00     0.165 HD
ENDBRANCH  16  17
ENDBRANCH  15  16
ENDBRANCH  14  15
ENDBRANCH  13  14
ENDBRANCH  12  13
TORSDOF 5
ENDMDL
MODEL 4
REMARK VINA RESULT: -7.167599105      4.388      7.301
REMARK  5 active torsions:
REMARK  status: ('A' for Active; 'I' for Inactive)
REMARK    1  A    between atoms: N5_12  and  C6_13 
REMARK    2  A    between atoms: C6_13  and  C7_14 
REMARK    3  A    between atoms: C7_14  and  C8_15 
REMARK    4  A    between atoms: C8_15  and  C9_16 
REMARK    5  A    between atoms: C9_16  and  C10_17 
ROOT
HETATM    1  C1  UNL     1       8.251  17.353  26.054  1.00  0.00     0.063 C 
HETATM    2  C2  UNL     1       8.569  18.717  26.645  1.00  0.00     0.102 C 
HETATM    3  C3  UNL     1       8.185  19.788  25.624  1.00  0.00     0.063 C 
HETATM    4  N1  UNL     1       7.720  18.904  27.801  1.00  0.00    -0.338 N 
ATOM      5  H1  UNL     1       6.729  18.696  27.678  1.00  0.00     0.164 HD
HETATM    6  C4  UNL     1       8.079  19.300  28.956  1.00  0.00     0.192 C 
HETATM    7  N2  UNL     1       7.143  19.456  30.043  1.00  0.00    -0.063 NA
HETATM    8  N3  UNL     1       9.473  19.547  29.168  1.00  0.00    -0.305 N 
ATOM      9  H3  UNL     1       9.788  19.871  30.083  1.00  0.00     0.171 HD
HETATM   10  C5  UNL     1      10.339  19.370  28.234  1.00  0.00     0.194 C 
HETATM   11  N4  UNL     1      11.706  19.641  28.514  1.00  0.00    -0.063 NA
HETATM   12  N5  UNL     1       9.976  18.854  26.927  1.00  0.00    -0.329 N 
ENDROOT
BRANCH  12  13
HETATM   13  C6  UNL     1      11.046  18.505  26.050  1.00  0.00     0.128 C 
BRANCH  13  14
HETATM   14  C7  UNL     1      11.368  17.067  25.900  1.00  0.00     0.020 C 
BRANCH  14  15
HETATM   15  C8  UNL     1      12.847  16.957  25.499  1.00  0.00     0.007 C 
BRANCH  15  16
HETATM   16  C9  UNL     1      13.584  16.151  26.546  1.00  0.00     0.057 C 
BRANCH  16  17
HETATM   17  C10 UNL     1      14.470  17.035  27.343  1.00  0.00     0.010 A 
HETATM   18  C11 UNL     1      15.662  16.694  27.925  1.00  0.00     0.045 A 
HETATM   19  C12 UNL     1      16.188  17.809  28.588  1.00  0.00     0.028 A 
HETATM   20 BR1  UNL     1      17.813  17.941  29.574  1.00  0.00    -0.050 Br
HETATM   21  C13 UNL     1      15.268  18.814  28.375  1.00  0.00     0.107 A 
HETATM   22  N6  UNL     1      14.265  18.322  27.637  1.00  0.00    -0.368 N 
ATOM     23  H6  UNL     1      13.452  18.859  27.337  1.00  0.00     0.165 HD
ENDBRANCH  16  17
ENDBRANCH  15  16
ENDBRANCH  14  15
ENDBRANCH  13  14
ENDBRANCH  12  13
TORSDOF 5
ENDMDL
MODEL 5
REMARK VINA RESULT: -7.131870772      3.562      8.195
REMARK  5 active torsions:
REMARK  status: ('A' for Active; 'I' for Inactive)
REMARK    1  A    between atoms: N5_12  and  C6_13 
REMARK    2  A    between atoms: C6_13  and  C7_14 
REMARK    3  A    between atoms: C7_14  and  C8_15 
REMARK    4  A    between atoms: C8_15  and  C9_16 
REMARK    5  A    between atoms: C9_16  and  C10_17 
ROOT
HETATM    1  C1  UNL     1       3.555  18.285  22.968  1.00  0.00     0.063 C 
HETATM    2  C2  UNL     1       4.332  18.276  21.662  1.00  0.00     0.102 C 
HETATM    3  C3  UNL     1       4.160  16.905  21.006  1.00  0.00     0.063 C 
HETATM    4  N1  UNL     1       3.726  19.251  20.783  1.00  0.00    -0.338 N 
ATOM      5  H1  UNL     1       2.711  19.216  20.692  1.00  0.00     0.164 HD
HETATM    6  C4  UNL     1       4.326  20.150  20.110  1.00  0.00     0.192 C 
HETATM    7  N2  UNL     1       3.620  21.074  19.256  1.00  0.00    -0.063 NA
HETATM    8  N3  UNL     1       5.746  20.254  20.261  1.00  0.00    -0.305 N 
ATOM      9  H3  UNL     1       6.252  20.962  19.730  1.00  0.00     0.171 HD
HETATM   10  C5  UNL     1       6.398  19.477  21.052  1.00  0.00     0.194 C 
HETATM   11  N4  UNL     1       7.807  19.633  21.148  1.00  0.00    -0.063 NA
HETATM   12  N5  UNL     1       5.740  18.488  21.886  1.00  0.00    -0.329 N 
ENDROOT
BRANCH  12  13
HETATM   13  C6  UNL     1       6.542  17.835  22.868  1.00  0.00     0.128 C 
BRANCH  13  14
HETATM   14  C7  UNL     1       6.731  18.523  24.167  1.00  0.00     0.020 C 
BRANCH  14  15
HETATM   15  C8  UNL     1       8.221  18.432  24.533  1.00  0.00     0.007 C 
BRANCH  15  16
HETATM   16  C9  UNL     1       8.378  17.530  25.737  1.00  0.00     0.057 C 
BRANCH  16  17
HETATM   17  C10 UNL     1       8.734  18.332  26.934  1.00  0.00     0.010 A 
HETATM   18  C11 UNL     1       7.867  18.879  27.843  1.00  0.00     0.045 A 
HETATM   19  C12 UNL     1       8.597  19.560  28.825  1.00  0.00     0.028 A 
HETATM   20 BR1  UNL     1       7.940  20.515  30.337  1.00  0.00    -0.050 Br
HETATM   21  C13 UNL     1       9.918  19.394  28.464  1.00  0.00     0.107 A 
HETATM   22  N6  UNL     1       9.962  18.664  27.342  1.00  0.00    -0.368 N 
ATOM     23  H6  UNL     1      10.821  18.396  26.862  1.00  0.00     0.165 HD
ENDBRANCH  16  17
ENDBRANCH  15  16
ENDBRANCH  14  15
ENDBRANCH  13  14
ENDBRANCH  12  13
TORSDOF 5
ENDMDL
