MODEL 1
REMARK VINA RESULT: -7.495338860      0.000      0.000
REMARK  7 active torsions:
REMARK  status: ('A' for Active; 'I' for Inactive)
REMARK    1  A    between atoms: C2_2  and  C3_3 
REMARK    2  A    between atoms: C3_3  and  C4_4 
REMARK    3  A    between atoms: C4_4  and  N1_5 
REMARK    4  A    between atoms: C7_12  and  N4_13 
REMARK    5  A    between atoms: C8_16  and  N5_17 
REMARK    6  A    between atoms: N5_17  and  C9_19 
REMARK    7  A    between atoms: C9_19  and  C10_20 
ROOT
HETATM    1  N1  UNL     1       9.199  19.430  26.761  1.00  0.00    -0.308 N 
HETATM    2  C5  UNL     1      10.295  20.119  27.114  1.00  0.00     0.187 A 
HETATM    3  N2  UNL     1      11.539  19.712  26.884  1.00  0.00    -0.336 N 
ATOM      4  H2  UNL     1      12.328  20.288  27.179  1.00  0.00     0.168 HD
HETATM    5  C6  UNL     1      11.758  18.537  26.262  1.00  0.00     0.140 A 
HETATM    6  N3  UNL     1      13.017  18.116  26.025  1.00  0.00    -0.324 N 
ATOM      7  H3  UNL     1      13.820  18.676  26.311  1.00  0.00     0.169 HD
HETATM    8  C7  UNL     1      13.187  16.922  25.392  1.00  0.00     0.145 A 
HETATM    9  C8  UNL     1      12.135  16.150  24.997  1.00  0.00     0.146 A 
HETATM   10  N6  UNL     1      10.867  16.635  25.267  1.00  0.00    -0.332 N 
ATOM     11  H6  UNL     1      10.058  16.082  24.983  1.00  0.00     0.168 HD
HETATM   12  C11 UNL     1      10.666  17.791  25.879  1.00  0.00     0.147 A 
HETATM   13  C12 UNL     1       9.379  18.261  26.142  1.00  0.00     0.279 A 
HETATM   14  O1  UNL     1       8.392  17.593  25.800  1.00  0.00    -0.265 OA
ENDROOT
BRANCH   9  15
HETATM   15  N5  UNL     1      12.195  15.054  24.417  1.00  0.00    -0.372 N 
ATOM     16  H5  UNL     1      11.300  14.573  24.509  1.00  0.00     0.161 HD
BRANCH  15  17
HETATM   17  C9  UNL     1      13.067  14.266  23.687  1.00  0.00     0.132 C 
BRANCH  17  18
HETATM   18  C10 UNL     1      13.572  13.053  24.484  1.00  0.00     0.104 C 
HETATM   19 BR1  UNL     1      14.686  11.929  23.406  1.00  0.00    -0.095 Br
ENDBRANCH  17  18
ENDBRANCH  15  17
ENDBRANCH   9  15
BRANCH   8  20
HETATM   20  N4  UNL     1      14.383  16.590  25.204  1.00  0.00    -0.382 N 
ATOM     21  H42 UNL     1      14.924  16.063  25.888  1.00  0.00     0.157 HD
ATOM     22  H41 UNL     1      14.774  16.890  24.312  1.00  0.00     0.157 HD
ENDBRANCH   8  20
BRANCH   1  23
HETATM   23  C4  UNL     1       7.913  19.992  27.073  1.00  0.00     0.133 C 
BRANCH  23  24
HETATM   24  C3  UNL     1       7.819  20.545  28.461  1.00  0.00     0.020 C 
BRANCH  24  25
HETATM   25  C2  UNL     1       7.170  19.454  29.326  1.00  0.00    -0.003 C 
HETATM   26  C1  UNL     1       7.155  19.850  30.774  1.00  0.00     0.005 C 
ENDBRANCH  24  25
ENDBRANCH  23  24
ENDBRANCH   1  23
TORSDOF 7
ENDMDL
MODEL 2
REMARK VINA RESULT: -7.483870247      2.557      3.412
REMARK  7 active torsions:
REMARK  status: ('A' for Active; 'I' for Inactive)
REMARK    1  A    between atoms: C2_2  and  C3_3 
REMARK    2  A    between atoms: C3_3  and  C4_4 
REMARK    3  A    between atoms: C4_4  and  N1_5 
REMARK    4  A    between atoms: C7_12  and  N4_13 
REMARK    5  A    between atoms: C8_16  and  N5_17 
REMARK    6  A    between atoms: N5_17  and  C9_19 
REMARK    7  A    between atoms: C9_19  and  C10_20 
ROOT
HETATM    1  N1  UNL     1       8.643  19.276  27.536  1.00  0.00    -0.308 N 
HETATM    2  C5  UNL     1       8.071  18.579  26.541  1.00  0.00     0.187 A 
HETATM    3  N2  UNL     1       8.731  17.763  25.726  1.00  0.00    -0.336 N 
ATOM      4  H2  UNL     1       8.232  17.262  24.991  1.00  0.00     0.168 HD
HETATM    5  C6  UNL     1      10.060  17.597  25.873  1.00  0.00     0.140 A 
HETATM    6  N3  UNL     1      10.738  16.770  25.050  1.00  0.00    -0.324 N 
ATOM      7  H3  UNL     1      10.260  16.261  24.307  1.00  0.00     0.169 HD
HETATM    8  C7  UNL     1      12.080  16.636  25.238  1.00  0.00     0.145 A 
HETATM    9  C8  UNL     1      12.749  17.304  26.220  1.00  0.00     0.146 A 
HETATM   10  N6  UNL     1      12.000  18.136  27.033  1.00  0.00    -0.332 N 
ATOM     11  H6  UNL     1      12.471  18.649  27.778  1.00  0.00     0.168 HD
HETATM   12  C11 UNL     1      10.695  18.290  26.878  1.00  0.00     0.147 A 
HETATM   13  C12 UNL     1       9.958  19.135  27.709  1.00  0.00     0.279 A 
HETATM   14  O1  UNL     1      10.525  19.762  28.617  1.00  0.00    -0.265 OA
ENDROOT
BRANCH   9  15
HETATM   15  N5  UNL     1      13.965  17.242  26.464  1.00  0.00    -0.372 N 
ATOM     16  H5  UNL     1      14.490  17.559  25.650  1.00  0.00     0.161 HD
BRANCH  15  17
HETATM   17  C9  UNL     1      14.847  16.887  27.469  1.00  0.00     0.132 C 
BRANCH  17  18
HETATM   18  C10 UNL     1      15.269  18.086  28.333  1.00  0.00     0.104 C 
HETATM   19 BR1  UNL     1      17.033  17.848  29.038  1.00  0.00    -0.095 Br
ENDBRANCH  17  18
ENDBRANCH  15  17
ENDBRANCH   9  15
BRANCH   8  20
HETATM   20  N4  UNL     1      12.649  15.853  24.438  1.00  0.00    -0.382 N 
ATOM     21  H42 UNL     1      13.107  16.171  23.584  1.00  0.00     0.157 HD
ATOM     22  H41 UNL     1      12.618  14.870  24.707  1.00  0.00     0.157 HD
ENDBRANCH   8  20
BRANCH   1  23
HETATM   23  C4  UNL     1       7.805  20.123  28.342  1.00  0.00     0.133 C 
BRANCH  23  24
HETATM   24  C3  UNL     1       7.075  19.390  29.425  1.00  0.00     0.020 C 
BRANCH  24  25
HETATM   25  C2  UNL     1       7.538  20.000  30.756  1.00  0.00    -0.003 C 
HETATM   26  C1  UNL     1       8.170  21.346  30.544  1.00  0.00     0.005 C 
ENDBRANCH  24  25
ENDBRANCH  23  24
ENDBRANCH   1  23
TORSDOF 7
ENDMDL
MODEL 3
REMARK VINA RESULT: -7.411541592      1.951      2.565
REMARK  7 active torsions:
REMARK  status: ('A' for Active; 'I' for Inactive)
REMARK    1  A    between atoms: C2_2  and  C3_3 
REMARK    2  A    between atoms: C3_3  and  C4_4 
REMARK    3  A    between atoms: C4_4  and  N1_5 
REMARK    4  A    between atoms: C7_12  and  N4_13 
REMARK    5  A    between atoms: C8_16  and  N5_17 
REMARK    6  A    between atoms: N5_17  and  C9_19 
REMARK    7  A    between atoms: C9_19  and  C10_20 
ROOT
HETATM    1  N1  UNL     1      10.021  19.723  27.946  1.00  0.00    -0.308 N 
HETATM    2  C5  UNL     1       9.062  19.338  27.089  1.00  0.00     0.187 A 
HETATM    3  N2  UNL     1       9.238  18.439  26.126  1.00  0.00    -0.336 N 
ATOM      4  H2  UNL     1       8.463  18.192  25.510  1.00  0.00     0.168 HD
HETATM    5  C6  UNL     1      10.441  17.854  25.963  1.00  0.00     0.140 A 
HETATM    6  N3  UNL     1      10.628  16.941  24.988  1.00  0.00    -0.324 N 
ATOM      7  H3  UNL     1       9.867  16.680  24.361  1.00  0.00     0.169 HD
HETATM    8  C7  UNL     1      11.862  16.378  24.864  1.00  0.00     0.145 A 
HETATM    9  C8  UNL     1      12.899  16.706  25.686  1.00  0.00     0.146 A 
HETATM   10  N6  UNL     1      12.646  17.648  26.668  1.00  0.00    -0.332 N 
ATOM     11  H6  UNL     1      13.401  17.915  27.300  1.00  0.00     0.168 HD
HETATM   12  C11 UNL     1      11.459  18.215  26.816  1.00  0.00     0.147 A 
HETATM   13  C12 UNL     1      11.225  19.163  27.813  1.00  0.00     0.279 A 
HETATM   14  O1  UNL     1      12.140  19.491  28.584  1.00  0.00    -0.265 OA
ENDROOT
BRANCH   9  15
HETATM   15  N5  UNL     1      14.051  16.246  25.647  1.00  0.00    -0.372 N 
ATOM     16  H5  UNL     1      14.566  16.686  24.884  1.00  0.00     0.161 HD
BRANCH  15  17
HETATM   17  C9  UNL     1      14.872  15.336  26.290  1.00  0.00     0.132 C 
BRANCH  17  18
HETATM   18  C10 UNL     1      14.327  13.901  26.222  1.00  0.00     0.104 C 
HETATM   19 BR1  UNL     1      13.440  13.416  27.847  1.00  0.00    -0.095 Br
ENDBRANCH  17  18
ENDBRANCH  15  17
ENDBRANCH   9  15
BRANCH   8  20
HETATM   20  N4  UNL     1      11.967  15.538  23.938  1.00  0.00    -0.382 N 
ATOM     21  H42 UNL     1      12.715  15.570  23.245  1.00  0.00     0.157 HD
ATOM     22  H41 UNL     1      11.245  14.819  23.928  1.00  0.00     0.157 HD
ENDBRANCH   8  20
BRANCH   1  23
HETATM   23  C4  UNL     1       9.690  20.706  28.941  1.00  0.00     0.133 C 
BRANCH  23  24
HETATM   24  C3  UNL     1       8.217  20.924  29.103  1.00  0.00     0.020 C 
BRANCH  24  25
HETATM   25  C2  UNL     1       7.882  20.592  30.564  1.00  0.00    -0.003 C 
HETATM   26  C1  UNL     1       6.889  19.469  30.650  1.00  0.00     0.005 C 
ENDBRANCH  24  25
ENDBRANCH  23  24
ENDBRANCH   1  23
TORSDOF 7
ENDMDL
MODEL 4
REMARK VINA RESULT: -7.408597760      1.712      2.128
REMARK  7 active torsions:
REMARK  status: ('A' for Active; 'I' for Inactive)
REMARK    1  A    between atoms: C2_2  and  C3_3 
REMARK    2  A    between atoms: C3_3  and  C4_4 
REMARK    3  A    between atoms: C4_4  and  N1_5 
REMARK    4  A    between atoms: C7_12  and  N4_13 
REMARK    5  A    between atoms: C8_16  and  N5_17 
REMARK    6  A    between atoms: N5_17  and  C9_19 
REMARK    7  A    between atoms: C9_19  and  C10_20 
ROOT
HETATM    1  N1  UNL     1       9.366  19.625  27.397  1.00  0.00    -0.308 N 
HETATM    2  C5  UNL     1       9.985  20.639  28.022  1.00  0.00     0.187 A 
HETATM    3  N2  UNL     1      11.288  20.672  28.284  1.00  0.00    -0.336 N 
ATOM      4  H2  UNL     1      11.693  21.477  28.762  1.00  0.00     0.168 HD
HETATM    5  C6  UNL     1      12.073  19.640  27.918  1.00  0.00     0.140 A 
HETATM    6  N3  UNL     1      13.396  19.664  28.180  1.00  0.00    -0.324 N 
ATOM      7  H3  UNL     1      13.822  20.459  28.657  1.00  0.00     0.169 HD
HETATM    8  C7  UNL     1      14.148  18.598  27.789  1.00  0.00     0.145 A 
HETATM    9  C8  UNL     1      13.609  17.521  27.150  1.00  0.00     0.146 A 
HETATM   10  N6  UNL     1      12.247  17.554  26.908  1.00  0.00    -0.332 N 
ATOM     11  H6  UNL     1      11.813  16.763  26.431  1.00  0.00     0.168 HD
HETATM   12  C11 UNL     1      11.487  18.574  27.274  1.00  0.00     0.147 A 
HETATM   13  C12 UNL     1      10.115  18.587  27.020  1.00  0.00     0.279 A 
HETATM   14  O1  UNL     1       9.582  17.628  26.440  1.00  0.00    -0.265 OA
ENDROOT
BRANCH   9  15
HETATM   15  N5  UNL     1      14.215  16.510  26.759  1.00  0.00    -0.372 N 
ATOM     16  H5  UNL     1      15.216  16.705  26.736  1.00  0.00     0.161 HD
BRANCH  15  17
HETATM   17  C9  UNL     1      13.989  15.210  26.345  1.00  0.00     0.132 C 
BRANCH  17  18
HETATM   18  C10 UNL     1      14.585  14.922  24.958  1.00  0.00     0.104 C 
HETATM   19 BR1  UNL     1      13.440  13.779  23.934  1.00  0.00    -0.095 Br
ENDBRANCH  17  18
ENDBRANCH  15  17
ENDBRANCH   9  15
BRANCH   8  20
HETATM   20  N4  UNL     1      15.369  18.685  28.064  1.00  0.00    -0.382 N 
ATOM     21  H42 UNL     1      15.723  19.244  28.841  1.00  0.00     0.157 HD
ATOM     22  H41 UNL     1      15.985  18.153  27.450  1.00  0.00     0.157 HD
ENDBRANCH   8  20
BRANCH   1  23
HETATM   23  C4  UNL     1       7.949  19.724  27.179  1.00  0.00     0.133 C 
BRANCH  23  24
HETATM   24  C3  UNL     1       7.210  20.368  28.311  1.00  0.00     0.020 C 
BRANCH  24  25
HETATM   25  C2  UNL     1       7.088  19.308  29.415  1.00  0.00    -0.003 C 
HETATM   26  C1  UNL     1       7.388  19.894  30.765  1.00  0.00     0.005 C 
ENDBRANCH  24  25
ENDBRANCH  23  24
ENDBRANCH   1  23
TORSDOF 7
ENDMDL
MODEL 5
REMARK VINA RESULT: -7.388422650      1.950      2.577
REMARK  7 active torsions:
REMARK  status: ('A' for Active; 'I' for Inactive)
REMARK    1  A    between atoms: C2_2  and  C3_3 
REMARK    2  A    between atoms: C3_3  and  C4_4 
REMARK    3  A    between atoms: C4_4  and  N1_5 
REMARK    4  A    between atoms: C7_12  and  N4_13 
REMARK    5  A    between atoms: C8_16  and  N5_17 
REMARK    6  A    between atoms: N5_17  and  C9_19 
REMARK    7  A    between atoms: C9_19  and  C10_20 
ROOT
HETATM    1  N1  UNL     1       9.988  19.618  27.974  1.00  0.00    -0.308 N 
HETATM    2  C5  UNL     1       9.010  19.127  27.195  1.00  0.00     0.187 A 
HETATM    3  N2  UNL     1       9.200  18.224  26.239  1.00  0.00    -0.336 N 
ATOM      4  H2  UNL     1       8.410  17.894  25.685  1.00  0.00     0.168 HD
HETATM    5  C6  UNL     1      10.437  17.745  26.003  1.00  0.00     0.140 A 
HETATM    6  N3  UNL     1      10.639  16.828  25.034  1.00  0.00    -0.324 N 
ATOM      7  H3  UNL     1       9.864  16.484  24.468  1.00  0.00     0.169 HD
HETATM    8  C7  UNL     1      11.907  16.375  24.833  1.00  0.00     0.145 A 
HETATM    9  C8  UNL     1      12.964  16.815  25.573  1.00  0.00     0.146 A 
HETATM   10  N6  UNL     1      12.695  17.755  26.552  1.00  0.00    -0.332 N 
ATOM     11  H6  UNL     1      13.465  18.104  27.123  1.00  0.00     0.168 HD
HETATM   12  C11 UNL     1      11.475  18.217  26.774  1.00  0.00     0.147 A 
HETATM   13  C12 UNL     1      11.225  19.165  27.766  1.00  0.00     0.279 A 
HETATM   14  O1  UNL     1      12.157  19.593  28.464  1.00  0.00    -0.265 OA
ENDROOT
BRANCH   9  15
HETATM   15  N5  UNL     1      14.149  16.458  25.460  1.00  0.00    -0.372 N 
ATOM     16  H5  UNL     1      14.576  16.948  24.675  1.00  0.00     0.161 HD
BRANCH  15  17
HETATM   17  C9  UNL     1      15.083  15.620  26.042  1.00  0.00     0.132 C 
BRANCH  17  18
HETATM   18  C10 UNL     1      15.738  14.672  25.025  1.00  0.00     0.104 C 
HETATM   19 BR1  UNL     1      17.609  15.034  24.844  1.00  0.00    -0.095 Br
ENDBRANCH  17  18
ENDBRANCH  15  17
ENDBRANCH   9  15
BRANCH   8  20
HETATM   20  N4  UNL     1      12.024  15.525  23.917  1.00  0.00    -0.382 N 
ATOM     21  H42 UNL     1      11.449  14.684  23.867  1.00  0.00     0.157 HD
ATOM     22  H41 UNL     1      12.741  15.738  23.224  1.00  0.00     0.157 HD
ENDBRANCH   8  20
BRANCH   1  23
HETATM   23  C4  UNL     1       9.638  20.593  28.971  1.00  0.00     0.133 C 
BRANCH  23  24
HETATM   24  C3  UNL     1       8.164  20.829  29.090  1.00  0.00     0.020 C 
BRANCH  24  25
HETATM   25  C2  UNL     1       7.795  20.570  30.558  1.00  0.00    -0.003 C 
HETATM   26  C1  UNL     1       6.806  19.446  30.677  1.00  0.00     0.005 C 
ENDBRANCH  24  25
ENDBRANCH  23  24
ENDBRANCH   1  23
TORSDOF 7
ENDMDL
