MODEL 1
REMARK VINA RESULT: -6.529880917      0.000      0.000
REMARK  7 active torsions:
REMARK  status: ('A' for Active; 'I' for Inactive)
REMARK    1  A    between atoms: C2_2  and  N1_3 
REMARK       I    between atoms: N1_3  and  C3_4 
REMARK    2  A    between atoms: C3_4  and  C4_6 
REMARK    3  A    between atoms: C4_6  and  C5_7 
REMARK    4  A    between atoms: C10_13  and  O3_14 
REMARK    5  A    between atoms: C11_16  and  C12_17 
REMARK    6  A    between atoms: C11_16  and  C14_19 
REMARK    7  A    between atoms: C15_22  and  O5_23 
ROOT
HETATM    1  C5  UNL     1      12.654  17.601  26.419  1.00  0.00     0.139 C 
HETATM    2  O2  UNL     1      12.103  16.374  26.078  1.00  0.00    -0.369 OA
HETATM    3  C6  UNL     1      12.934  15.803  25.132  1.00  0.00     0.108 C 
HETATM    4  C7  UNL     1      12.221  15.690  23.806  1.00  0.00     0.051 C 
HETATM    5  C8  UNL     1      14.111  16.775  24.924  1.00  0.00     0.052 C 
HETATM    6  C9  UNL     1      14.136  17.340  26.364  1.00  0.00     0.050 C 
HETATM    7  C10 UNL     1      14.520  16.308  27.357  1.00  0.00     0.160 C 
HETATM    8  C11 UNL     1      15.371  15.188  26.877  1.00  0.00     0.102 C 
HETATM    9  O4  UNL     1      14.933  14.592  25.680  1.00  0.00    -0.344 OA
HETATM   10  C15 UNL     1      13.535  14.525  25.622  1.00  0.00     0.294 C 
ENDROOT
BRANCH   1  11
HETATM   11  C4  UNL     1      12.099  18.254  27.606  1.00  0.00     0.151 C 
BRANCH  11  12
HETATM   12  C3  UNL     1      10.933  19.107  27.140  1.00  0.00     0.288 C 
HETATM   13  N1  UNL     1       9.971  19.438  28.076  1.00  0.00    -0.416 NA
HETATM   14  O1  UNL     1      10.953  19.436  25.949  1.00  0.00    -0.258 OA
BRANCH  13  15
HETATM   15  C2  UNL     1       9.031  19.761  28.990  1.00  0.00     0.217 C 
HETATM   16  C1  UNL     1       7.687  19.088  28.690  1.00  0.00     0.041 C 
ENDBRANCH  13  15
ENDBRANCH  11  12
ENDBRANCH   1  11
BRANCH   7  17
HETATM   17  O3  UNL     1      15.303  16.992  28.334  1.00  0.00    -0.392 OA
ATOM     18  H3  UNL     1      16.117  16.506  28.392  1.00  0.00     0.210 HD
ENDBRANCH   7  17
BRANCH  10  19
HETATM   19  O5  UNL     1      13.150  13.439  24.797  1.00  0.00    -0.363 OA
HETATM   20  C16 UNL     1      13.469  12.225  25.406  1.00  0.00     0.204 C 
ENDBRANCH  10  19
BRANCH   8  21
HETATM   21  C12 UNL     1      15.385  14.088  27.910  1.00  0.00     0.037 C 
HETATM   22  C13 UNL     1      16.720  13.610  28.336  1.00  0.00     0.008 C 
ENDBRANCH   8  21
BRANCH   8  23
HETATM   23  C14 UNL     1      16.820  15.581  26.676  1.00  0.00     0.155 C 
HETATM   24 CL1  UNL     1      17.235  15.074  24.997  1.00  0.00    -0.127 Cl
ENDBRANCH   8  23
TORSDOF 7
ENDMDL
MODEL 2
REMARK VINA RESULT: -6.495478565      4.579      7.125
REMARK  7 active torsions:
REMARK  status: ('A' for Active; 'I' for Inactive)
REMARK    1  A    between atoms: C2_2  and  N1_3 
REMARK       I    between atoms: N1_3  and  C3_4 
REMARK    2  A    between atoms: C3_4  and  C4_6 
REMARK    3  A    between atoms: C4_6  and  C5_7 
REMARK    4  A    between atoms: C10_13  and  O3_14 
REMARK    5  A    between atoms: C11_16  and  C12_17 
REMARK    6  A    between atoms: C11_16  and  C14_19 
REMARK    7  A    between atoms: C15_22  and  O5_23 
ROOT
HETATM    1  C5  UNL     1       8.926  18.383  25.404  1.00  0.00     0.139 C 
HETATM    2  O2  UNL     1       9.740  17.668  26.271  1.00  0.00    -0.369 OA
HETATM    3  C6  UNL     1      10.831  18.468  26.558  1.00  0.00     0.108 C 
HETATM    4  C7  UNL     1      12.092  17.854  26.002  1.00  0.00     0.051 C 
HETATM    5  C8  UNL     1      10.617  19.800  25.813  1.00  0.00     0.052 C 
HETATM    6  C9  UNL     1       9.072  19.802  25.884  1.00  0.00     0.050 C 
HETATM    7  C10 UNL     1       8.582  19.934  27.277  1.00  0.00     0.160 C 
HETATM    8  C11 UNL     1       9.471  20.627  28.246  1.00  0.00     0.102 C 
HETATM    9  O4  UNL     1      10.809  20.194  28.226  1.00  0.00    -0.344 OA
HETATM   10  C15 UNL     1      10.898  18.813  28.010  1.00  0.00     0.294 C 
ENDROOT
BRANCH   1  11
HETATM   11  C4  UNL     1       7.579  17.849  25.189  1.00  0.00     0.151 C 
BRANCH  11  12
HETATM   12  C3  UNL     1       7.234  18.087  23.730  1.00  0.00     0.288 C 
HETATM   13  N1  UNL     1       6.250  17.294  23.170  1.00  0.00    -0.416 NA
HETATM   14  O1  UNL     1       7.870  18.985  23.168  1.00  0.00    -0.258 OA
BRANCH  13  15
HETATM   15  C2  UNL     1       5.288  16.518  22.623  1.00  0.00     0.217 C 
HETATM   16  C1  UNL     1       5.647  16.084  21.198  1.00  0.00     0.041 C 
ENDBRANCH  13  15
ENDBRANCH  11  12
ENDBRANCH   1  11
BRANCH   7  17
HETATM   17  O3  UNL     1       7.407  20.737  27.193  1.00  0.00    -0.392 OA
ATOM     18  H3  UNL     1       7.445  21.155  26.340  1.00  0.00     0.210 HD
ENDBRANCH   7  17
BRANCH  10  19
HETATM   19  O5  UNL     1      12.096  18.323  28.588  1.00  0.00    -0.363 OA
HETATM   20  C16 UNL     1      13.142  19.223  28.383  1.00  0.00     0.204 C 
ENDBRANCH  10  19
BRANCH   8  21
HETATM   21  C12 UNL     1       8.973  20.380  29.650  1.00  0.00     0.037 C 
HETATM   22  C13 UNL     1       7.761  19.540  29.774  1.00  0.00     0.008 C 
ENDBRANCH   8  21
BRANCH   8  23
HETATM   23  C14 UNL     1       9.485  22.132  28.075  1.00  0.00     0.155 C 
HETATM   24 CL1  UNL     1       9.325  22.813  29.736  1.00  0.00    -0.127 Cl
ENDBRANCH   8  23
TORSDOF 7
ENDMDL
MODEL 3
REMARK VINA RESULT: -6.266312936      1.765      1.957
REMARK  7 active torsions:
REMARK  status: ('A' for Active; 'I' for Inactive)
REMARK    1  A    between atoms: C2_2  and  N1_3 
REMARK       I    between atoms: N1_3  and  C3_4 
REMARK    2  A    between atoms: C3_4  and  C4_6 
REMARK    3  A    between atoms: C4_6  and  C5_7 
REMARK    4  A    between atoms: C10_13  and  O3_14 
REMARK    5  A    between atoms: C11_16  and  C12_17 
REMARK    6  A    between atoms: C11_16  and  C14_19 
REMARK    7  A    between atoms: C15_22  and  O5_23 
ROOT
HETATM    1  C5  UNL     1      13.610  16.595  26.688  1.00  0.00     0.139 C 
HETATM    2  O2  UNL     1      12.834  15.523  26.269  1.00  0.00    -0.369 OA
HETATM    3  C6  UNL     1      13.479  14.952  25.187  1.00  0.00     0.108 C 
HETATM    4  C7  UNL     1      12.653  15.121  23.935  1.00  0.00     0.051 C 
HETATM    5  C8  UNL     1      14.782  15.746  24.972  1.00  0.00     0.052 C 
HETATM    6  C9  UNL     1      15.017  16.113  26.456  1.00  0.00     0.050 C 
HETATM    7  C10 UNL     1      15.302  14.917  27.285  1.00  0.00     0.160 C 
HETATM    8  C11 UNL     1      15.911  13.747  26.600  1.00  0.00     0.102 C 
HETATM    9  O4  UNL     1      15.284  13.383  25.394  1.00  0.00    -0.344 OA
HETATM   10  C15 UNL     1      13.895  13.545  25.469  1.00  0.00     0.294 C 
ENDROOT
BRANCH   1  11
HETATM   11  C4  UNL     1      13.270  17.172  27.990  1.00  0.00     0.151 C 
BRANCH  11  12
HETATM   12  C3  UNL     1      12.741  18.571  27.731  1.00  0.00     0.288 C 
HETATM   13  N1  UNL     1      11.650  18.695  26.891  1.00  0.00    -0.416 NA
HETATM   14  O1  UNL     1      13.340  19.486  28.307  1.00  0.00    -0.258 OA
BRANCH  13  15
HETATM   15  C2  UNL     1      10.583  18.816  26.071  1.00  0.00     0.217 C 
HETATM   16  C1  UNL     1      10.050  17.451  25.625  1.00  0.00     0.041 C 
ENDBRANCH  13  15
ENDBRANCH  11  12
ENDBRANCH   1  11
BRANCH   7  17
HETATM   17  O3  UNL     1      16.264  15.340  28.248  1.00  0.00    -0.392 OA
ATOM     18  H3  UNL     1      17.105  15.063  27.905  1.00  0.00     0.210 HD
ENDBRANCH   7  17
BRANCH  10  19
HETATM   19  O5  UNL     1      13.267  12.646  24.571  1.00  0.00    -0.363 OA
HETATM   20  C16 UNL     1      14.221  11.887  23.891  1.00  0.00     0.204 C 
ENDBRANCH  10  19
BRANCH   8  21
HETATM   21  C12 UNL     1      15.823  12.537  27.497  1.00  0.00     0.037 C 
HETATM   22  C13 UNL     1      17.106  11.876  27.830  1.00  0.00     0.008 C 
ENDBRANCH   8  21
BRANCH   8  23
HETATM   23  C14 UNL     1      17.385  13.929  26.300  1.00  0.00     0.155 C 
HETATM   24 CL1  UNL     1      17.587  13.494  24.563  1.00  0.00    -0.127 Cl
ENDBRANCH   8  23
TORSDOF 7
ENDMDL
MODEL 4
REMARK VINA RESULT: -6.108726150      2.816      4.131
REMARK  7 active torsions:
REMARK  status: ('A' for Active; 'I' for Inactive)
REMARK    1  A    between atoms: C2_2  and  N1_3 
REMARK       I    between atoms: N1_3  and  C3_4 
REMARK    2  A    between atoms: C3_4  and  C4_6 
REMARK    3  A    between atoms: C4_6  and  C5_7 
REMARK    4  A    between atoms: C10_13  and  O3_14 
REMARK    5  A    between atoms: C11_16  and  C12_17 
REMARK    6  A    between atoms: C11_16  and  C14_19 
REMARK    7  A    between atoms: C15_22  and  O5_23 
ROOT
HETATM    1  C5  UNL     1      14.678  16.334  26.305  1.00  0.00     0.139 C 
HETATM    2  O2  UNL     1      15.004  15.769  25.080  1.00  0.00    -0.369 OA
HETATM    3  C6  UNL     1      15.925  14.768  25.327  1.00  0.00     0.108 C 
HETATM    4  C7  UNL     1      17.260  15.120  24.716  1.00  0.00     0.051 C 
HETATM    5  C8  UNL     1      16.133  14.715  26.852  1.00  0.00     0.052 C 
HETATM    6  C9  UNL     1      14.704  15.159  27.245  1.00  0.00     0.050 C 
HETATM    7  C10 UNL     1      13.686  14.156  26.853  1.00  0.00     0.160 C 
HETATM    8  C11 UNL     1      14.130  12.741  26.752  1.00  0.00     0.102 C 
HETATM    9  O4  UNL     1      15.322  12.553  26.028  1.00  0.00    -0.344 OA
HETATM   10  C15 UNL     1      15.401  13.424  24.935  1.00  0.00     0.294 C 
ENDROOT
BRANCH   1  11
HETATM   11  C4  UNL     1      13.513  17.221  26.321  1.00  0.00     0.151 C 
BRANCH  11  12
HETATM   12  C3  UNL     1      13.485  17.895  27.681  1.00  0.00     0.288 C 
HETATM   13  N1  UNL     1      14.670  18.429  28.152  1.00  0.00    -0.416 NA
HETATM   14  O1  UNL     1      12.389  17.909  28.250  1.00  0.00    -0.258 OA
BRANCH  13  15
HETATM   15  C2  UNL     1      15.828  18.951  28.612  1.00  0.00     0.217 C 
HETATM   16  C1  UNL     1      16.863  17.863  28.917  1.00  0.00     0.041 C 
ENDBRANCH  13  15
ENDBRANCH  11  12
ENDBRANCH   1  11
BRANCH   7  17
HETATM   17  O3  UNL     1      12.710  14.177  27.894  1.00  0.00    -0.392 OA
ATOM     18  H3  UNL     1      12.727  15.062  28.239  1.00  0.00     0.210 HD
ENDBRANCH   7  17
BRANCH  10  19
HETATM   19  O5  UNL     1      16.211  12.843  23.927  1.00  0.00    -0.363 OA
HETATM   20  C16 UNL     1      15.547  11.776  23.321  1.00  0.00     0.204 C 
ENDBRANCH  10  19
BRANCH   8  21
HETATM   21  C12 UNL     1      13.076  11.932  26.038  1.00  0.00     0.037 C 
HETATM   22  C13 UNL     1      12.165  11.142  26.897  1.00  0.00     0.008 C 
ENDBRANCH   8  21
BRANCH   8  23
HETATM   23  C14 UNL     1      14.316  12.074  28.100  1.00  0.00     0.155 C 
HETATM   24 CL1  UNL     1      16.027  11.512  28.134  1.00  0.00    -0.127 Cl
ENDBRANCH   8  23
TORSDOF 7
ENDMDL
MODEL 5
REMARK VINA RESULT: -5.980166438      7.444     10.388
REMARK  7 active torsions:
REMARK  status: ('A' for Active; 'I' for Inactive)
REMARK    1  A    between atoms: C2_2  and  N1_3 
REMARK       I    between atoms: N1_3  and  C3_4 
REMARK    2  A    between atoms: C3_4  and  C4_6 
REMARK    3  A    between atoms: C4_6  and  C5_7 
REMARK    4  A    between atoms: C10_13  and  O3_14 
REMARK    5  A    between atoms: C11_16  and  C12_17 
REMARK    6  A    between atoms: C11_16  and  C14_19 
REMARK    7  A    between atoms: C15_22  and  O5_23 
ROOT
HETATM    1  C5  UNL     1       6.758  18.202  23.206  1.00  0.00     0.139 C 
HETATM    2  O2  UNL     1       6.961  18.886  22.015  1.00  0.00    -0.369 OA
HETATM    3  C6  UNL     1       6.530  18.061  20.993  1.00  0.00     0.108 C 
HETATM    4  C7  UNL     1       7.695  17.647  20.127  1.00  0.00     0.051 C 
HETATM    5  C8  UNL     1       5.985  16.779  21.651  1.00  0.00     0.052 C 
HETATM    6  C9  UNL     1       5.482  17.444  22.954  1.00  0.00     0.050 C 
HETATM    7  C10 UNL     1       4.361  18.380  22.701  1.00  0.00     0.160 C 
HETATM    8  C11 UNL     1       3.514  18.118  21.508  1.00  0.00     0.102 C 
HETATM    9  O4  UNL     1       4.233  17.866  20.324  1.00  0.00    -0.344 OA
HETATM   10  C15 UNL     1       5.383  18.660  20.244  1.00  0.00     0.294 C 
ENDROOT
BRANCH   1  11
HETATM   11  C4  UNL     1       6.878  18.988  24.435  1.00  0.00     0.151 C 
BRANCH  11  12
HETATM   12  C3  UNL     1       8.014  18.385  25.240  1.00  0.00     0.288 C 
HETATM   13  N1  UNL     1       7.980  18.548  26.613  1.00  0.00    -0.416 NA
HETATM   14  O1  UNL     1       8.878  17.791  24.586  1.00  0.00    -0.258 OA
BRANCH  13  15
HETATM   15  C2  UNL     1       7.946  18.706  27.954  1.00  0.00     0.217 C 
HETATM   16  C1  UNL     1       7.761  20.175  28.350  1.00  0.00     0.041 C 
ENDBRANCH  13  15
ENDBRANCH  11  12
ENDBRANCH   1  11
BRANCH   7  17
HETATM   17  O3  UNL     1       3.492  18.247  23.824  1.00  0.00    -0.392 OA
ATOM     18  H3  UNL     1       3.308  17.317  23.893  1.00  0.00     0.210 HD
ENDBRANCH   7  17
BRANCH  10  19
HETATM   19  O5  UNL     1       5.723  18.861  18.883  1.00  0.00    -0.363 OA
HETATM   20  C16 UNL     1       5.659  20.216  18.558  1.00  0.00     0.204 C 
ENDBRANCH  10  19
BRANCH   8  21
HETATM   21  C12 UNL     1       2.655  19.326  21.225  1.00  0.00     0.037 C 
HETATM   22  C13 UNL     1       1.206  19.171  21.483  1.00  0.00     0.008 C 
ENDBRANCH   8  21
BRANCH   8  23
HETATM   23  C14 UNL     1       2.550  16.965  21.700  1.00  0.00     0.155 C 
HETATM   24 CL1  UNL     1       2.475  16.122  20.108  1.00  0.00    -0.127 Cl
ENDBRANCH   8  23
TORSDOF 7
ENDMDL
