MODEL 1
REMARK VINA RESULT: -7.567467295      0.000      0.000
REMARK  9 active torsions:
REMARK  status: ('A' for Active; 'I' for Inactive)
REMARK    1  A    between atoms: C2_2  and  N1_4 
REMARK    2  A    between atoms: C2_2  and  C4_8 
REMARK    3  A    between atoms: C4_8  and  C5_9 
REMARK       I    between atoms: C5_9  and  N2_11 
REMARK    4  A    between atoms: C7_13  and  O2_14 
REMARK    5  A    between atoms: O2_14  and  C8_15 
REMARK    6  A    between atoms: C11_18  and  S1_19 
REMARK    7  A    between atoms: S1_19  and  N3_22 
REMARK    8  A    between atoms: N3_22  and  C12_24 
REMARK    9  A    between atoms: C18_31  and  C19_32 
ROOT
HETATM    1  C5  UNL     1       0.709  -1.835  24.913  1.00  0.00     0.222 C 
HETATM    2  O1  UNL     1      -0.249  -1.188  25.375  1.00  0.00    -0.273 OA
HETATM    3  N2  UNL     1       1.854  -1.163  24.429  1.00  0.00    -0.342 N 
HETATM    4  C6  UNL     1       3.087  -1.747  23.842  1.00  0.00     0.161 C 
HETATM    5  C7  UNL     1       3.230  -0.444  23.012  1.00  0.00     0.170 C 
HETATM    6  C18 UNL     1       2.466   0.104  24.221  1.00  0.00     0.125 C 
ENDROOT
BRANCH   5   7
HETATM    7  O2  UNL     1       2.574  -0.558  21.866  1.00  0.00    -0.340 OA
BRANCH   7   8
HETATM    8  C8  UNL     1       2.836  -0.655  20.555  1.00  0.00     0.091 A 
HETATM    9  C9  UNL     1       3.581  -1.800  20.111  1.00  0.00     0.040 A 
HETATM   10  C10 UNL     1       3.880  -1.961  18.786  1.00  0.00     0.028 A 
HETATM   11  C11 UNL     1       3.502  -1.068  17.824  1.00  0.00     0.081 A 
HETATM   12  C16 UNL     1       2.793   0.020  18.244  1.00  0.00     0.052 A 
HETATM   13  C17 UNL     1       2.458   0.234  19.594  1.00  0.00     0.068 A 
HETATM   14 CL1  UNL     1       1.539   1.660  20.004  1.00  0.00    -0.081 Cl
BRANCH  11  15
HETATM   15  S1  UNL     1       3.893  -1.290  16.167  1.00  0.00     0.259 S 
HETATM   16  O3  UNL     1       5.374  -1.618  16.105  1.00  0.00    -0.201 OA
HETATM   17  O4  UNL     1       3.761   0.064  15.496  1.00  0.00    -0.201 OA
BRANCH  15  18
HETATM   18  N3  UNL     1       2.935  -2.463  15.443  1.00  0.00    -0.307 N 
ATOM     19  H3  UNL     1       3.366  -3.162  14.839  1.00  0.00     0.173 HD
BRANCH  18  20
HETATM   20  C12 UNL     1       1.549  -2.491  15.657  1.00  0.00     0.029 C 
HETATM   21  C13 UNL     1       0.790  -1.217  15.604  1.00  0.00     0.038 C 
HETATM   22  C14 UNL     1       1.203  -3.191  16.971  1.00  0.00     0.038 C 
HETATM   23  C15 UNL     1       0.967  -3.415  14.558  1.00  0.00     0.038 C 
ENDBRANCH  18  20
ENDBRANCH  15  18
ENDBRANCH  11  15
ENDBRANCH   7   8
ENDBRANCH   5   7
BRANCH   6  24
HETATM   24  C19 UNL     1       1.677   1.331  24.025  1.00  0.00    -0.028 C 
HETATM   25  C20 UNL     1       2.620   2.359  23.363  1.00  0.00     0.016 C 
HETATM   26  C21 UNL     1       1.316   1.940  25.386  1.00  0.00     0.016 C 
HETATM   27  C22 UNL     1       0.442   1.224  23.202  1.00  0.00     0.016 C 
ENDBRANCH   6  24
BRANCH   1  28
HETATM   28  C4  UNL     1       0.610  -3.313  24.889  1.00  0.00     0.140 C 
BRANCH  28  29
HETATM   29  C2  UNL     1      -0.508  -3.742  23.939  1.00  0.00     0.124 C 
HETATM   30  C1  UNL     1      -0.308  -2.986  22.635  1.00  0.00     0.046 C 
HETATM   31  C3  UNL     1      -0.391  -5.212  23.601  1.00  0.00     0.046 C 
BRANCH  29  32
HETATM   32  N1  UNL     1      -1.752  -3.401  24.566  1.00  0.00    -0.071 N 
ATOM     33  H13 UNL     1      -2.006  -2.431  24.383  1.00  0.00     0.275 HD
ATOM     34  H12 UNL     1      -2.539  -3.862  24.108  1.00  0.00     0.275 HD
ATOM     35  H11 UNL     1      -1.738  -3.597  25.567  1.00  0.00     0.275 HD
ENDBRANCH  29  32
ENDBRANCH  28  29
ENDBRANCH   1  28
TORSDOF 9
ENDMDL
MODEL 2
REMARK VINA RESULT: -7.244897272      1.966      2.635
REMARK  9 active torsions:
REMARK  status: ('A' for Active; 'I' for Inactive)
REMARK    1  A    between atoms: C2_2  and  N1_4 
REMARK    2  A    between atoms: C2_2  and  C4_8 
REMARK    3  A    between atoms: C4_8  and  C5_9 
REMARK       I    between atoms: C5_9  and  N2_11 
REMARK    4  A    between atoms: C7_13  and  O2_14 
REMARK    5  A    between atoms: O2_14  and  C8_15 
REMARK    6  A    between atoms: C11_18  and  S1_19 
REMARK    7  A    between atoms: S1_19  and  N3_22 
REMARK    8  A    between atoms: N3_22  and  C12_24 
REMARK    9  A    between atoms: C18_31  and  C19_32 
ROOT
HETATM    1  C5  UNL     1       0.456  -1.612  25.691  1.00  0.00     0.222 C 
HETATM    2  O1  UNL     1      -0.315  -0.741  26.135  1.00  0.00    -0.273 OA
HETATM    3  N2  UNL     1       1.634  -1.236  25.007  1.00  0.00    -0.342 N 
HETATM    4  C6  UNL     1       2.670  -2.114  24.405  1.00  0.00     0.161 C 
HETATM    5  C7  UNL     1       2.937  -0.982  23.377  1.00  0.00     0.170 C 
HETATM    6  C18 UNL     1       2.427  -0.146  24.554  1.00  0.00     0.125 C 
ENDROOT
BRANCH   5   7
HETATM    7  O2  UNL     1       2.140  -1.122  22.326  1.00  0.00    -0.340 OA
BRANCH   7   8
HETATM    8  C8  UNL     1       2.234  -1.271  20.998  1.00  0.00     0.091 A 
HETATM    9  C9  UNL     1       2.093  -0.093  20.187  1.00  0.00     0.040 A 
HETATM   10  C10 UNL     1       2.180  -0.175  18.825  1.00  0.00     0.028 A 
HETATM   11  C11 UNL     1       2.399  -1.350  18.163  1.00  0.00     0.081 A 
HETATM   12  C16 UNL     1       2.533  -2.470  18.931  1.00  0.00     0.052 A 
HETATM   13  C17 UNL     1       2.453  -2.441  20.336  1.00  0.00     0.068 A 
HETATM   14 CL1  UNL     1       2.652  -3.940  21.208  1.00  0.00    -0.081 Cl
BRANCH  11  15
HETATM   15  S1  UNL     1       2.499  -1.428  16.451  1.00  0.00     0.259 S 
HETATM   16  O3  UNL     1       1.117  -1.105  15.913  1.00  0.00    -0.201 OA
HETATM   17  O4  UNL     1       2.733  -2.882  16.086  1.00  0.00    -0.201 OA
BRANCH  15  18
HETATM   18  N3  UNL     1       3.689  -0.413  15.840  1.00  0.00    -0.307 N 
ATOM     19  H3  UNL     1       3.422   0.458  15.381  1.00  0.00     0.173 HD
BRANCH  18  20
HETATM   20  C12 UNL     1       5.048  -0.749  15.953  1.00  0.00     0.029 C 
HETATM   21  C13 UNL     1       5.468  -2.141  15.658  1.00  0.00     0.038 C 
HETATM   22  C14 UNL     1       5.602  -0.371  17.326  1.00  0.00     0.038 C 
HETATM   23  C15 UNL     1       5.798   0.174  14.961  1.00  0.00     0.038 C 
ENDBRANCH  18  20
ENDBRANCH  15  18
ENDBRANCH  11  15
ENDBRANCH   7   8
ENDBRANCH   5   7
BRANCH   6  24
HETATM   24  C19 UNL     1       1.844   1.171  24.248  1.00  0.00    -0.028 C 
HETATM   25  C20 UNL     1       2.923   1.961  23.477  1.00  0.00     0.016 C 
HETATM   26  C21 UNL     1       1.626   1.958  25.547  1.00  0.00     0.016 C 
HETATM   27  C22 UNL     1       0.585   1.191  23.454  1.00  0.00     0.016 C 
ENDBRANCH   6  24
BRANCH   1  28
HETATM   28  C4  UNL     1       0.102  -3.034  25.900  1.00  0.00     0.140 C 
BRANCH  28  29
HETATM   29  C2  UNL     1      -0.880  -3.489  24.819  1.00  0.00     0.124 C 
HETATM   30  C1  UNL     1      -0.061  -4.113  23.700  1.00  0.00     0.046 C 
HETATM   31  C3  UNL     1      -1.788  -4.580  25.342  1.00  0.00     0.046 C 
BRANCH  29  32
HETATM   32  N1  UNL     1      -1.589  -2.325  24.373  1.00  0.00    -0.071 N 
ATOM     33  H13 UNL     1      -1.929  -2.440  23.419  1.00  0.00     0.275 HD
ATOM     34  H12 UNL     1      -2.485  -2.229  24.852  1.00  0.00     0.275 HD
ATOM     35  H11 UNL     1      -1.026  -1.480  24.467  1.00  0.00     0.275 HD
ENDBRANCH  29  32
ENDBRANCH  28  29
ENDBRANCH   1  28
TORSDOF 9
ENDMDL
MODEL 3
REMARK VINA RESULT: -7.145775073      1.699      2.201
REMARK  9 active torsions:
REMARK  status: ('A' for Active; 'I' for Inactive)
REMARK    1  A    between atoms: C2_2  and  N1_4 
REMARK    2  A    between atoms: C2_2  and  C4_8 
REMARK    3  A    between atoms: C4_8  and  C5_9 
REMARK       I    between atoms: C5_9  and  N2_11 
REMARK    4  A    between atoms: C7_13  and  O2_14 
REMARK    5  A    between atoms: O2_14  and  C8_15 
REMARK    6  A    between atoms: C11_18  and  S1_19 
REMARK    7  A    between atoms: S1_19  and  N3_22 
REMARK    8  A    between atoms: N3_22  and  C12_24 
REMARK    9  A    between atoms: C18_31  and  C19_32 
ROOT
HETATM    1  C5  UNL     1       0.590  -1.645  25.559  1.00  0.00     0.222 C 
HETATM    2  O1  UNL     1      -0.122  -0.844  26.192  1.00  0.00    -0.273 OA
HETATM    3  N2  UNL     1       1.762  -1.195  24.911  1.00  0.00    -0.342 N 
HETATM    4  C6  UNL     1       2.733  -1.984  24.110  1.00  0.00     0.161 C 
HETATM    5  C7  UNL     1       3.022  -0.688  23.305  1.00  0.00     0.170 C 
HETATM    6  C18 UNL     1       2.592  -0.072  24.641  1.00  0.00     0.125 C 
ENDROOT
BRANCH   5   7
HETATM    7  O2  UNL     1       2.185  -0.590  22.282  1.00  0.00    -0.340 OA
BRANCH   7   8
HETATM    8  C8  UNL     1       2.199  -0.717  20.948  1.00  0.00     0.091 A 
HETATM    9  C9  UNL     1       2.298  -2.046  20.410  1.00  0.00     0.040 A 
HETATM   10  C10 UNL     1       2.315  -2.246  19.057  1.00  0.00     0.028 A 
HETATM   11  C11 UNL     1       2.242  -1.225  18.153  1.00  0.00     0.081 A 
HETATM   12  C16 UNL     1       2.149   0.038  18.662  1.00  0.00     0.052 A 
HETATM   13  C17 UNL     1       2.126   0.300  20.045  1.00  0.00     0.068 A 
HETATM   14 CL1  UNL     1       1.993   1.958  20.572  1.00  0.00    -0.081 Cl
BRANCH  11  15
HETATM   15  S1  UNL     1       2.270  -1.501  16.459  1.00  0.00     0.259 S 
HETATM   16  O3  UNL     1       0.867  -1.234  15.946  1.00  0.00    -0.201 OA
HETATM   17  O4  UNL     1       2.486  -2.989  16.256  1.00  0.00    -0.201 OA
BRANCH  15  18
HETATM   18  N3  UNL     1       3.435  -0.572  15.686  1.00  0.00    -0.307 N 
ATOM     19  H3  UNL     1       3.146   0.176  15.055  1.00  0.00     0.173 HD
BRANCH  18  20
HETATM   20  C12 UNL     1       4.802  -0.811  15.897  1.00  0.00     0.029 C 
HETATM   21  C13 UNL     1       5.335  -0.746  17.280  1.00  0.00     0.038 C 
HETATM   22  C14 UNL     1       5.667   0.091  15.017  1.00  0.00     0.038 C 
HETATM   23  C15 UNL     1       5.069  -2.243  15.371  1.00  0.00     0.038 C 
ENDBRANCH  18  20
ENDBRANCH  15  18
ENDBRANCH  11  15
ENDBRANCH   7   8
ENDBRANCH   5   7
BRANCH   6  24
HETATM   24  C19 UNL     1       2.065   1.302  24.615  1.00  0.00    -0.028 C 
HETATM   25  C20 UNL     1       3.143   2.174  23.938  1.00  0.00     0.016 C 
HETATM   26  C21 UNL     1       1.955   1.844  26.046  1.00  0.00     0.016 C 
HETATM   27  C22 UNL     1       0.771   1.523  23.916  1.00  0.00     0.016 C 
ENDBRANCH   6  24
BRANCH   1  28
HETATM   28  C4  UNL     1       0.173  -3.065  25.508  1.00  0.00     0.140 C 
BRANCH  28  29
HETATM   29  C2  UNL     1      -0.907  -3.251  24.442  1.00  0.00     0.124 C 
HETATM   30  C1  UNL     1      -0.200  -3.553  23.131  1.00  0.00     0.046 C 
HETATM   31  C3  UNL     1      -1.765  -4.458  24.751  1.00  0.00     0.046 C 
BRANCH  29  32
HETATM   32  N1  UNL     1      -1.652  -2.027  24.375  1.00  0.00    -0.071 N 
ATOM     33  H13 UNL     1      -1.052  -1.240  24.128  1.00  0.00     0.275 HD
ATOM     34  H12 UNL     1      -2.274  -2.013  23.566  1.00  0.00     0.275 HD
ATOM     35  H11 UNL     1      -2.163  -1.847  25.239  1.00  0.00     0.275 HD
ENDBRANCH  29  32
ENDBRANCH  28  29
ENDBRANCH   1  28
TORSDOF 9
ENDMDL
MODEL 4
REMARK VINA RESULT: -7.133952710      1.114      1.373
REMARK  9 active torsions:
REMARK  status: ('A' for Active; 'I' for Inactive)
REMARK    1  A    between atoms: C2_2  and  N1_4 
REMARK    2  A    between atoms: C2_2  and  C4_8 
REMARK    3  A    between atoms: C4_8  and  C5_9 
REMARK       I    between atoms: C5_9  and  N2_11 
REMARK    4  A    between atoms: C7_13  and  O2_14 
REMARK    5  A    between atoms: O2_14  and  C8_15 
REMARK    6  A    between atoms: C11_18  and  S1_19 
REMARK    7  A    between atoms: S1_19  and  N3_22 
REMARK    8  A    between atoms: N3_22  and  C12_24 
REMARK    9  A    between atoms: C18_31  and  C19_32 
ROOT
HETATM    1  C5  UNL     1       0.514  -1.518  25.159  1.00  0.00     0.222 C 
HETATM    2  O1  UNL     1      -0.431  -0.756  25.434  1.00  0.00    -0.273 OA
HETATM    3  N2  UNL     1       1.716  -0.997  24.629  1.00  0.00    -0.342 N 
HETATM    4  C6  UNL     1       2.945  -1.731  24.236  1.00  0.00     0.161 C 
HETATM    5  C7  UNL     1       3.200  -0.613  23.189  1.00  0.00     0.170 C 
HETATM    6  C18 UNL     1       2.403   0.182  24.229  1.00  0.00     0.125 C 
ENDROOT
BRANCH   5   7
HETATM    7  O2  UNL     1       2.599  -0.912  22.047  1.00  0.00    -0.340 OA
BRANCH   7   8
HETATM    8  C8  UNL     1       2.908  -1.079  20.754  1.00  0.00     0.091 A 
HETATM    9  C9  UNL     1       2.974   0.097  19.931  1.00  0.00     0.040 A 
HETATM   10  C10 UNL     1       3.287  -0.004  18.603  1.00  0.00     0.028 A 
HETATM   11  C11 UNL     1       3.549  -1.195  17.988  1.00  0.00     0.081 A 
HETATM   12  C16 UNL     1       3.487  -2.313  18.768  1.00  0.00     0.052 A 
HETATM   13  C17 UNL     1       3.171  -2.266  20.139  1.00  0.00     0.068 A 
HETATM   14 CL1  UNL     1       3.133  -3.765  21.032  1.00  0.00    -0.081 Cl
BRANCH  11  15
HETATM   15  S1  UNL     1       3.935  -1.296  16.318  1.00  0.00     0.259 S 
HETATM   16  O3  UNL     1       5.401  -1.676  16.227  1.00  0.00    -0.201 OA
HETATM   17  O4  UNL     1       3.858   0.113  15.760  1.00  0.00    -0.201 OA
BRANCH  15  18
HETATM   18  N3  UNL     1       2.932  -2.366  15.501  1.00  0.00    -0.307 N 
ATOM     19  H3  UNL     1       3.332  -3.007  14.815  1.00  0.00     0.173 HD
BRANCH  18  20
HETATM   20  C12 UNL     1       1.551  -2.391  15.751  1.00  0.00     0.029 C 
HETATM   21  C13 UNL     1       0.849  -1.110  16.010  1.00  0.00     0.038 C 
HETATM   22  C14 UNL     1       1.208  -3.355  16.886  1.00  0.00     0.038 C 
HETATM   23  C15 UNL     1       0.903  -3.020  14.493  1.00  0.00     0.038 C 
ENDBRANCH  18  20
ENDBRANCH  15  18
ENDBRANCH  11  15
ENDBRANCH   7   8
ENDBRANCH   5   7
BRANCH   6  24
HETATM   24  C19 UNL     1       1.692   1.383  23.762  1.00  0.00    -0.028 C 
HETATM   25  C20 UNL     1       2.751   2.300  23.115  1.00  0.00     0.016 C 
HETATM   26  C21 UNL     1       1.162   2.174  24.966  1.00  0.00     0.016 C 
HETATM   27  C22 UNL     1       0.582   1.183  22.791  1.00  0.00     0.016 C 
ENDBRANCH   6  24
BRANCH   1  28
HETATM   28  C4  UNL     1       0.340  -2.968  25.402  1.00  0.00     0.140 C 
BRANCH  28  29
HETATM   29  C2  UNL     1      -0.646  -3.549  24.387  1.00  0.00     0.124 C 
HETATM   30  C1  UNL     1      -0.218  -3.061  23.012  1.00  0.00     0.046 C 
HETATM   31  C3  UNL     1      -0.553  -5.059  24.351  1.00  0.00     0.046 C 
BRANCH  29  32
HETATM   32  N1  UNL     1      -1.951  -3.068  24.740  1.00  0.00    -0.071 N 
ATOM     33  H13 UNL     1      -2.157  -3.243  25.722  1.00  0.00     0.275 HD
ATOM     34  H12 UNL     1      -1.981  -2.048  24.749  1.00  0.00     0.275 HD
ATOM     35  H11 UNL     1      -2.673  -3.455  24.134  1.00  0.00     0.275 HD
ENDBRANCH  29  32
ENDBRANCH  28  29
ENDBRANCH   1  28
TORSDOF 9
ENDMDL
MODEL 5
REMARK VINA RESULT: -7.085975350      1.980      2.512
REMARK  9 active torsions:
REMARK  status: ('A' for Active; 'I' for Inactive)
REMARK    1  A    between atoms: C2_2  and  N1_4 
REMARK    2  A    between atoms: C2_2  and  C4_8 
REMARK    3  A    between atoms: C4_8  and  C5_9 
REMARK       I    between atoms: C5_9  and  N2_11 
REMARK    4  A    between atoms: C7_13  and  O2_14 
REMARK    5  A    between atoms: O2_14  and  C8_15 
REMARK    6  A    between atoms: C11_18  and  S1_19 
REMARK    7  A    between atoms: S1_19  and  N3_22 
REMARK    8  A    between atoms: N3_22  and  C12_24 
REMARK    9  A    between atoms: C18_31  and  C19_32 
ROOT
HETATM    1  C5  UNL     1       1.428  -2.710  24.881  1.00  0.00     0.222 C 
HETATM    2  O1  UNL     1       0.397  -2.787  25.575  1.00  0.00    -0.273 OA
HETATM    3  N2  UNL     1       2.006  -1.451  24.604  1.00  0.00    -0.342 N 
HETATM    4  C6  UNL     1       3.219  -1.150  23.802  1.00  0.00     0.161 C 
HETATM    5  C7  UNL     1       2.571   0.217  23.455  1.00  0.00     0.170 C 
HETATM    6  C18 UNL     1       1.906  -0.047  24.810  1.00  0.00     0.125 C 
ENDROOT
BRANCH   5   7
HETATM    7  O2  UNL     1       1.822   0.103  22.367  1.00  0.00    -0.340 OA
BRANCH   7   8
HETATM    8  C8  UNL     1       1.972  -0.125  21.055  1.00  0.00     0.091 A 
HETATM    9  C9  UNL     1       2.034  -1.494  20.623  1.00  0.00     0.040 A 
HETATM   10  C10 UNL     1       2.184  -1.796  19.297  1.00  0.00     0.028 A 
HETATM   11  C11 UNL     1       2.284  -0.844  18.323  1.00  0.00     0.081 A 
HETATM   12  C16 UNL     1       2.226   0.457  18.732  1.00  0.00     0.052 A 
HETATM   13  C17 UNL     1       2.071   0.824  20.082  1.00  0.00     0.068 A 
HETATM   14 CL1  UNL     1       2.000   2.522  20.477  1.00  0.00    -0.081 Cl
BRANCH  11  15
HETATM   15  S1  UNL     1       2.477  -1.248  16.666  1.00  0.00     0.259 S 
HETATM   16  O3  UNL     1       1.117  -1.085  16.012  1.00  0.00    -0.201 OA
HETATM   17  O4  UNL     1       2.767  -2.736  16.604  1.00  0.00    -0.201 OA
BRANCH  15  18
HETATM   18  N3  UNL     1       3.671  -0.329  15.926  1.00  0.00    -0.307 N 
ATOM     19  H3  UNL     1       3.419   0.544  15.463  1.00  0.00     0.173 HD
BRANCH  18  20
HETATM   20  C12 UNL     1       5.010  -0.747  15.937  1.00  0.00     0.029 C 
HETATM   21  C13 UNL     1       5.324  -2.154  15.585  1.00  0.00     0.038 C 
HETATM   22  C14 UNL     1       5.680  -0.437  17.275  1.00  0.00     0.038 C 
HETATM   23  C15 UNL     1       5.745   0.154  14.914  1.00  0.00     0.038 C 
ENDBRANCH  18  20
ENDBRANCH  15  18
ENDBRANCH  11  15
ENDBRANCH   7   8
ENDBRANCH   5   7
BRANCH   6  24
HETATM   24  C19 UNL     1       0.618   0.616  25.073  1.00  0.00    -0.028 C 
HETATM   25  C20 UNL     1       0.865   2.132  24.927  1.00  0.00     0.016 C 
HETATM   26  C21 UNL     1       0.221   0.415  26.541  1.00  0.00     0.016 C 
HETATM   27  C22 UNL     1      -0.532   0.238  24.207  1.00  0.00     0.016 C 
ENDBRANCH   6  24
BRANCH   1  28
HETATM   28  C4  UNL     1       2.021  -3.965  24.365  1.00  0.00     0.140 C 
BRANCH  28  29
HETATM   29  C2  UNL     1       1.161  -4.515  23.226  1.00  0.00     0.124 C 
HETATM   30  C1  UNL     1       2.096  -4.845  22.074  1.00  0.00     0.046 C 
HETATM   31  C3  UNL     1       0.505  -5.817  23.629  1.00  0.00     0.046 C 
BRANCH  29  32
HETATM   32  N1  UNL     1       0.221  -3.490  22.872  1.00  0.00    -0.071 N 
ATOM     33  H13 UNL     1      -0.141  -3.017  23.700  1.00  0.00     0.275 HD
ATOM     34  H12 UNL     1       0.685  -2.699  22.426  1.00  0.00     0.275 HD
ATOM     35  H11 UNL     1      -0.534  -3.854  22.292  1.00  0.00     0.275 HD
ENDBRANCH  29  32
ENDBRANCH  28  29
ENDBRANCH   1  28
TORSDOF 9
ENDMDL
