MODEL 1
REMARK VINA RESULT: -8.085296785      0.000      0.000
REMARK  2 active torsions:
REMARK  status: ('A' for Active; 'I' for Inactive)
REMARK    1  A    between atoms: C2_2  and  C4_4 
REMARK    2  A    between atoms: C2_2  and  N1_6 
ROOT
HETATM    1  N1  UNL     1      30.378  37.103  38.719  1.00  0.00    -0.305 N 
HETATM    2  C5  UNL     1      30.841  38.388  38.154  1.00  0.00     0.225 C 
HETATM    3  O1  UNL     1      31.988  38.587  37.812  1.00  0.00    -0.273 OA
HETATM    4  C6  UNL     1      29.977  39.613  37.924  1.00  0.00     0.103 C 
HETATM    5  C7  UNL     1      28.986  39.218  36.865  1.00  0.00     0.014 C 
HETATM    6  C8  UNL     1      27.779  38.562  37.388  1.00  0.00     0.041 C 
HETATM    7  C9  UNL     1      27.890  37.614  38.483  1.00  0.00    -0.029 A 
HETATM    8  C10 UNL     1      26.649  37.313  38.991  1.00  0.00     0.011 A 
HETATM    9  C11 UNL     1      26.517  36.459  40.066  1.00  0.00     0.029 A 
HETATM   10  C12 UNL     1      27.592  35.881  40.671  1.00  0.00     0.072 A 
HETATM   11  N2  UNL     1      27.543  35.006  41.764  1.00  0.00    -0.100 NA
HETATM   12  C13 UNL     1      28.867  36.179  40.165  1.00  0.00     0.098 A 
HETATM   13  N3  UNL     1      29.998  35.711  40.818  1.00  0.00    -0.098 NA
HETATM   14  C14 UNL     1      29.016  37.008  39.110  1.00  0.00     0.070 A 
ENDROOT
BRANCH   1  15
HETATM   15  C2  UNL     1      31.213  36.091  38.711  1.00  0.00     0.045 C 
HETATM   16  C1  UNL     1      32.563  36.694  39.268  1.00  0.00     0.039 C 
HETATM   17  C3  UNL     1      31.678  34.723  38.638  1.00  0.00     0.039 C 
BRANCH  15  18
HETATM   18  C4  UNL     1      31.281  36.136  37.126  1.00  0.00     0.145 C 
HETATM   19 CL1  UNL     1      33.015  35.926  36.615  1.00  0.00    -0.128 Cl
ENDBRANCH  15  18
ENDBRANCH   1  15
TORSDOF 2
ENDMDL
MODEL 2
REMARK VINA RESULT: -7.650645176      2.610      4.946
REMARK  2 active torsions:
REMARK  status: ('A' for Active; 'I' for Inactive)
REMARK    1  A    between atoms: C2_2  and  C4_4 
REMARK    2  A    between atoms: C2_2  and  N1_6 
ROOT
HETATM    1  N1  UNL     1      31.196  37.526  38.012  1.00  0.00    -0.305 N 
HETATM    2  C5  UNL     1      30.166  38.008  38.956  1.00  0.00     0.225 C 
HETATM    3  O1  UNL     1      29.408  38.921  38.699  1.00  0.00    -0.273 OA
HETATM    4  C6  UNL     1      29.912  37.453  40.343  1.00  0.00     0.103 C 
HETATM    5  C7  UNL     1      29.418  36.048  40.134  1.00  0.00     0.014 C 
HETATM    6  C8  UNL     1      30.489  35.048  40.017  1.00  0.00     0.041 C 
HETATM    7  C9  UNL     1      31.699  35.371  39.281  1.00  0.00    -0.029 A 
HETATM    8  C10 UNL     1      32.668  34.420  39.501  1.00  0.00     0.011 A 
HETATM    9  C11 UNL     1      33.917  34.543  38.930  1.00  0.00     0.029 A 
HETATM   10  C12 UNL     1      34.251  35.597  38.134  1.00  0.00     0.072 A 
HETATM   11  N2  UNL     1      35.495  35.796  37.519  1.00  0.00    -0.100 NA
HETATM   12  C13 UNL     1      33.274  36.577  37.899  1.00  0.00     0.098 A 
HETATM   13  N3  UNL     1      33.601  37.726  37.194  1.00  0.00    -0.098 NA
HETATM   14  C14 UNL     1      32.044  36.471  38.445  1.00  0.00     0.070 A 
ENDROOT
BRANCH   1  15
HETATM   15  C2  UNL     1      31.188  38.009  36.792  1.00  0.00     0.045 C 
HETATM   16  C1  UNL     1      30.685  39.496  36.965  1.00  0.00     0.039 C 
HETATM   17  C3  UNL     1      31.464  38.107  35.375  1.00  0.00     0.039 C 
BRANCH  15  18
HETATM   18  C4  UNL     1      29.932  37.112  36.425  1.00  0.00     0.145 C 
HETATM   19 CL1  UNL     1      28.672  38.170  35.649  1.00  0.00    -0.128 Cl
ENDBRANCH  15  18
ENDBRANCH   1  15
TORSDOF 2
ENDMDL
MODEL 3
REMARK VINA RESULT: -7.487967418      2.357      4.345
REMARK  2 active torsions:
REMARK  status: ('A' for Active; 'I' for Inactive)
REMARK    1  A    between atoms: C2_2  and  C4_4 
REMARK    2  A    between atoms: C2_2  and  N1_6 
ROOT
HETATM    1  N1  UNL     1      29.480  36.453  38.853  1.00  0.00    -0.305 N 
HETATM    2  C5  UNL     1      28.950  37.323  37.782  1.00  0.00     0.225 C 
HETATM    3  O1  UNL     1      27.774  37.607  37.681  1.00  0.00    -0.273 OA
HETATM    4  C6  UNL     1      29.770  37.970  36.684  1.00  0.00     0.103 C 
HETATM    5  C7  UNL     1      30.674  38.952  37.376  1.00  0.00     0.014 C 
HETATM    6  C8  UNL     1      31.932  38.368  37.863  1.00  0.00     0.041 C 
HETATM    7  C9  UNL     1      31.930  37.040  38.453  1.00  0.00    -0.029 A 
HETATM    8  C10 UNL     1      33.215  36.576  38.606  1.00  0.00     0.011 A 
HETATM    9  C11 UNL     1      33.452  35.316  39.114  1.00  0.00     0.029 A 
HETATM   10  C12 UNL     1      32.442  34.480  39.483  1.00  0.00     0.072 A 
HETATM   11  N2  UNL     1      32.599  33.189  40.006  1.00  0.00    -0.100 NA
HETATM   12  C13 UNL     1      31.124  34.938  39.334  1.00  0.00     0.098 A 
HETATM   13  N3  UNL     1      30.061  34.083  39.583  1.00  0.00    -0.098 NA
HETATM   14  C14 UNL     1      30.872  36.170  38.843  1.00  0.00     0.070 A 
ENDROOT
BRANCH   1  15
HETATM   15  C2  UNL     1      28.665  36.097  39.817  1.00  0.00     0.045 C 
HETATM   16  C1  UNL     1      27.257  36.650  39.362  1.00  0.00     0.039 C 
HETATM   17  C3  UNL     1      28.182  35.405  40.993  1.00  0.00     0.039 C 
BRANCH  15  18
HETATM   18  C4  UNL     1      29.315  37.170  40.789  1.00  0.00     0.145 C 
HETATM   19 CL1  UNL     1      29.041  36.635  42.507  1.00  0.00    -0.128 Cl
ENDBRANCH  15  18
ENDBRANCH   1  15
TORSDOF 2
ENDMDL
MODEL 4
REMARK VINA RESULT: -7.464930824      2.039      3.731
REMARK  2 active torsions:
REMARK  status: ('A' for Active; 'I' for Inactive)
REMARK    1  A    between atoms: C2_2  and  C4_4 
REMARK    2  A    between atoms: C2_2  and  N1_6 
ROOT
HETATM    1  N1  UNL     1      30.540  37.103  37.546  1.00  0.00    -0.305 N 
HETATM    2  C5  UNL     1      31.703  36.326  37.068  1.00  0.00     0.225 C 
HETATM    3  O1  UNL     1      32.367  36.652  36.106  1.00  0.00    -0.273 OA
HETATM    4  C6  UNL     1      32.222  35.044  37.689  1.00  0.00     0.103 C 
HETATM    5  C7  UNL     1      32.724  35.428  39.053  1.00  0.00     0.014 C 
HETATM    6  C8  UNL     1      31.688  35.421  40.097  1.00  0.00     0.041 C 
HETATM    7  C9  UNL     1      30.354  35.910  39.792  1.00  0.00    -0.029 A 
HETATM    8  C10 UNL     1      29.478  35.585  40.801  1.00  0.00     0.011 A 
HETATM    9  C11 UNL     1      28.143  35.918  40.706  1.00  0.00     0.029 A 
HETATM   10  C12 UNL     1      27.632  36.573  39.626  1.00  0.00     0.072 A 
HETATM   11  N2  UNL     1      26.292  36.945  39.454  1.00  0.00    -0.100 NA
HETATM   12  C13 UNL     1      28.513  36.911  38.587  1.00  0.00     0.098 A 
HETATM   13  N3  UNL     1      28.022  37.471  37.417  1.00  0.00    -0.098 NA
HETATM   14  C14 UNL     1      29.824  36.598  38.664  1.00  0.00     0.070 A 
ENDROOT
BRANCH   1  15
HETATM   15  C2  UNL     1      30.312  38.271  36.994  1.00  0.00     0.045 C 
HETATM   16  C1  UNL     1      30.862  38.121  35.520  1.00  0.00     0.039 C 
HETATM   17  C3  UNL     1      29.760  39.597  36.813  1.00  0.00     0.039 C 
BRANCH  15  18
HETATM   18  C4  UNL     1      31.456  38.932  37.872  1.00  0.00     0.145 C 
HETATM   19 CL1  UNL     1      30.686  40.072  39.063  1.00  0.00    -0.128 Cl
ENDBRANCH  15  18
ENDBRANCH   1  15
TORSDOF 2
ENDMDL
MODEL 5
REMARK VINA RESULT: -7.357902025      1.838      3.626
REMARK  2 active torsions:
REMARK  status: ('A' for Active; 'I' for Inactive)
REMARK    1  A    between atoms: C2_2  and  C4_4 
REMARK    2  A    between atoms: C2_2  and  N1_6 
ROOT
HETATM    1  N1  UNL     1      29.826  37.286  37.857  1.00  0.00    -0.305 N 
HETATM    2  C5  UNL     1      30.952  36.651  37.140  1.00  0.00     0.225 C 
HETATM    3  O1  UNL     1      31.390  37.072  36.089  1.00  0.00    -0.273 OA
HETATM    4  C6  UNL     1      31.704  35.416  37.596  1.00  0.00     0.103 C 
HETATM    5  C7  UNL     1      32.410  35.816  38.863  1.00  0.00     0.014 C 
HETATM    6  C8  UNL     1      31.592  35.669  40.076  1.00  0.00     0.041 C 
HETATM    7  C9  UNL     1      30.183  36.020  40.043  1.00  0.00    -0.029 A 
HETATM    8  C10 UNL     1      29.546  35.577  41.177  1.00  0.00     0.011 A 
HETATM    9  C11 UNL     1      28.190  35.767  41.343  1.00  0.00     0.029 A 
HETATM   10  C12 UNL     1      27.424  36.391  40.405  1.00  0.00     0.072 A 
HETATM   11  N2  UNL     1      26.045  36.622  40.497  1.00  0.00    -0.100 NA
HETATM   12  C13 UNL     1      28.059  36.850  39.240  1.00  0.00     0.098 A 
HETATM   13  N3  UNL     1      27.305  37.384  38.206  1.00  0.00    -0.098 NA
HETATM   14  C14 UNL     1      29.386  36.677  39.062  1.00  0.00     0.070 A 
ENDROOT
BRANCH   1  15
HETATM   15  C2  UNL     1      29.383  38.437  37.410  1.00  0.00     0.045 C 
HETATM   16  C1  UNL     1      29.192  38.206  35.859  1.00  0.00     0.039 C 
HETATM   17  C3  UNL     1      28.826  39.773  37.432  1.00  0.00     0.039 C 
BRANCH  15  18
HETATM   18  C4  UNL     1      30.811  39.094  37.629  1.00  0.00     0.145 C 
HETATM   19 CL1  UNL     1      31.068  40.361  36.349  1.00  0.00    -0.128 Cl
ENDBRANCH  15  18
ENDBRANCH   1  15
TORSDOF 2
ENDMDL
