MODEL 1
REMARK VINA RESULT: -6.788021326      0.000      0.000
REMARK  3 active torsions:
REMARK  status: ('A' for Active; 'I' for Inactive)
REMARK    1  A    between atoms: C2_2  and  N1_3 
REMARK    2  A    between atoms: C2_2  and  C7_15 
REMARK    3  A    between atoms: C7_15  and  C10_18 
ROOT
HETATM    1  N1  UNL     1      30.966  35.573  39.089  1.00  0.00    -0.246 N 
HETATM    2  N2  UNL     1      31.725  35.230  40.117  1.00  0.00    -0.303 N 
ATOM      3  H2  UNL     1      31.350  34.987  41.034  1.00  0.00     0.186 HD
HETATM    4  C3  UNL     1      33.008  35.233  39.839  1.00  0.00     0.126 A 
HETATM    5  C4  UNL     1      33.108  35.608  38.519  1.00  0.00     0.067 A 
HETATM    6  C5  UNL     1      33.967  35.859  37.471  1.00  0.00     0.130 A 
HETATM    7  S1  UNL     1      35.586  35.737  37.553  1.00  0.00    -0.058 SA
HETATM    8  N3  UNL     1      33.230  36.205  36.430  1.00  0.00    -0.288 N 
ATOM      9  H3  UNL     1      33.582  36.451  35.505  1.00  0.00     0.188 HD
HETATM   10  N4  UNL     1      31.959  36.178  36.791  1.00  0.00    -0.282 N 
ATOM     11  H4  UNL     1      31.181  36.404  36.172  1.00  0.00     0.188 HD
HETATM   12  C6  UNL     1      31.822  35.812  38.084  1.00  0.00     0.156 A 
ENDROOT
BRANCH   1  13
HETATM   13  C2  UNL     1      29.499  35.674  39.063  1.00  0.00     0.019 C 
HETATM   14  C1  UNL     1      28.868  34.573  39.826  1.00  0.00     0.066 C 
BRANCH  13  15
HETATM   15  C7  UNL     1      28.949  37.035  39.162  1.00  0.00    -0.001 C 
HETATM   16  C8  UNL     1      27.602  37.005  39.902  1.00  0.00     0.022 C 
HETATM   17  C9  UNL     1      29.840  37.838  40.133  1.00  0.00     0.022 C 
BRANCH  15  18
HETATM   18  C10 UNL     1      28.792  37.865  37.957  1.00  0.00    -0.039 C 
HETATM   19  C11 UNL     1      27.427  38.575  37.994  1.00  0.00     0.015 C 
HETATM   20  C12 UNL     1      29.795  38.998  37.802  1.00  0.00     0.015 C 
HETATM   21  C13 UNL     1      28.756  37.103  36.654  1.00  0.00     0.015 C 
ENDBRANCH  15  18
ENDBRANCH  13  15
ENDBRANCH   1  13
TORSDOF 3
ENDMDL
MODEL 2
REMARK VINA RESULT: -6.604789238      3.420      5.410
REMARK  3 active torsions:
REMARK  status: ('A' for Active; 'I' for Inactive)
REMARK    1  A    between atoms: C2_2  and  N1_3 
REMARK    2  A    between atoms: C2_2  and  C7_15 
REMARK    3  A    between atoms: C7_15  and  C10_18 
ROOT
HETATM    1  N1  UNL     1      28.914  36.513  38.572  1.00  0.00    -0.246 N 
HETATM    2  N2  UNL     1      29.292  35.618  39.469  1.00  0.00    -0.303 N 
ATOM      3  H2  UNL     1      30.171  35.103  39.411  1.00  0.00     0.186 HD
HETATM    4  C3  UNL     1      28.424  35.458  40.441  1.00  0.00     0.126 A 
HETATM    5  C4  UNL     1      27.387  36.318  40.165  1.00  0.00     0.067 A 
HETATM    6  C5  UNL     1      26.161  36.789  40.584  1.00  0.00     0.130 A 
HETATM    7  S1  UNL     1      25.390  36.297  41.928  1.00  0.00    -0.058 SA
HETATM    8  N3  UNL     1      25.761  37.688  39.701  1.00  0.00    -0.288 N 
ATOM      9  H3  UNL     1      24.889  38.214  39.738  1.00  0.00     0.188 HD
HETATM   10  N4  UNL     1      26.685  37.788  38.761  1.00  0.00    -0.282 N 
ATOM     11  H4  UNL     1      26.622  38.415  37.958  1.00  0.00     0.188 HD
HETATM   12  C6  UNL     1      27.722  36.957  38.999  1.00  0.00     0.156 A 
ENDROOT
BRANCH   1  13
HETATM   13  C2  UNL     1      29.647  36.925  37.365  1.00  0.00     0.019 C 
HETATM   14  C1  UNL     1      28.723  37.360  36.293  1.00  0.00     0.066 C 
BRANCH  13  15
HETATM   15  C7  UNL     1      30.894  37.671  37.597  1.00  0.00    -0.001 C 
HETATM   16  C8  UNL     1      31.055  38.768  36.533  1.00  0.00     0.022 C 
HETATM   17  C9  UNL     1      30.723  38.491  38.893  1.00  0.00     0.022 C 
BRANCH  15  18
HETATM   18  C10 UNL     1      32.177  36.959  37.720  1.00  0.00    -0.039 C 
HETATM   19  C11 UNL     1      32.047  35.553  37.108  1.00  0.00     0.015 C 
HETATM   20  C12 UNL     1      33.350  37.581  36.979  1.00  0.00     0.015 C 
HETATM   21  C13 UNL     1      32.623  36.685  39.137  1.00  0.00     0.015 C 
ENDBRANCH  15  18
ENDBRANCH  13  15
ENDBRANCH   1  13
TORSDOF 3
ENDMDL
MODEL 3
REMARK VINA RESULT: -6.539365162      2.963      4.958
REMARK  3 active torsions:
REMARK  status: ('A' for Active; 'I' for Inactive)
REMARK    1  A    between atoms: C2_2  and  N1_3 
REMARK    2  A    between atoms: C2_2  and  C7_15 
REMARK    3  A    between atoms: C7_15  and  C10_18 
ROOT
HETATM    1  N1  UNL     1      28.837  36.961  38.096  1.00  0.00    -0.246 N 
HETATM    2  N2  UNL     1      27.608  37.402  38.304  1.00  0.00    -0.303 N 
ATOM      3  H2  UNL     1      27.062  37.897  37.598  1.00  0.00     0.186 HD
HETATM    4  C3  UNL     1      27.159  37.142  39.510  1.00  0.00     0.126 A 
HETATM    5  C4  UNL     1      28.174  36.472  40.153  1.00  0.00     0.067 A 
HETATM    6  C5  UNL     1      28.571  35.866  41.326  1.00  0.00     0.130 A 
HETATM    7  S1  UNL     1      27.655  35.753  42.665  1.00  0.00    -0.058 SA
HETATM    8  N3  UNL     1      29.800  35.416  41.142  1.00  0.00    -0.288 N 
ATOM      9  H3  UNL     1      30.363  34.920  41.832  1.00  0.00     0.188 HD
HETATM   10  N4  UNL     1      30.174  35.718  39.911  1.00  0.00    -0.282 N 
ATOM     11  H4  UNL     1      31.084  35.482  39.513  1.00  0.00     0.188 HD
HETATM   12  C6  UNL     1      29.201  36.377  39.248  1.00  0.00     0.156 A 
ENDROOT
BRANCH   1  13
HETATM   13  C2  UNL     1      29.630  37.091  36.863  1.00  0.00     0.019 C 
HETATM   14  C1  UNL     1      28.766  37.340  35.688  1.00  0.00     0.066 C 
BRANCH  13  15
HETATM   15  C7  UNL     1      30.904  37.815  36.996  1.00  0.00    -0.001 C 
HETATM   16  C8  UNL     1      31.135  38.702  35.762  1.00  0.00     0.022 C 
HETATM   17  C9  UNL     1      30.744  38.856  38.124  1.00  0.00     0.022 C 
BRANCH  15  18
HETATM   18  C10 UNL     1      32.151  37.085  37.276  1.00  0.00    -0.039 C 
HETATM   19  C11 UNL     1      33.236  37.513  36.272  1.00  0.00     0.015 C 
HETATM   20  C12 UNL     1      32.778  37.350  38.636  1.00  0.00     0.015 C 
HETATM   21  C13 UNL     1      32.073  35.588  37.092  1.00  0.00     0.015 C 
ENDBRANCH  15  18
ENDBRANCH  13  15
ENDBRANCH   1  13
TORSDOF 3
ENDMDL
MODEL 4
REMARK VINA RESULT: -6.478410492      3.580      5.260
REMARK  3 active torsions:
REMARK  status: ('A' for Active; 'I' for Inactive)
REMARK    1  A    between atoms: C2_2  and  N1_3 
REMARK    2  A    between atoms: C2_2  and  C7_15 
REMARK    3  A    between atoms: C7_15  and  C10_18 
ROOT
HETATM    1  N1  UNL     1      29.585  35.842  40.532  1.00  0.00    -0.246 N 
HETATM    2  N2  UNL     1      29.631  36.040  41.839  1.00  0.00    -0.303 N 
ATOM      3  H2  UNL     1      30.490  35.979  42.386  1.00  0.00     0.186 HD
HETATM    4  C3  UNL     1      28.461  36.324  42.363  1.00  0.00     0.126 A 
HETATM    5  C4  UNL     1      27.567  36.314  41.317  1.00  0.00     0.067 A 
HETATM    6  C5  UNL     1      26.250  36.482  40.948  1.00  0.00     0.130 A 
HETATM    7  S1  UNL     1      25.041  36.852  41.971  1.00  0.00    -0.058 SA
HETATM    8  N3  UNL     1      26.178  36.289  39.642  1.00  0.00    -0.288 N 
ATOM      9  H3  UNL     1      25.332  36.345  39.076  1.00  0.00     0.188 HD
HETATM   10  N4  UNL     1      27.390  36.009  39.195  1.00  0.00    -0.282 N 
ATOM     11  H4  UNL     1      27.612  35.817  38.218  1.00  0.00     0.188 HD
HETATM   12  C6  UNL     1      28.297  36.011  40.196  1.00  0.00     0.156 A 
ENDROOT
BRANCH   1  13
HETATM   13  C2  UNL     1      30.709  35.505  39.645  1.00  0.00     0.019 C 
HETATM   14  C1  UNL     1      30.655  34.089  39.218  1.00  0.00     0.066 C 
BRANCH  13  15
HETATM   15  C7  UNL     1      31.092  36.543  38.676  1.00  0.00    -0.001 C 
HETATM   16  C8  UNL     1      30.210  36.441  37.421  1.00  0.00     0.022 C 
HETATM   17  C9  UNL     1      30.680  37.912  39.257  1.00  0.00     0.022 C 
BRANCH  15  18
HETATM   18  C10 UNL     1      32.492  36.679  38.243  1.00  0.00    -0.039 C 
HETATM   19  C11 UNL     1      32.773  38.143  37.858  1.00  0.00     0.015 C 
HETATM   20  C12 UNL     1      33.542  36.365  39.297  1.00  0.00     0.015 C 
HETATM   21  C13 UNL     1      32.854  35.913  36.992  1.00  0.00     0.015 C 
ENDBRANCH  15  18
ENDBRANCH  13  15
ENDBRANCH   1  13
TORSDOF 3
ENDMDL
MODEL 5
REMARK VINA RESULT: -6.400284099      3.466      5.619
REMARK  3 active torsions:
REMARK  status: ('A' for Active; 'I' for Inactive)
REMARK    1  A    between atoms: C2_2  and  N1_3 
REMARK    2  A    between atoms: C2_2  and  C7_15 
REMARK    3  A    between atoms: C7_15  and  C10_18 
ROOT
HETATM    1  N1  UNL     1      28.457  37.044  38.363  1.00  0.00    -0.246 N 
HETATM    2  N2  UNL     1      27.516  37.951  38.164  1.00  0.00    -0.303 N 
ATOM      3  H2  UNL     1      27.534  38.619  37.394  1.00  0.00     0.186 HD
HETATM    4  C3  UNL     1      26.554  37.906  39.058  1.00  0.00     0.126 A 
HETATM    5  C4  UNL     1      26.886  36.885  39.918  1.00  0.00     0.067 A 
HETATM    6  C5  UNL     1      26.511  36.180  41.041  1.00  0.00     0.130 A 
HETATM    7  S1  UNL     1      25.162  36.462  41.904  1.00  0.00    -0.058 SA
HETATM    8  N3  UNL     1      27.440  35.265  41.261  1.00  0.00    -0.288 N 
ATOM      9  H3  UNL     1      27.442  34.588  42.023  1.00  0.00     0.188 HD
HETATM   10  N4  UNL     1      28.365  35.377  40.324  1.00  0.00    -0.282 N 
ATOM     11  H4  UNL     1      29.195  34.787  40.263  1.00  0.00     0.188 HD
HETATM   12  C6  UNL     1      28.072  36.372  39.459  1.00  0.00     0.156 A 
ENDROOT
BRANCH   1  13
HETATM   13  C2  UNL     1      29.667  36.828  37.555  1.00  0.00     0.019 C 
HETATM   14  C1  UNL     1      29.425  37.134  36.127  1.00  0.00     0.066 C 
BRANCH  13  15
HETATM   15  C7  UNL     1      30.936  37.233  38.180  1.00  0.00    -0.001 C 
HETATM   16  C8  UNL     1      31.632  38.296  37.316  1.00  0.00     0.022 C 
HETATM   17  C9  UNL     1      30.601  38.021  39.465  1.00  0.00     0.022 C 
BRANCH  15  18
HETATM   18  C10 UNL     1      31.936  36.222  38.559  1.00  0.00    -0.039 C 
HETATM   19  C11 UNL     1      33.313  36.892  38.711  1.00  0.00     0.015 C 
HETATM   20  C12 UNL     1      31.707  35.537  39.898  1.00  0.00     0.015 C 
HETATM   21  C13 UNL     1      32.182  35.145  37.529  1.00  0.00     0.015 C 
ENDBRANCH  15  18
ENDBRANCH  13  15
ENDBRANCH   1  13
TORSDOF 3
ENDMDL
