MODEL 1
REMARK VINA RESULT: -9.040848308      0.000      0.000
REMARK  10 active torsions:
REMARK  status: ('A' for Active; 'I' for Inactive)
REMARK    1  A    between atoms: C6_6  and  N1_7 
REMARK       I    between atoms: N1_7  and  C7_9 
REMARK       I    between atoms: C7_9  and  N2_11 
REMARK    2  A    between atoms: C10_14  and  C11_15 
REMARK    3  A    between atoms: C11_15  and  C12_16 
REMARK    4  A    between atoms: C12_16  and  N3_17 
REMARK    5  A    between atoms: N3_17  and  S1_19 
REMARK    6  A    between atoms: S1_19  and  C13_22 
REMARK    7  A    between atoms: N5_32  and  C21_33 
REMARK    8  A    between atoms: C21_33  and  C22_34 
REMARK    9  A    between atoms: C22_34  and  C23_35 
REMARK   10  A    between atoms: C29_41  and  O4_42 
ROOT
HETATM    1  C1  UNL     1       5.613   5.155  12.153  1.00  0.00     0.018 C 
HETATM    2  C2  UNL     1       4.729   4.341  11.255  1.00  0.00     0.056 C 
HETATM    3  C3  UNL     1       3.843   3.366  11.979  1.00  0.00     0.012 C 
HETATM    4  C4  UNL     1       3.785   1.993  11.401  1.00  0.00     0.003 C 
HETATM    5  C5  UNL     1       3.833   1.014  12.555  1.00  0.00     0.027 C 
HETATM    6  C6  UNL     1       4.695  -0.203  12.264  1.00  0.00     0.103 C 
HETATM    7  C18 UNL     1       6.110   0.171  11.882  1.00  0.00     0.139 C 
HETATM    8  N4  UNL     1       6.389   1.459  12.395  1.00  0.00    -0.415 N 
ATOM      9  H4  UNL     1       5.801   1.871  13.119  1.00  0.00     0.153 HD
HETATM   10  C19 UNL     1       7.502   2.162  11.881  1.00  0.00     0.159 C 
HETATM   11  C20 UNL     1       7.575   2.473  10.458  1.00  0.00     0.085 C 
HETATM   12  N5  UNL     1       6.710   3.377   9.811  1.00  0.00    -0.343 N 
HETATM   13  C29 UNL     1       5.380   3.767  10.057  1.00  0.00     0.121 C 
ENDROOT
BRANCH   6  14
HETATM   14  N1  UNL     1       4.759  -0.920  13.550  1.00  0.00    -0.337 N 
HETATM   15  C7  UNL     1       3.859  -1.915  13.906  1.00  0.00     0.318 C 
HETATM   16  O1  UNL     1       2.943  -2.222  13.077  1.00  0.00    -0.247 OA
HETATM   17  N2  UNL     1       3.894  -2.605  15.123  1.00  0.00    -0.334 N 
HETATM   18  C8  UNL     1       2.948  -3.645  15.470  1.00  0.00     0.128 C 
HETATM   19  C17 UNL     1       4.885  -2.304  16.127  1.00  0.00     0.128 C 
HETATM   20  C9  UNL     1       3.691  -4.905  15.886  1.00  0.00     0.025 C 
HETATM   21  C10 UNL     1       4.813  -4.693  16.822  1.00  0.00    -0.007 C 
HETATM   22  C16 UNL     1       5.739  -3.550  16.376  1.00  0.00     0.025 C 
ATOM     23  H1  UNL     1       5.498  -0.673  14.208  1.00  0.00     0.164 HD
BRANCH  21  24
HETATM   24  C11 UNL     1       5.689  -5.880  17.058  1.00  0.00     0.050 C 
BRANCH  24  25
HETATM   25  C12 UNL     1       7.001  -5.578  17.725  1.00  0.00     0.073 C 
BRANCH  25  26
HETATM   26  N3  UNL     1       8.105  -6.055  16.997  1.00  0.00    -0.299 N 
ATOM     27  H3  UNL     1       7.976  -6.756  16.267  1.00  0.00     0.177 HD
BRANCH  26  28
HETATM   28  S1  UNL     1       9.638  -5.465  17.339  1.00  0.00     0.234 S 
HETATM   29  O2  UNL     1      10.631  -6.591  16.963  1.00  0.00    -0.205 OA
HETATM   30  O3  UNL     1       9.815  -5.363  18.853  1.00  0.00    -0.205 OA
BRANCH  28  31
HETATM   31  C13 UNL     1      10.147  -3.952  16.646  1.00  0.00     0.129 A 
HETATM   32  C14 UNL     1       9.338  -2.976  15.911  1.00  0.00     0.023 A 
HETATM   33  C15 UNL     1      10.184  -3.924  15.130  1.00  0.00     0.023 A 
ENDBRANCH  28  31
ENDBRANCH  26  28
ENDBRANCH  25  26
ENDBRANCH  24  25
ENDBRANCH  21  24
ENDBRANCH   6  14
BRANCH  13  34
HETATM   34  O4  UNL     1       4.529   3.614   9.080  1.00  0.00    -0.349 OA
ATOM     35  H4  UNL     1       4.963   3.643   8.235  1.00  0.00     0.219 HD
ENDBRANCH  13  34
BRANCH  12  36
HETATM   36  C21 UNL     1       7.300   4.040   8.603  1.00  0.00     0.130 C 
BRANCH  36  37
HETATM   37  C22 UNL     1       7.848   3.010   7.656  1.00  0.00     0.025 C 
BRANCH  37  38
HETATM   38  C23 UNL     1       6.788   2.452   6.788  1.00  0.00    -0.013 C 
HETATM   39  C24 UNL     1       6.398   3.284   5.616  1.00  0.00     0.005 C 
HETATM   40  C25 UNL     1       7.486   3.394   4.577  1.00  0.00     0.000 C 
HETATM   41  C26 UNL     1       8.306   2.149   4.450  1.00  0.00     0.000 C 
HETATM   42  C27 UNL     1       7.454   0.970   4.875  1.00  0.00     0.000 C 
HETATM   43  C28 UNL     1       7.232   1.054   6.348  1.00  0.00     0.005 C 
ENDBRANCH  37  38
ENDBRANCH  36  37
ENDBRANCH  12  36
TORSDOF 10
ENDMDL
MODEL 2
REMARK VINA RESULT: -8.932749068      4.066     11.973
REMARK  10 active torsions:
REMARK  status: ('A' for Active; 'I' for Inactive)
REMARK    1  A    between atoms: C6_6  and  N1_7 
REMARK       I    between atoms: N1_7  and  C7_9 
REMARK       I    between atoms: C7_9  and  N2_11 
REMARK    2  A    between atoms: C10_14  and  C11_15 
REMARK    3  A    between atoms: C11_15  and  C12_16 
REMARK    4  A    between atoms: C12_16  and  N3_17 
REMARK    5  A    between atoms: N3_17  and  S1_19 
REMARK    6  A    between atoms: S1_19  and  C13_22 
REMARK    7  A    between atoms: N5_32  and  C21_33 
REMARK    8  A    between atoms: C21_33  and  C22_34 
REMARK    9  A    between atoms: C22_34  and  C23_35 
REMARK   10  A    between atoms: C29_41  and  O4_42 
ROOT
HETATM    1  C1  UNL     1      10.115  -4.902  17.644  1.00  0.00     0.018 C 
HETATM    2  C2  UNL     1       9.733  -5.701  16.434  1.00  0.00     0.056 C 
HETATM    3  C3  UNL     1       9.269  -4.873  15.268  1.00  0.00     0.012 C 
HETATM    4  C4  UNL     1       8.036  -5.356  14.582  1.00  0.00     0.003 C 
HETATM    5  C5  UNL     1       7.179  -4.144  14.285  1.00  0.00     0.027 C 
HETATM    6  C6  UNL     1       5.699  -4.394  14.513  1.00  0.00     0.103 C 
HETATM    7  C18 UNL     1       5.405  -4.867  15.920  1.00  0.00     0.139 C 
HETATM    8  N4  UNL     1       6.462  -4.454  16.763  1.00  0.00    -0.415 N 
ATOM      9  H4  UNL     1       7.116  -3.731  16.464  1.00  0.00     0.153 HD
HETATM   10  C19 UNL     1       6.590  -5.065  18.031  1.00  0.00     0.159 C 
HETATM   11  C20 UNL     1       6.783  -6.508  18.130  1.00  0.00     0.085 C 
HETATM   12  N5  UNL     1       7.948  -7.171  17.696  1.00  0.00    -0.343 N 
HETATM   13  C29 UNL     1       8.886  -6.888  16.686  1.00  0.00     0.121 C 
ENDROOT
BRANCH   6  14
HETATM   14  N1  UNL     1       5.076  -3.069  14.354  1.00  0.00    -0.337 N 
HETATM   15  C7  UNL     1       4.824  -2.496  13.115  1.00  0.00     0.318 C 
HETATM   16  O1  UNL     1       5.142  -3.155  12.072  1.00  0.00    -0.247 OA
HETATM   17  N2  UNL     1       4.241  -1.236  12.936  1.00  0.00    -0.334 N 
HETATM   18  C8  UNL     1       3.982  -0.663  11.632  1.00  0.00     0.128 C 
HETATM   19  C17 UNL     1       3.870  -0.415  14.062  1.00  0.00     0.128 C 
HETATM   20  C9  UNL     1       2.524  -0.239  11.531  1.00  0.00     0.025 C 
HETATM   21  C10 UNL     1       2.005   0.505  12.697  1.00  0.00    -0.007 C 
HETATM   22  C16 UNL     1       2.359  -0.174  14.030  1.00  0.00     0.025 C 
ATOM     23  H1  UNL     1       4.819  -2.547  15.192  1.00  0.00     0.164 HD
BRANCH  21  24
HETATM   24  C11 UNL     1       0.528   0.726  12.714  1.00  0.00     0.050 C 
BRANCH  24  25
HETATM   25  C12 UNL     1       0.068   1.997  12.059  1.00  0.00     0.073 C 
BRANCH  25  26
HETATM   26  N3  UNL     1       1.078   2.974  11.994  1.00  0.00    -0.299 N 
ATOM     27  H3  UNL     1       1.372   3.466  12.838  1.00  0.00     0.177 HD
BRANCH  26  28
HETATM   28  S1  UNL     1       1.795   3.324  10.518  1.00  0.00     0.234 S 
HETATM   29  O2  UNL     1       1.191   4.669  10.050  1.00  0.00    -0.205 OA
HETATM   30  O3  UNL     1       1.282   2.347   9.461  1.00  0.00    -0.205 OA
BRANCH  28  31
HETATM   31  C13 UNL     1       3.531   3.366  10.399  1.00  0.00     0.129 A 
HETATM   32  C14 UNL     1       4.516   2.826  11.340  1.00  0.00     0.023 A 
HETATM   33  C15 UNL     1       4.218   4.286  11.389  1.00  0.00     0.023 A 
ENDBRANCH  28  31
ENDBRANCH  26  28
ENDBRANCH  25  26
ENDBRANCH  24  25
ENDBRANCH  21  24
ENDBRANCH   6  14
BRANCH  13  34
HETATM   34  O4  UNL     1       9.081  -7.812  15.785  1.00  0.00    -0.349 OA
ATOM     35  H4  UNL     1       9.940  -7.733  15.388  1.00  0.00     0.219 HD
ENDBRANCH  13  34
BRANCH  12  36
HETATM   36  C21 UNL     1       8.241  -8.446  18.426  1.00  0.00     0.130 C 
BRANCH  36  37
HETATM   37  C22 UNL     1       7.083  -9.397  18.303  1.00  0.00     0.025 C 
BRANCH  37  38
HETATM   38  C23 UNL     1       7.414 -10.730  18.853  1.00  0.00    -0.013 C 
HETATM   39  C24 UNL     1       6.753 -11.891  18.194  1.00  0.00     0.005 C 
HETATM   40  C25 UNL     1       7.228 -12.122  16.782  1.00  0.00     0.000 C 
HETATM   41  C26 UNL     1       8.674 -11.795  16.586  1.00  0.00     0.000 C 
HETATM   42  C27 UNL     1       9.386 -11.965  17.913  1.00  0.00     0.000 C 
HETATM   43  C28 UNL     1       8.937 -10.879  18.833  1.00  0.00     0.005 C 
ENDBRANCH  37  38
ENDBRANCH  36  37
ENDBRANCH  12  36
TORSDOF 10
ENDMDL
MODEL 3
REMARK VINA RESULT: -8.913275513      4.540      7.663
REMARK  10 active torsions:
REMARK  status: ('A' for Active; 'I' for Inactive)
REMARK    1  A    between atoms: C6_6  and  N1_7 
REMARK       I    between atoms: N1_7  and  C7_9 
REMARK       I    between atoms: C7_9  and  N2_11 
REMARK    2  A    between atoms: C10_14  and  C11_15 
REMARK    3  A    between atoms: C11_15  and  C12_16 
REMARK    4  A    between atoms: C12_16  and  N3_17 
REMARK    5  A    between atoms: N3_17  and  S1_19 
REMARK    6  A    between atoms: S1_19  and  C13_22 
REMARK    7  A    between atoms: N5_32  and  C21_33 
REMARK    8  A    between atoms: C21_33  and  C22_34 
REMARK    9  A    between atoms: C22_34  and  C23_35 
REMARK   10  A    between atoms: C29_41  and  O4_42 
ROOT
HETATM    1  C1  UNL     1       6.604  -1.089  12.795  1.00  0.00     0.018 C 
HETATM    2  C2  UNL     1       6.590  -0.759  14.258  1.00  0.00     0.056 C 
HETATM    3  C3  UNL     1       7.560  -1.561  15.080  1.00  0.00     0.012 C 
HETATM    4  C4  UNL     1       7.022  -2.118  16.354  1.00  0.00     0.003 C 
HETATM    5  C5  UNL     1       7.543  -3.533  16.485  1.00  0.00     0.027 C 
HETATM    6  C6  UNL     1       6.504  -4.499  17.028  1.00  0.00     0.103 C 
HETATM    7  C18 UNL     1       5.243  -4.519  16.192  1.00  0.00     0.139 C 
HETATM    8  N4  UNL     1       5.558  -4.060  14.893  1.00  0.00    -0.415 N 
ATOM      9  H4  UNL     1       6.526  -4.019  14.574  1.00  0.00     0.153 HD
HETATM   10  C19 UNL     1       4.500  -3.661  14.044  1.00  0.00     0.159 C 
HETATM   11  C20 UNL     1       3.610  -2.578  14.449  1.00  0.00     0.085 C 
HETATM   12  N5  UNL     1       4.018  -1.235  14.567  1.00  0.00    -0.343 N 
HETATM   13  C29 UNL     1       5.253  -0.637  14.878  1.00  0.00     0.121 C 
ENDROOT
BRANCH   6  14
HETATM   14  N1  UNL     1       7.137  -5.824  16.903  1.00  0.00    -0.337 N 
HETATM   15  C7  UNL     1       7.662  -6.516  17.986  1.00  0.00     0.318 C 
HETATM   16  O1  UNL     1       7.583  -5.979  19.138  1.00  0.00    -0.247 OA
HETATM   17  N2  UNL     1       8.275  -7.771  17.893  1.00  0.00    -0.334 N 
HETATM   18  C8  UNL     1       8.809  -8.477  19.039  1.00  0.00     0.128 C 
HETATM   19  C17 UNL     1       8.425  -8.439  16.624  1.00  0.00     0.128 C 
HETATM   20  C9  UNL     1       8.229  -9.882  19.099  1.00  0.00     0.025 C 
HETATM   21  C10 UNL     1       8.219 -10.613  17.816  1.00  0.00    -0.007 C 
HETATM   22  C16 UNL     1       7.661  -9.765  16.662  1.00  0.00     0.025 C 
ATOM     23  H1  UNL     1       7.194  -6.251  15.978  1.00  0.00     0.164 HD
BRANCH  21  24
HETATM   24  C11 UNL     1       7.451 -11.894  17.810  1.00  0.00     0.050 C 
BRANCH  24  25
HETATM   25  C12 UNL     1       6.278 -11.937  18.747  1.00  0.00     0.073 C 
BRANCH  25  26
HETATM   26  N3  UNL     1       5.067 -12.220  18.092  1.00  0.00    -0.299 N 
ATOM     27  H3  UNL     1       4.821 -13.182  17.859  1.00  0.00     0.177 HD
BRANCH  26  28
HETATM   28  S1  UNL     1       4.028 -10.963  17.696  1.00  0.00     0.234 S 
HETATM   29  O2  UNL     1       4.661  -9.677  18.279  1.00  0.00    -0.205 OA
HETATM   30  O3  UNL     1       2.742 -11.093  18.509  1.00  0.00    -0.205 OA
BRANCH  28  31
HETATM   31  C13 UNL     1       3.579 -10.715  16.033  1.00  0.00     0.129 A 
HETATM   32  C14 UNL     1       3.357 -11.727  14.996  1.00  0.00     0.023 A 
HETATM   33  C15 UNL     1       4.669 -11.019  15.024  1.00  0.00     0.023 A 
ENDBRANCH  28  31
ENDBRANCH  26  28
ENDBRANCH  25  26
ENDBRANCH  24  25
ENDBRANCH  21  24
ENDBRANCH   6  14
BRANCH  13  34
HETATM   34  O4  UNL     1       5.272   0.184  15.893  1.00  0.00    -0.349 OA
ATOM     35  H4  UNL     1       4.429   0.217  16.328  1.00  0.00     0.219 HD
ENDBRANCH  13  34
BRANCH  12  36
HETATM   36  C21 UNL     1       2.923  -0.236  14.347  1.00  0.00     0.130 C 
BRANCH  36  37
HETATM   37  C22 UNL     1       2.121  -0.598  13.128  1.00  0.00     0.025 C 
BRANCH  37  38
HETATM   38  C23 UNL     1       2.621   0.098  11.922  1.00  0.00    -0.013 C 
HETATM   39  C24 UNL     1       1.630   0.310  10.832  1.00  0.00     0.005 C 
HETATM   40  C25 UNL     1       0.541   1.286  11.201  1.00  0.00     0.000 C 
HETATM   41  C26 UNL     1       1.019   2.391  12.089  1.00  0.00     0.000 C 
HETATM   42  C27 UNL     1       2.498   2.602  11.837  1.00  0.00     0.000 C 
HETATM   43  C28 UNL     1       3.241   1.423  12.370  1.00  0.00     0.005 C 
ENDBRANCH  37  38
ENDBRANCH  36  37
ENDBRANCH  12  36
TORSDOF 10
ENDMDL
MODEL 4
REMARK VINA RESULT: -8.893630217      2.601      3.889
REMARK  10 active torsions:
REMARK  status: ('A' for Active; 'I' for Inactive)
REMARK    1  A    between atoms: C6_6  and  N1_7 
REMARK       I    between atoms: N1_7  and  C7_9 
REMARK       I    between atoms: C7_9  and  N2_11 
REMARK    2  A    between atoms: C10_14  and  C11_15 
REMARK    3  A    between atoms: C11_15  and  C12_16 
REMARK    4  A    between atoms: C12_16  and  N3_17 
REMARK    5  A    between atoms: N3_17  and  S1_19 
REMARK    6  A    between atoms: S1_19  and  C13_22 
REMARK    7  A    between atoms: N5_32  and  C21_33 
REMARK    8  A    between atoms: C21_33  and  C22_34 
REMARK    9  A    between atoms: C22_34  and  C23_35 
REMARK   10  A    between atoms: C29_41  and  O4_42 
ROOT
HETATM    1  C1  UNL     1       0.243   2.916  12.038  1.00  0.00     0.018 C 
HETATM    2  C2  UNL     1       0.579   1.968  10.925  1.00  0.00     0.056 C 
HETATM    3  C3  UNL     1       0.980   0.594  11.384  1.00  0.00     0.012 C 
HETATM    4  C4  UNL     1       2.185   0.017  10.723  1.00  0.00     0.003 C 
HETATM    5  C5  UNL     1       3.013  -0.654  11.799  1.00  0.00     0.027 C 
HETATM    6  C6  UNL     1       4.505  -0.434  11.622  1.00  0.00     0.103 C 
HETATM    7  C18 UNL     1       4.869   1.033  11.572  1.00  0.00     0.139 C 
HETATM    8  N4  UNL     1       3.847   1.772  12.210  1.00  0.00    -0.415 N 
ATOM      9  H4  UNL     1       3.170   1.310  12.818  1.00  0.00     0.153 HD
HETATM   10  C19 UNL     1       3.784   3.167  11.988  1.00  0.00     0.159 C 
HETATM   11  C20 UNL     1       3.613   3.683  10.634  1.00  0.00     0.085 C 
HETATM   12  N5  UNL     1       2.438   3.512   9.876  1.00  0.00    -0.343 N 
HETATM   13  C29 UNL     1       1.451   2.509   9.859  1.00  0.00     0.121 C 
ENDROOT
BRANCH   6  14
HETATM   14  N1  UNL     1       5.104  -0.996  12.845  1.00  0.00    -0.337 N 
HETATM   15  C7  UNL     1       5.448  -2.334  12.973  1.00  0.00     0.318 C 
HETATM   16  O1  UNL     1       5.241  -3.105  11.981  1.00  0.00    -0.247 OA
HETATM   17  N2  UNL     1       6.011  -2.894  14.126  1.00  0.00    -0.334 N 
HETATM   18  C8  UNL     1       6.368  -4.293  14.232  1.00  0.00     0.128 C 
HETATM   19  C17 UNL     1       6.259  -2.096  15.301  1.00  0.00     0.128 C 
HETATM   20  C9  UNL     1       7.817  -4.426  14.676  1.00  0.00     0.025 C 
HETATM   21  C10 UNL     1       8.212  -3.555  15.801  1.00  0.00    -0.007 C 
HETATM   22  C16 UNL     1       7.760  -2.099  15.601  1.00  0.00     0.025 C 
ATOM     23  H1  UNL     1       5.273  -0.372  13.635  1.00  0.00     0.164 HD
BRANCH  21  24
HETATM   24  C11 UNL     1       9.676  -3.507  16.096  1.00  0.00     0.050 C 
BRANCH  24  25
HETATM   25  C12 UNL     1      10.187  -4.628  16.956  1.00  0.00     0.073 C 
BRANCH  25  26
HETATM   26  N3  UNL     1       9.249  -5.052  17.914  1.00  0.00    -0.299 N 
ATOM     27  H3  UNL     1       9.009  -4.449  18.700  1.00  0.00     0.177 HD
BRANCH  26  28
HETATM   28  S1  UNL     1       8.529  -6.559  17.753  1.00  0.00     0.234 S 
HETATM   29  O2  UNL     1       9.067  -7.424  18.918  1.00  0.00    -0.205 OA
HETATM   30  O3  UNL     1       9.103  -7.267  16.527  1.00  0.00    -0.205 OA
BRANCH  28  31
HETATM   31  C13 UNL     1       6.795  -6.674  17.665  1.00  0.00     0.129 A 
HETATM   32  C14 UNL     1       5.820  -5.584  17.574  1.00  0.00     0.023 A 
HETATM   33  C15 UNL     1       6.059  -6.208  18.906  1.00  0.00     0.023 A 
ENDBRANCH  28  31
ENDBRANCH  26  28
ENDBRANCH  25  26
ENDBRANCH  24  25
ENDBRANCH  21  24
ENDBRANCH   6  14
BRANCH  13  34
HETATM   34  O4  UNL     1       1.227   1.920   8.716  1.00  0.00    -0.349 OA
ATOM     35  H4  UNL     1       1.557   2.436   7.991  1.00  0.00     0.219 HD
ENDBRANCH  13  34
BRANCH  12  36
HETATM   36  C21 UNL     1       2.194   4.590   8.864  1.00  0.00     0.130 C 
BRANCH  36  37
HETATM   37  C22 UNL     1       3.338   4.663   7.892  1.00  0.00     0.025 C 
BRANCH  37  38
HETATM   38  C23 UNL     1       3.031   3.947   6.635  1.00  0.00    -0.013 C 
HETATM   39  C24 UNL     1       1.832   4.420   5.889  1.00  0.00     0.005 C 
HETATM   40  C25 UNL     1       2.002   5.801   5.308  1.00  0.00     0.000 C 
HETATM   41  C26 UNL     1       3.399   6.082   4.857  1.00  0.00     0.000 C 
HETATM   42  C27 UNL     1       4.059   4.766   4.498  1.00  0.00     0.000 C 
HETATM   43  C28 UNL     1       4.281   3.991   5.753  1.00  0.00     0.005 C 
ENDBRANCH  37  38
ENDBRANCH  36  37
ENDBRANCH  12  36
TORSDOF 10
ENDMDL
MODEL 5
REMARK VINA RESULT: -8.863823774      3.808      5.356
REMARK  10 active torsions:
REMARK  status: ('A' for Active; 'I' for Inactive)
REMARK    1  A    between atoms: C6_6  and  N1_7 
REMARK       I    between atoms: N1_7  and  C7_9 
REMARK       I    between atoms: C7_9  and  N2_11 
REMARK    2  A    between atoms: C10_14  and  C11_15 
REMARK    3  A    between atoms: C11_15  and  C12_16 
REMARK    4  A    between atoms: C12_16  and  N3_17 
REMARK    5  A    between atoms: N3_17  and  S1_19 
REMARK    6  A    between atoms: S1_19  and  C13_22 
REMARK    7  A    between atoms: N5_32  and  C21_33 
REMARK    8  A    between atoms: C21_33  and  C22_34 
REMARK    9  A    between atoms: C22_34  and  C23_35 
REMARK   10  A    between atoms: C29_41  and  O4_42 
ROOT
HETATM    1  C1  UNL     1       7.270  -0.710  12.524  1.00  0.00     0.018 C 
HETATM    2  C2  UNL     1       6.435   0.099  13.471  1.00  0.00     0.056 C 
HETATM    3  C3  UNL     1       6.574  -0.302  14.913  1.00  0.00     0.012 C 
HETATM    4  C4  UNL     1       5.298  -0.426  15.675  1.00  0.00     0.003 C 
HETATM    5  C5  UNL     1       5.401  -1.671  16.531  1.00  0.00     0.027 C 
HETATM    6  C6  UNL     1       4.107  -2.463  16.583  1.00  0.00     0.103 C 
HETATM    7  C18 UNL     1       3.617  -2.856  15.207  1.00  0.00     0.139 C 
HETATM    8  N4  UNL     1       4.716  -2.850  14.319  1.00  0.00    -0.415 N 
ATOM      9  H4  UNL     1       5.673  -2.852  14.672  1.00  0.00     0.153 HD
HETATM   10  C19 UNL     1       4.460  -2.840  12.929  1.00  0.00     0.159 C 
HETATM   11  C20 UNL     1       3.693  -1.750  12.336  1.00  0.00     0.085 C 
HETATM   12  N5  UNL     1       4.157  -0.423  12.256  1.00  0.00    -0.343 N 
HETATM   13  C29 UNL     1       5.034   0.331  13.057  1.00  0.00     0.121 C 
ENDROOT
BRANCH   6  14
HETATM   14  N1  UNL     1       4.466  -3.702  17.295  1.00  0.00    -0.337 N 
HETATM   15  C7  UNL     1       4.063  -4.961  16.873  1.00  0.00     0.318 C 
HETATM   16  O1  UNL     1       3.355  -5.042  15.817  1.00  0.00    -0.247 OA
HETATM   17  N2  UNL     1       4.384  -6.151  17.535  1.00  0.00    -0.334 N 
HETATM   18  C8  UNL     1       3.956  -7.455  17.070  1.00  0.00     0.128 C 
HETATM   19  C17 UNL     1       5.163  -6.147  18.748  1.00  0.00     0.128 C 
HETATM   20  C9  UNL     1       5.157  -8.380  16.941  1.00  0.00     0.025 C 
HETATM   21  C10 UNL     1       6.092  -8.358  18.084  1.00  0.00    -0.007 C 
HETATM   22  C16 UNL     1       6.458  -6.929  18.515  1.00  0.00     0.025 C 
ATOM     23  H1  UNL     1       5.038  -3.631  18.137  1.00  0.00     0.164 HD
BRANCH  21  24
HETATM   24  C11 UNL     1       7.382  -9.081  17.876  1.00  0.00     0.050 C 
BRANCH  24  25
HETATM   25  C12 UNL     1       8.597  -8.383  18.418  1.00  0.00     0.073 C 
BRANCH  25  26
HETATM   26  N3  UNL     1       9.467  -7.937  17.408  1.00  0.00    -0.299 N 
ATOM     27  H3  UNL     1       9.803  -8.586  16.696  1.00  0.00     0.177 HD
BRANCH  26  28
HETATM   28  S1  UNL     1       9.949  -6.331  17.382  1.00  0.00     0.234 S 
HETATM   29  O2  UNL     1      11.486  -6.341  17.206  1.00  0.00    -0.205 OA
HETATM   30  O3  UNL     1       9.782  -5.729  18.776  1.00  0.00    -0.205 OA
BRANCH  28  31
HETATM   31  C13 UNL     1       9.217  -5.236  16.244  1.00  0.00     0.129 A 
HETATM   32  C14 UNL     1       7.859  -5.276  15.695  1.00  0.00     0.023 A 
HETATM   33  C15 UNL     1       8.973  -5.815  14.864  1.00  0.00     0.023 A 
ENDBRANCH  28  31
ENDBRANCH  26  28
ENDBRANCH  25  26
ENDBRANCH  24  25
ENDBRANCH  21  24
ENDBRANCH   6  14
BRANCH  13  34
HETATM   34  O4  UNL     1       4.572   1.449  13.548  1.00  0.00    -0.349 OA
ATOM     35  H4  UNL     1       4.207   1.322  14.415  1.00  0.00     0.219 HD
ENDBRANCH  13  34
BRANCH  12  36
HETATM   36  C21 UNL     1       3.590   0.362  11.111  1.00  0.00     0.130 C 
BRANCH  36  37
HETATM   37  C22 UNL     1       2.088   0.331  11.149  1.00  0.00     0.025 C 
BRANCH  37  38
HETATM   38  C23 UNL     1       1.541   1.452  11.944  1.00  0.00    -0.013 C 
HETATM   39  C24 UNL     1       2.067   2.805  11.614  1.00  0.00     0.005 C 
HETATM   40  C25 UNL     1       1.645   3.289  10.250  1.00  0.00     0.000 C 
HETATM   41  C26 UNL     1       0.273   2.837   9.864  1.00  0.00     0.000 C 
HETATM   42  C27 UNL     1      -0.529   2.610  11.129  1.00  0.00     0.000 C 
HETATM   43  C28 UNL     1       0.016   1.409  11.826  1.00  0.00     0.005 C 
ENDBRANCH  37  38
ENDBRANCH  36  37
ENDBRANCH  12  36
TORSDOF 10
ENDMDL
