MODEL 1
REMARK VINA RESULT: -7.256186146      0.000      0.000
REMARK  4 active torsions:
REMARK  status: ('A' for Active; 'I' for Inactive)
REMARK    1  A    between atoms: C2_2  and  N1_5 
REMARK       I    between atoms: N1_5  and  C4_7 
REMARK    2  A    between atoms: C4_7  and  C5_9 
REMARK    3  A    between atoms: N4_13  and  C6_14 
REMARK    4  A    between atoms: C7_20  and  N7_21 
ROOT
HETATM    1  C5  UNL     1     -17.465 -44.845  -9.692  1.00  0.00     0.203 A 
HETATM    2  N2  UNL     1     -16.624 -45.620  -8.966  1.00  0.00    -0.262 N 
ATOM      3  H2  UNL     1     -16.537 -46.634  -9.036  1.00  0.00     0.186 HD
HETATM    4  N3  UNL     1     -15.935 -44.837  -8.149  1.00  0.00     0.004 NA
HETATM    5  N4  UNL     1     -16.303 -43.574  -8.323  1.00  0.00    -0.156 N 
HETATM    6  N8  UNL     1     -17.230 -43.593  -9.261  1.00  0.00    -0.258 N 
ATOM      7  H8  UNL     1     -17.708 -42.765  -9.613  1.00  0.00     0.190 HD
ENDROOT
BRANCH   5   8
HETATM    8  C6  UNL     1     -15.762 -42.463  -7.606  1.00  0.00     0.210 A 
HETATM    9  N5  UNL     1     -15.997 -41.156  -7.822  1.00  0.00    -0.219 N 
HETATM   10  O2  UNL     1     -15.323 -40.460  -6.965  1.00  0.00    -0.153 OA
ATOM     11  H5  UNL     1     -16.608 -40.776  -8.545  1.00  0.00     0.198 HD
HETATM   12  N6  UNL     1     -14.645 -41.231  -6.181  1.00  0.00    -0.222 N 
HETATM   13  C7  UNL     1     -14.886 -42.487  -6.541  1.00  0.00     0.170 A 
ATOM     14  H6  UNL     1     -14.035 -40.929  -5.422  1.00  0.00     0.198 HD
BRANCH  13  15
HETATM   15  N7  UNL     1     -14.377 -43.525  -5.977  1.00  0.00    -0.381 N 
ATOM     16  H72 UNL     1     -13.795 -44.217  -6.447  1.00  0.00     0.157 HD
ATOM     17  H71 UNL     1     -14.476 -43.807  -5.002  1.00  0.00     0.157 HD
ENDBRANCH  13  15
ENDBRANCH   5   8
BRANCH   1  18
HETATM   18  C4  UNL     1     -18.407 -45.293 -10.711  1.00  0.00     0.289 C 
HETATM   19  N1  UNL     1     -19.512 -44.490 -11.068  1.00  0.00    -0.332 N 
ATOM     20  H1  UNL     1     -19.666 -43.588 -10.617  1.00  0.00     0.164 HD
HETATM   21  O1  UNL     1     -18.238 -46.397 -11.276  1.00  0.00    -0.264 OA
BRANCH  19  22
HETATM   22  C2  UNL     1     -20.422 -44.971 -12.083  1.00  0.00     0.103 C 
HETATM   23  C1  UNL     1     -21.312 -46.023 -11.459  1.00  0.00     0.056 C 
HETATM   24  C3  UNL     1     -21.237 -43.777 -12.561  1.00  0.00     0.056 C 
HETATM   25 CL1  UNL     1     -19.448 -45.669 -13.388  1.00  0.00    -0.096 Cl
ENDBRANCH  19  22
ENDBRANCH   1  18
TORSDOF 4
ENDMDL
MODEL 2
REMARK VINA RESULT: -7.103147807      0.830      1.123
REMARK  4 active torsions:
REMARK  status: ('A' for Active; 'I' for Inactive)
REMARK    1  A    between atoms: C2_2  and  N1_5 
REMARK       I    between atoms: N1_5  and  C4_7 
REMARK    2  A    between atoms: C4_7  and  C5_9 
REMARK    3  A    between atoms: N4_13  and  C6_14 
REMARK    4  A    between atoms: C7_20  and  N7_21 
ROOT
HETATM    1  C5  UNL     1     -17.575 -44.818  -9.577  1.00  0.00     0.203 A 
HETATM    2  N2  UNL     1     -16.646 -45.586  -8.961  1.00  0.00    -0.262 N 
ATOM      3  H2  UNL     1     -16.530 -46.593  -9.079  1.00  0.00     0.186 HD
HETATM    4  N3  UNL     1     -15.912 -44.808  -8.178  1.00  0.00     0.004 NA
HETATM    5  N4  UNL     1     -16.338 -43.555  -8.269  1.00  0.00    -0.156 N 
HETATM    6  N8  UNL     1     -17.346 -43.575  -9.120  1.00  0.00    -0.258 N 
ATOM      7  H8  UNL     1     -17.883 -42.753  -9.395  1.00  0.00     0.190 HD
ENDROOT
BRANCH   5   8
HETATM    8  C6  UNL     1     -15.773 -42.450  -7.560  1.00  0.00     0.210 A 
HETATM    9  N5  UNL     1     -15.992 -41.141  -7.776  1.00  0.00    -0.219 N 
HETATM   10  O2  UNL     1     -15.299 -40.453  -6.928  1.00  0.00    -0.153 OA
ATOM     11  H5  UNL     1     -16.606 -40.753  -8.492  1.00  0.00     0.198 HD
HETATM   12  N6  UNL     1     -14.624 -41.232  -6.150  1.00  0.00    -0.222 N 
HETATM   13  C7  UNL     1     -14.886 -42.485  -6.505  1.00  0.00     0.170 A 
ATOM     14  H6  UNL     1     -14.001 -40.938  -5.398  1.00  0.00     0.198 HD
BRANCH  13  15
HETATM   15  N7  UNL     1     -14.386 -43.529  -5.945  1.00  0.00    -0.381 N 
ATOM     16  H72 UNL     1     -13.847 -44.248  -6.427  1.00  0.00     0.157 HD
ATOM     17  H71 UNL     1     -14.450 -43.791  -4.961  1.00  0.00     0.157 HD
ENDBRANCH  13  15
ENDBRANCH   5   8
BRANCH   1  18
HETATM   18  C4  UNL     1     -18.590 -45.265 -10.525  1.00  0.00     0.289 C 
HETATM   19  N1  UNL     1     -19.444 -44.333 -11.153  1.00  0.00    -0.332 N 
ATOM     20  H1  UNL     1     -19.363 -43.336 -10.951  1.00  0.00     0.164 HD
HETATM   21  O1  UNL     1     -18.708 -46.484 -10.786  1.00  0.00    -0.264 OA
BRANCH  19  22
HETATM   22  C2  UNL     1     -20.436 -44.817 -12.086  1.00  0.00     0.103 C 
HETATM   23  C1  UNL     1     -21.208 -43.628 -12.614  1.00  0.00     0.056 C 
HETATM   24  C3  UNL     1     -19.692 -45.529 -13.208  1.00  0.00     0.056 C 
HETATM   25 CL1  UNL     1     -21.509 -45.918 -11.204  1.00  0.00    -0.096 Cl
ENDBRANCH  19  22
ENDBRANCH   1  18
TORSDOF 4
ENDMDL
MODEL 3
REMARK VINA RESULT: -6.999682267      2.624      3.363
REMARK  4 active torsions:
REMARK  status: ('A' for Active; 'I' for Inactive)
REMARK    1  A    between atoms: C2_2  and  N1_5 
REMARK       I    between atoms: N1_5  and  C4_7 
REMARK    2  A    between atoms: C4_7  and  C5_9 
REMARK    3  A    between atoms: N4_13  and  C6_14 
REMARK    4  A    between atoms: C7_20  and  N7_21 
ROOT
HETATM    1  C5  UNL     1     -16.631 -42.209  -8.846  1.00  0.00     0.203 A 
HETATM    2  N2  UNL     1     -16.503 -40.961  -8.338  1.00  0.00    -0.262 N 
ATOM      3  H2  UNL     1     -16.875 -40.106  -8.753  1.00  0.00     0.186 HD
HETATM    4  N3  UNL     1     -15.811 -41.037  -7.211  1.00  0.00     0.004 NA
HETATM    5  N4  UNL     1     -15.487 -42.301  -6.971  1.00  0.00    -0.156 N 
HETATM    6  N8  UNL     1     -15.990 -43.000  -7.969  1.00  0.00    -0.258 N 
ATOM      7  H8  UNL     1     -15.902 -44.012  -8.064  1.00  0.00     0.190 HD
ENDROOT
BRANCH   5   8
HETATM    8  C6  UNL     1     -14.739 -42.747  -5.837  1.00  0.00     0.210 A 
HETATM    9  N5  UNL     1     -14.068 -43.905  -5.704  1.00  0.00    -0.219 N 
HETATM   10  O2  UNL     1     -13.521 -43.942  -4.532  1.00  0.00    -0.153 OA
ATOM     11  H5  UNL     1     -14.000 -44.636  -6.412  1.00  0.00     0.198 HD
HETATM   12  N6  UNL     1     -13.788 -42.867  -3.868  1.00  0.00    -0.222 N 
HETATM   13  C7  UNL     1     -14.545 -42.093  -4.639  1.00  0.00     0.170 A 
ATOM     14  H6  UNL     1     -13.475 -42.651  -2.922  1.00  0.00     0.198 HD
BRANCH  13  15
HETATM   15  N7  UNL     1     -15.002 -40.939  -4.301  1.00  0.00    -0.381 N 
ATOM     16  H72 UNL     1     -15.965 -40.631  -4.436  1.00  0.00     0.157 HD
ATOM     17  H71 UNL     1     -14.487 -40.177  -3.860  1.00  0.00     0.157 HD
ENDBRANCH  13  15
ENDBRANCH   5   8
BRANCH   1  18
HETATM   18  C4  UNL     1     -17.319 -42.587 -10.076  1.00  0.00     0.289 C 
HETATM   19  N1  UNL     1     -18.202 -41.686 -10.709  1.00  0.00    -0.332 N 
ATOM     20  H1  UNL     1     -18.370 -40.760 -10.315  1.00  0.00     0.164 HD
HETATM   21  O1  UNL     1     -17.128 -43.719 -10.576  1.00  0.00    -0.264 OA
BRANCH  19  22
HETATM   22  C2  UNL     1     -18.864 -42.100 -11.926  1.00  0.00     0.103 C 
HETATM   23  C1  UNL     1     -19.969 -41.111 -12.222  1.00  0.00     0.056 C 
HETATM   24  C3  UNL     1     -17.816 -42.098 -13.032  1.00  0.00     0.056 C 
HETATM   25 CL1  UNL     1     -19.529 -43.719 -11.650  1.00  0.00    -0.096 Cl
ENDBRANCH  19  22
ENDBRANCH   1  18
TORSDOF 4
ENDMDL
MODEL 4
REMARK VINA RESULT: -6.970750699      2.406      3.223
REMARK  4 active torsions:
REMARK  status: ('A' for Active; 'I' for Inactive)
REMARK    1  A    between atoms: C2_2  and  N1_5 
REMARK       I    between atoms: N1_5  and  C4_7 
REMARK    2  A    between atoms: C4_7  and  C5_9 
REMARK    3  A    between atoms: N4_13  and  C6_14 
REMARK    4  A    between atoms: C7_20  and  N7_21 
ROOT
HETATM    1  C5  UNL     1     -16.644 -42.203  -8.892  1.00  0.00     0.203 A 
HETATM    2  N2  UNL     1     -16.557 -40.955  -8.373  1.00  0.00    -0.262 N 
ATOM      3  H2  UNL     1     -16.964 -40.111  -8.777  1.00  0.00     0.186 HD
HETATM    4  N3  UNL     1     -15.854 -41.017  -7.251  1.00  0.00     0.004 NA
HETATM    5  N4  UNL     1     -15.482 -42.270  -7.026  1.00  0.00    -0.156 N 
HETATM    6  N8  UNL     1     -15.967 -42.978  -8.028  1.00  0.00    -0.258 N 
ATOM      7  H8  UNL     1     -15.844 -43.985  -8.134  1.00  0.00     0.190 HD
ENDROOT
BRANCH   5   8
HETATM    8  C6  UNL     1     -14.710 -42.701  -5.903  1.00  0.00     0.210 A 
HETATM    9  N5  UNL     1     -13.979 -43.824  -5.795  1.00  0.00    -0.219 N 
HETATM   10  O2  UNL     1     -13.428 -43.856  -4.625  1.00  0.00    -0.153 OA
ATOM     11  H5  UNL     1     -13.874 -44.535  -6.519  1.00  0.00     0.198 HD
HETATM   12  N6  UNL     1     -13.750 -42.811  -3.938  1.00  0.00    -0.222 N 
HETATM   13  C7  UNL     1     -14.548 -42.062  -4.692  1.00  0.00     0.170 A 
ATOM     14  H6  UNL     1     -13.447 -42.599  -2.988  1.00  0.00     0.198 HD
BRANCH  13  15
HETATM   15  N7  UNL     1     -15.065 -40.942  -4.329  1.00  0.00    -0.381 N 
ATOM     16  H72 UNL     1     -16.042 -40.681  -4.459  1.00  0.00     0.157 HD
ATOM     17  H71 UNL     1     -14.590 -40.164  -3.870  1.00  0.00     0.157 HD
ENDBRANCH  13  15
ENDBRANCH   5   8
BRANCH   1  18
HETATM   18  C4  UNL     1     -17.328 -42.593 -10.120  1.00  0.00     0.289 C 
HETATM   19  N1  UNL     1     -18.223 -41.705 -10.756  1.00  0.00    -0.332 N 
ATOM     20  H1  UNL     1     -18.403 -40.781 -10.364  1.00  0.00     0.164 HD
HETATM   21  O1  UNL     1     -17.122 -43.724 -10.617  1.00  0.00    -0.264 OA
BRANCH  19  22
HETATM   22  C2  UNL     1     -18.879 -42.131 -11.971  1.00  0.00     0.103 C 
HETATM   23  C1  UNL     1     -19.422 -43.526 -11.751  1.00  0.00     0.056 C 
HETATM   24  C3  UNL     1     -20.005 -41.142 -12.247  1.00  0.00     0.056 C 
HETATM   25 CL1  UNL     1     -17.668 -42.128 -13.264  1.00  0.00    -0.096 Cl
ENDBRANCH  19  22
ENDBRANCH   1  18
TORSDOF 4
ENDMDL
MODEL 5
REMARK VINA RESULT: -6.915008307      1.496      2.149
REMARK  4 active torsions:
REMARK  status: ('A' for Active; 'I' for Inactive)
REMARK    1  A    between atoms: C2_2  and  N1_5 
REMARK       I    between atoms: N1_5  and  C4_7 
REMARK    2  A    between atoms: C4_7  and  C5_9 
REMARK    3  A    between atoms: N4_13  and  C6_14 
REMARK    4  A    between atoms: C7_20  and  N7_21 
ROOT
HETATM    1  C5  UNL     1     -16.775 -43.764  -9.155  1.00  0.00     0.203 A 
HETATM    2  N2  UNL     1     -16.165 -42.626  -9.565  1.00  0.00    -0.262 N 
ATOM      3  H2  UNL     1     -16.271 -42.190 -10.481  1.00  0.00     0.186 HD
HETATM    4  N3  UNL     1     -15.410 -42.177  -8.574  1.00  0.00     0.004 NA
HETATM    5  N4  UNL     1     -15.511 -42.990  -7.531  1.00  0.00    -0.156 N 
HETATM    6  N8  UNL     1     -16.341 -43.947  -7.897  1.00  0.00    -0.258 N 
ATOM      7  H8  UNL     1     -16.617 -44.727  -7.301  1.00  0.00     0.190 HD
ENDROOT
BRANCH   5   8
HETATM    8  C6  UNL     1     -14.829 -42.807  -6.288  1.00  0.00     0.210 A 
HETATM    9  N5  UNL     1     -14.170 -43.735  -5.572  1.00  0.00    -0.219 N 
HETATM   10  O2  UNL     1     -13.689 -43.181  -4.506  1.00  0.00    -0.153 OA
ATOM     11  H5  UNL     1     -14.065 -44.717  -5.828  1.00  0.00     0.198 HD
HETATM   12  N6  UNL     1     -13.989 -41.925  -4.468  1.00  0.00    -0.222 N 
HETATM   13  C7  UNL     1     -14.699 -41.646  -5.556  1.00  0.00     0.170 A 
ATOM     14  H6  UNL     1     -13.728 -41.267  -3.734  1.00  0.00     0.198 HD
BRANCH  13  15
HETATM   15  N7  UNL     1     -15.171 -40.486  -5.849  1.00  0.00    -0.381 N 
ATOM     16  H72 UNL     1     -15.540 -39.819  -5.172  1.00  0.00     0.157 HD
ATOM     17  H71 UNL     1     -15.246 -40.067  -6.776  1.00  0.00     0.157 HD
ENDBRANCH  13  15
ENDBRANCH   5   8
BRANCH   1  18
HETATM   18  C4  UNL     1     -17.695 -44.591  -9.928  1.00  0.00     0.289 C 
HETATM   19  N1  UNL     1     -18.702 -43.996 -10.718  1.00  0.00    -0.332 N 
ATOM     20  H1  UNL     1     -18.799 -42.981 -10.758  1.00  0.00     0.164 HD
HETATM   21  O1  UNL     1     -17.595 -45.838  -9.893  1.00  0.00    -0.264 OA
BRANCH  19  22
HETATM   22  C2  UNL     1     -19.594 -44.851 -11.469  1.00  0.00     0.103 C 
HETATM   23  C1  UNL     1     -20.364 -45.706 -10.488  1.00  0.00     0.056 C 
HETATM   24  C3  UNL     1     -20.529 -43.945 -12.259  1.00  0.00     0.056 C 
HETATM   25 CL1  UNL     1     -18.599 -45.860 -12.533  1.00  0.00    -0.096 Cl
ENDBRANCH  19  22
ENDBRANCH   1  18
TORSDOF 4
ENDMDL
