MODEL 1
REMARK VINA RESULT: -8.599896260      0.000      0.000
REMARK  10 active torsions:
REMARK  status: ('A' for Active; 'I' for Inactive)
REMARK    1  A    between atoms: N2_7  and  C3_8 
REMARK    2  A    between atoms: C3_8  and  C4_9 
REMARK    3  A    between atoms: C4_9  and  O3_10 
REMARK    4  A    between atoms: C4_9  and  C5_12 
REMARK    5  A    between atoms: C5_12  and  O4_13 
REMARK    6  A    between atoms: C5_12  and  C6_15 
REMARK    7  A    between atoms: C6_15  and  O5_16 
REMARK    8  A    between atoms: C8_19  and  O6_20 
REMARK    9  A    between atoms: C9_22  and  O7_23 
REMARK   10  A    between atoms: C10_28  and  N4_29 
ROOT
HETATM    1  C4  UNL     1       1.616  11.869  20.532  1.00  0.00     0.170 C 
ENDROOT
BRANCH   1   2
HETATM    2  C3  UNL     1       1.729  10.973  21.750  1.00  0.00     0.187 C 
BRANCH   2   3
HETATM    3  N2  UNL     1       2.571   9.836  21.564  1.00  0.00    -0.129 N 
HETATM    4  C2  UNL     1       3.642   9.778  22.395  1.00  0.00     0.344 A 
HETATM    5  N1  UNL     1       4.479   8.751  22.289  1.00  0.00    -0.259 N 
HETATM    6  O2  UNL     1       3.872  10.658  23.261  1.00  0.00    -0.246 OA
HETATM    7  C1  UNL     1       4.242   7.793  21.358  1.00  0.00     0.342 A 
ATOM      8  H1  UNL     1       5.292   8.683  22.902  1.00  0.00     0.175 HD
HETATM    9  O1  UNL     1       5.041   6.814  21.256  1.00  0.00    -0.246 OA
HETATM   10  N5  UNL     1       3.196   7.858  20.555  1.00  0.00    -0.140 N 
HETATM   11  C10 UNL     1       2.292   8.920  20.635  1.00  0.00     0.699 A 
ATOM     12  H5  UNL     1       3.047   7.122  19.865  1.00  0.00     0.189 HD
BRANCH  11  13
HETATM   13  N4  UNL     1       1.340   8.784  19.852  1.00  0.00    -0.152 N 
HETATM   14  S1  UNL     1      -0.208   8.144  19.871  1.00  0.00     0.058 SA
ATOM     15  H4  UNL     1       1.563   9.173  18.936  1.00  0.00     0.193 HD
ENDBRANCH  11  13
ENDBRANCH   2   3
ENDBRANCH   1   2
BRANCH   1  16
HETATM   16  O3  UNL     1       0.366  11.906  20.046  1.00  0.00    -0.391 OA
ATOM     17  H3  UNL     1       0.154  12.753  19.671  1.00  0.00     0.210 HD
ENDBRANCH   1  16
BRANCH   1  18
HETATM   18  C5  UNL     1       2.281  13.179  20.797  1.00  0.00     0.211 C 
BRANCH  18  19
HETATM   19  O4  UNL     1       2.869  13.654  19.622  1.00  0.00    -0.388 OA
ATOM     20  H4  UNL     1       3.586  13.084  19.372  1.00  0.00     0.210 HD
ENDBRANCH  18  19
BRANCH  18  21
HETATM   21  C6  UNL     1       1.428  14.251  21.358  1.00  0.00     0.258 C 
HETATM   22  C7  UNL     1       2.237  15.515  21.561  1.00  0.00     0.107 C 
HETATM   23  C8  UNL     1       1.843  16.111  22.863  1.00  0.00     0.179 C 
HETATM   24  C9  UNL     1       0.637  15.300  23.268  1.00  0.00     0.351 C 
HETATM   25  N3  UNL     1       0.858  14.011  22.639  1.00  0.00    -0.012 N 
ATOM     26  H32 UNL     1       0.015  13.439  22.597  1.00  0.00     0.284 HD
ATOM     27  H31 UNL     1       1.419  13.381  23.211  1.00  0.00     0.284 HD
BRANCH  21  28
HETATM   28  O5  UNL     1       0.394  14.575  20.475  1.00  0.00    -0.363 OA
ATOM     29  H5  UNL     1       0.311  15.516  20.383  1.00  0.00     0.212 HD
ENDBRANCH  21  28
BRANCH  23  30
HETATM   30  O6  UNL     1       2.845  15.996  23.838  1.00  0.00    -0.391 OA
ATOM     31  H6  UNL     1       2.557  15.515  24.606  1.00  0.00     0.210 HD
ENDBRANCH  23  30
BRANCH  24  32
HETATM   32  O7  UNL     1      -0.488  15.907  22.710  1.00  0.00    -0.368 OA
ATOM     33  H7  UNL     1      -1.213  15.778  23.311  1.00  0.00     0.212 HD
ENDBRANCH  24  32
ENDBRANCH  18  21
ENDBRANCH   1  18
TORSDOF 10
ENDMDL
MODEL 2
REMARK VINA RESULT: -8.512009993      3.836      7.786
REMARK  10 active torsions:
REMARK  status: ('A' for Active; 'I' for Inactive)
REMARK    1  A    between atoms: N2_7  and  C3_8 
REMARK    2  A    between atoms: C3_8  and  C4_9 
REMARK    3  A    between atoms: C4_9  and  O3_10 
REMARK    4  A    between atoms: C4_9  and  C5_12 
REMARK    5  A    between atoms: C5_12  and  O4_13 
REMARK    6  A    between atoms: C5_12  and  C6_15 
REMARK    7  A    between atoms: C6_15  and  O5_16 
REMARK    8  A    between atoms: C8_19  and  O6_20 
REMARK    9  A    between atoms: C9_22  and  O7_23 
REMARK   10  A    between atoms: C10_28  and  N4_29 
ROOT
HETATM    1  C4  UNL     1       4.509   8.475  23.050  1.00  0.00     0.170 C 
ENDROOT
BRANCH   1   2
HETATM    2  C3  UNL     1       4.394   8.814  21.577  1.00  0.00     0.187 C 
BRANCH   2   3
HETATM    3  N2  UNL     1       3.071   9.145  21.154  1.00  0.00    -0.129 N 
HETATM    4  C2  UNL     1       2.417   8.151  20.502  1.00  0.00     0.344 A 
HETATM    5  N1  UNL     1       1.179   8.375  20.074  1.00  0.00    -0.259 N 
HETATM    6  O2  UNL     1       2.936   7.028  20.288  1.00  0.00    -0.246 OA
HETATM    7  C1  UNL     1       0.605   9.584  20.299  1.00  0.00     0.342 A 
ATOM      8  H1  UNL     1       0.664   7.645  19.580  1.00  0.00     0.175 HD
HETATM    9  O1  UNL     1      -0.575   9.798  19.889  1.00  0.00    -0.246 OA
HETATM   10  N5  UNL     1       1.250  10.544  20.935  1.00  0.00    -0.140 N 
HETATM   11  C10 UNL     1       2.552  10.349  21.403  1.00  0.00     0.699 A 
ATOM     12  H5  UNL     1       0.791  11.442  21.088  1.00  0.00     0.189 HD
BRANCH  11  13
HETATM   13  N4  UNL     1       2.976  11.329  22.031  1.00  0.00    -0.152 N 
HETATM   14  S1  UNL     1       2.550  12.931  22.279  1.00  0.00     0.058 SA
ATOM     15  H4  UNL     1       3.826  11.094  22.544  1.00  0.00     0.193 HD
ENDBRANCH  11  13
ENDBRANCH   2   3
ENDBRANCH   1   2
BRANCH   1  16
HETATM   16  O3  UNL     1       3.496   8.985  23.766  1.00  0.00    -0.391 OA
ATOM     17  H3  UNL     1       2.666   8.918  23.308  1.00  0.00     0.210 HD
ENDBRANCH   1  16
BRANCH   1  18
HETATM   18  C5  UNL     1       4.794   7.019  23.218  1.00  0.00     0.211 C 
BRANCH  18  19
HETATM   19  O4  UNL     1       5.455   6.536  22.086  1.00  0.00    -0.388 OA
ATOM     20  H4  UNL     1       4.822   6.354  21.401  1.00  0.00     0.210 HD
ENDBRANCH  18  19
BRANCH  18  21
HETATM   21  C6  UNL     1       5.577   6.632  24.414  1.00  0.00     0.258 C 
HETATM   22  C7  UNL     1       6.933   6.096  24.005  1.00  0.00     0.107 C 
HETATM   23  C8  UNL     1       7.236   4.913  24.849  1.00  0.00     0.179 C 
HETATM   24  C9  UNL     1       6.146   4.941  25.894  1.00  0.00     0.351 C 
HETATM   25  N3  UNL     1       5.038   5.592  25.221  1.00  0.00    -0.012 N 
ATOM     26  H32 UNL     1       4.320   5.922  25.867  1.00  0.00     0.284 HD
ATOM     27  H31 UNL     1       4.455   4.942  24.695  1.00  0.00     0.284 HD
BRANCH  21  28
HETATM   28  O5  UNL     1       5.813   7.740  25.232  1.00  0.00    -0.363 OA
ATOM     29  H5  UNL     1       5.115   7.846  25.867  1.00  0.00     0.212 HD
ENDBRANCH  21  28
BRANCH  23  30
HETATM   30  O6  UNL     1       7.180   3.707  24.135  1.00  0.00    -0.391 OA
ATOM     31  H6  UNL     1       7.544   2.975  24.620  1.00  0.00     0.210 HD
ENDBRANCH  23  30
BRANCH  24  32
HETATM   32  O7  UNL     1       6.591   5.740  26.946  1.00  0.00    -0.368 OA
ATOM     33  H7  UNL     1       6.804   5.166  27.674  1.00  0.00     0.212 HD
ENDBRANCH  24  32
ENDBRANCH  18  21
ENDBRANCH   1  18
TORSDOF 10
ENDMDL
MODEL 3
REMARK VINA RESULT: -8.347885259      3.774      6.025
REMARK  10 active torsions:
REMARK  status: ('A' for Active; 'I' for Inactive)
REMARK    1  A    between atoms: N2_7  and  C3_8 
REMARK    2  A    between atoms: C3_8  and  C4_9 
REMARK    3  A    between atoms: C4_9  and  O3_10 
REMARK    4  A    between atoms: C4_9  and  C5_12 
REMARK    5  A    between atoms: C5_12  and  O4_13 
REMARK    6  A    between atoms: C5_12  and  C6_15 
REMARK    7  A    between atoms: C6_15  and  O5_16 
REMARK    8  A    between atoms: C8_19  and  O6_20 
REMARK    9  A    between atoms: C9_22  and  O7_23 
REMARK   10  A    between atoms: C10_28  and  N4_29 
ROOT
HETATM    1  C4  UNL     1       4.366   7.894  22.679  1.00  0.00     0.170 C 
ENDROOT
BRANCH   1   2
HETATM    2  C3  UNL     1       4.262   8.654  21.372  1.00  0.00     0.187 C 
BRANCH   2   3
HETATM    3  N2  UNL     1       2.925   8.985  20.993  1.00  0.00    -0.129 N 
HETATM    4  C2  UNL     1       2.257   7.999  20.343  1.00  0.00     0.344 A 
HETATM    5  N1  UNL     1       1.006   8.224  19.954  1.00  0.00    -0.259 N 
HETATM    6  O2  UNL     1       2.775   6.883  20.096  1.00  0.00    -0.246 OA
HETATM    7  C1  UNL     1       0.434   9.426  20.215  1.00  0.00     0.342 A 
ATOM      8  H1  UNL     1       0.481   7.500  19.464  1.00  0.00     0.175 HD
HETATM    9  O1  UNL     1      -0.758   9.642  19.842  1.00  0.00    -0.246 OA
HETATM   10  N5  UNL     1       1.093  10.379  20.849  1.00  0.00    -0.140 N 
HETATM   11  C10 UNL     1       2.408  10.183  21.276  1.00  0.00     0.699 A 
ATOM     12  H5  UNL     1       0.634  11.272  21.029  1.00  0.00     0.189 HD
BRANCH  11  13
HETATM   13  N4  UNL     1       2.846  11.155  21.908  1.00  0.00    -0.152 N 
HETATM   14  S1  UNL     1       2.648  12.818  21.932  1.00  0.00     0.058 SA
ATOM     15  H4  UNL     1       3.518  10.857  22.615  1.00  0.00     0.193 HD
ENDBRANCH  11  13
ENDBRANCH   2   3
ENDBRANCH   1   2
BRANCH   1  16
HETATM   16  O3  UNL     1       4.771   6.628  22.497  1.00  0.00    -0.391 OA
ATOM     17  H3  UNL     1       5.598   6.452  22.928  1.00  0.00     0.210 HD
ENDBRANCH   1  16
BRANCH   1  18
HETATM   18  C5  UNL     1       5.112   8.707  23.685  1.00  0.00     0.211 C 
BRANCH  18  19
HETATM   19  O4  UNL     1       5.129  10.046  23.287  1.00  0.00    -0.388 OA
ATOM     20  H4  UNL     1       5.801  10.175  22.629  1.00  0.00     0.210 HD
ENDBRANCH  18  19
BRANCH  18  21
HETATM   21  C6  UNL     1       4.623   8.642  25.081  1.00  0.00     0.258 C 
HETATM   22  C7  UNL     1       3.254   9.281  25.190  1.00  0.00     0.107 C 
HETATM   23  C8  UNL     1       3.219  10.088  26.436  1.00  0.00     0.179 C 
HETATM   24  C9  UNL     1       4.496   9.699  27.141  1.00  0.00     0.351 C 
HETATM   25  N3  UNL     1       5.391   9.333  26.060  1.00  0.00    -0.012 N 
ATOM     26  H32 UNL     1       6.201   8.800  26.377  1.00  0.00     0.284 HD
ATOM     27  H31 UNL     1       5.898  10.131  25.677  1.00  0.00     0.284 HD
BRANCH  21  28
HETATM   28  O5  UNL     1       4.481   7.316  25.496  1.00  0.00    -0.363 OA
ATOM     29  H5  UNL     1       4.045   7.271  26.339  1.00  0.00     0.212 HD
ENDBRANCH  21  28
BRANCH  23  30
HETATM   30  O6  UNL     1       3.213  11.469  26.188  1.00  0.00    -0.391 OA
ATOM     31  H6  UNL     1       3.382  11.983  26.969  1.00  0.00     0.210 HD
ENDBRANCH  23  30
BRANCH  24  32
HETATM   32  O7  UNL     1       4.221   8.577  27.922  1.00  0.00    -0.368 OA
ATOM     33  H7  UNL     1       3.408   8.199  27.607  1.00  0.00     0.212 HD
ENDBRANCH  24  32
ENDBRANCH  18  21
ENDBRANCH   1  18
TORSDOF 10
ENDMDL
MODEL 4
REMARK VINA RESULT: -8.281919500      3.978      6.924
REMARK  10 active torsions:
REMARK  status: ('A' for Active; 'I' for Inactive)
REMARK    1  A    between atoms: N2_7  and  C3_8 
REMARK    2  A    between atoms: C3_8  and  C4_9 
REMARK    3  A    between atoms: C4_9  and  O3_10 
REMARK    4  A    between atoms: C4_9  and  C5_12 
REMARK    5  A    between atoms: C5_12  and  O4_13 
REMARK    6  A    between atoms: C5_12  and  C6_15 
REMARK    7  A    between atoms: C6_15  and  O5_16 
REMARK    8  A    between atoms: C8_19  and  O6_20 
REMARK    9  A    between atoms: C9_22  and  O7_23 
REMARK   10  A    between atoms: C10_28  and  N4_29 
ROOT
HETATM    1  C4  UNL     1       4.499   7.861  24.047  1.00  0.00     0.170 C 
ENDROOT
BRANCH   1   2
HETATM    2  C3  UNL     1       4.722   8.856  22.925  1.00  0.00     0.187 C 
BRANCH   2   3
HETATM    3  N2  UNL     1       3.522   9.306  22.296  1.00  0.00    -0.129 N 
HETATM    4  C2  UNL     1       3.186   8.636  21.165  1.00  0.00     0.344 A 
HETATM    5  N1  UNL     1       2.082   8.993  20.516  1.00  0.00    -0.259 N 
HETATM    6  O2  UNL     1       3.878   7.694  20.709  1.00  0.00    -0.246 OA
HETATM    7  C1  UNL     1       1.325  10.010  20.999  1.00  0.00     0.342 A 
ATOM      8  H1  UNL     1       1.807   8.505  19.663  1.00  0.00     0.175 HD
HETATM    9  O1  UNL     1       0.273  10.350  20.378  1.00  0.00    -0.246 OA
HETATM   10  N5  UNL     1       1.660  10.654  22.101  1.00  0.00    -0.140 N 
HETATM   11  C10 UNL     1       2.812  10.311  22.813  1.00  0.00     0.699 A 
ATOM     12  H5  UNL     1       1.070  11.415  22.437  1.00  0.00     0.189 HD
BRANCH  11  13
HETATM   13  N4  UNL     1       2.935  10.974  23.853  1.00  0.00    -0.152 N 
HETATM   14  S1  UNL     1       2.042  12.082  24.738  1.00  0.00     0.058 SA
ATOM     15  H4  UNL     1       3.836  10.795  24.295  1.00  0.00     0.193 HD
ENDBRANCH  11  13
ENDBRANCH   2   3
ENDBRANCH   1   2
BRANCH   1  16
HETATM   16  O3  UNL     1       4.761   6.602  23.666  1.00  0.00    -0.391 OA
ATOM     17  H3  UNL     1       4.112   5.989  23.988  1.00  0.00     0.210 HD
ENDBRANCH   1  16
BRANCH   1  18
HETATM   18  C5  UNL     1       5.160   8.343  25.296  1.00  0.00     0.211 C 
BRANCH  18  19
HETATM   19  O4  UNL     1       5.688   9.620  25.086  1.00  0.00    -0.388 OA
ATOM     20  H4  UNL     1       5.512  10.166  25.842  1.00  0.00     0.210 HD
ENDBRANCH  18  19
BRANCH  18  21
HETATM   21  C6  UNL     1       4.322   8.381  26.516  1.00  0.00     0.258 C 
HETATM   22  C7  UNL     1       4.975   9.243  27.577  1.00  0.00     0.107 C 
HETATM   23  C8  UNL     1       4.817   8.562  28.887  1.00  0.00     0.179 C 
HETATM   24  C9  UNL     1       3.860   7.434  28.581  1.00  0.00     0.351 C 
HETATM   25  N3  UNL     1       4.104   7.143  27.181  1.00  0.00    -0.012 N 
ATOM     26  H32 UNL     1       3.361   6.589  26.755  1.00  0.00     0.284 HD
ATOM     27  H31 UNL     1       4.864   6.477  27.040  1.00  0.00     0.284 HD
BRANCH  21  28
HETATM   28  O5  UNL     1       3.077   8.954  26.244  1.00  0.00    -0.363 OA
ATOM     29  H5  UNL     1       2.417   8.626  26.843  1.00  0.00     0.212 HD
ENDBRANCH  21  28
BRANCH  23  30
HETATM   30  O6  UNL     1       6.023   8.042  29.378  1.00  0.00    -0.391 OA
ATOM     31  H6  UNL     1       6.242   8.374  30.242  1.00  0.00     0.210 HD
ENDBRANCH  23  30
BRANCH  24  32
HETATM   32  O7  UNL     1       2.565   7.925  28.739  1.00  0.00    -0.368 OA
ATOM     33  H7  UNL     1       2.371   8.472  27.986  1.00  0.00     0.212 HD
ENDBRANCH  24  32
ENDBRANCH  18  21
ENDBRANCH   1  18
TORSDOF 10
ENDMDL
MODEL 5
REMARK VINA RESULT: -8.241377054      2.941      6.643
REMARK  10 active torsions:
REMARK  status: ('A' for Active; 'I' for Inactive)
REMARK    1  A    between atoms: N2_7  and  C3_8 
REMARK    2  A    between atoms: C3_8  and  C4_9 
REMARK    3  A    between atoms: C4_9  and  O3_10 
REMARK    4  A    between atoms: C4_9  and  C5_12 
REMARK    5  A    between atoms: C5_12  and  O4_13 
REMARK    6  A    between atoms: C5_12  and  C6_15 
REMARK    7  A    between atoms: C6_15  and  O5_16 
REMARK    8  A    between atoms: C8_19  and  O6_20 
REMARK    9  A    between atoms: C9_22  and  O7_23 
REMARK   10  A    between atoms: C10_28  and  N4_29 
ROOT
HETATM    1  C4  UNL     1       3.305  10.672  24.015  1.00  0.00     0.170 C 
ENDROOT
BRANCH   1   2
HETATM    2  C3  UNL     1       2.067  10.642  23.142  1.00  0.00     0.187 C 
BRANCH   2   3
HETATM    3  N2  UNL     1       2.124  11.519  22.016  1.00  0.00    -0.129 N 
HETATM    4  C2  UNL     1       1.711  12.788  22.261  1.00  0.00     0.344 A 
HETATM    5  N1  UNL     1       1.732  13.670  21.267  1.00  0.00    -0.259 N 
HETATM    6  O2  UNL     1       1.311  13.161  23.391  1.00  0.00    -0.246 OA
HETATM    7  C1  UNL     1       2.162  13.280  20.041  1.00  0.00     0.342 A 
ATOM      8  H1  UNL     1       1.427  14.631  21.424  1.00  0.00     0.175 HD
HETATM    9  O1  UNL     1       2.180  14.121  19.092  1.00  0.00    -0.246 OA
HETATM   10  N5  UNL     1       2.562  12.043  19.813  1.00  0.00    -0.140 N 
HETATM   11  C10 UNL     1       2.558  11.086  20.830  1.00  0.00     0.699 A 
ATOM     12  H5  UNL     1       2.879  11.781  18.879  1.00  0.00     0.189 HD
BRANCH  11  13
HETATM   13  N4  UNL     1       3.025  10.001  20.456  1.00  0.00    -0.152 N 
HETATM   14  S1  UNL     1       2.518   8.412  20.299  1.00  0.00     0.058 SA
ATOM     15  H4  UNL     1       3.995  10.106  20.158  1.00  0.00     0.193 HD
ENDBRANCH  11  13
ENDBRANCH   2   3
ENDBRANCH   1   2
BRANCH   1  16
HETATM   16  O3  UNL     1       3.029  11.062  25.269  1.00  0.00    -0.391 OA
ATOM     17  H3  UNL     1       2.909  12.002  25.333  1.00  0.00     0.210 HD
ENDBRANCH   1  16
BRANCH   1  18
HETATM   18  C5  UNL     1       4.076   9.405  23.853  1.00  0.00     0.211 C 
BRANCH  18  19
HETATM   19  O4  UNL     1       4.976   9.535  22.791  1.00  0.00    -0.388 OA
ATOM     20  H4  UNL     1       5.817   9.827  23.120  1.00  0.00     0.210 HD
ENDBRANCH  18  19
BRANCH  18  21
HETATM   21  C6  UNL     1       4.823   8.928  25.039  1.00  0.00     0.258 C 
HETATM   22  C7  UNL     1       5.649   7.708  24.687  1.00  0.00     0.107 C 
HETATM   23  C8  UNL     1       5.536   6.736  25.803  1.00  0.00     0.179 C 
HETATM   24  C9  UNL     1       4.838   7.525  26.885  1.00  0.00     0.351 C 
HETATM   25  N3  UNL     1       4.047   8.495  26.151  1.00  0.00    -0.012 N 
ATOM     26  H32 UNL     1       3.724   9.267  26.734  1.00  0.00     0.284 HD
ATOM     27  H31 UNL     1       3.131   8.138  25.881  1.00  0.00     0.284 HD
BRANCH  21  28
HETATM   28  O5  UNL     1       5.718   9.903  25.487  1.00  0.00    -0.363 OA
ATOM     29  H5  UNL     1       6.610   9.675  25.252  1.00  0.00     0.212 HD
ENDBRANCH  21  28
BRANCH  23  30
HETATM   30  O6  UNL     1       4.772   5.609  25.467  1.00  0.00    -0.391 OA
ATOM     31  H6  UNL     1       5.292   4.816  25.407  1.00  0.00     0.210 HD
ENDBRANCH  23  30
BRANCH  24  32
HETATM   32  O7  UNL     1       5.818   8.183  27.627  1.00  0.00    -0.368 OA
ATOM     33  H7  UNL     1       6.459   8.527  27.015  1.00  0.00     0.212 HD
ENDBRANCH  24  32
ENDBRANCH  18  21
ENDBRANCH   1  18
TORSDOF 10
ENDMDL
