MODEL 1
REMARK VINA RESULT: -9.442750012      0.000      0.000
REMARK  8 active torsions:
REMARK  status: ('A' for Active; 'I' for Inactive)
REMARK    1  A    between atoms: C3_3  and  O1_4 
REMARK    2  A    between atoms: C3_3  and  C4_6 
REMARK    3  A    between atoms: C4_6  and  O2_7 
REMARK    4  A    between atoms: C4_6  and  C5_9 
REMARK    5  A    between atoms: C6_11  and  N1_12 
REMARK    6  A    between atoms: N1_12  and  N2_14 
REMARK    7  A    between atoms: C8_18  and  N4_19 
REMARK    8  A    between atoms: C10_24  and  N6_25 
ROOT
HETATM    1  C1  UNL     1       2.032  14.824  23.346  1.00  0.00     0.015 C 
HETATM    2  C2  UNL     1       2.080  14.840  22.140  1.00  0.00    -0.083 C 
HETATM    3  C3  UNL     1       2.161  14.871  20.661  1.00  0.00     0.229 C 
ENDROOT
BRANCH   3   4
HETATM    4  O1  UNL     1       3.101  15.880  20.364  1.00  0.00    -0.381 OA
ATOM      5  H1  UNL     1       2.842  16.220  19.516  1.00  0.00     0.211 HD
ENDBRANCH   3   4
BRANCH   3   6
HETATM    6  C4  UNL     1       2.734  13.546  20.238  1.00  0.00     0.214 C 
BRANCH   6   7
HETATM    7  O2  UNL     1       2.418  13.381  18.881  1.00  0.00    -0.387 OA
ATOM      8  H2  UNL     1       1.808  12.656  18.826  1.00  0.00     0.210 HD
ENDBRANCH   6   7
BRANCH   6   9
HETATM    9  C5  UNL     1       2.116  12.385  20.971  1.00  0.00     0.297 C 
HETATM   10  O3  UNL     1       1.532  11.557  20.006  1.00  0.00    -0.328 OA
HETATM   11  C6  UNL     1       1.764  10.254  20.391  1.00  0.00     0.288 C 
HETATM   12  C8  UNL     1       2.356  10.411  21.764  1.00  0.00     0.290 C 
HETATM   13  O6  UNL     1       3.071  11.599  21.619  1.00  0.00    -0.329 OA
BRANCH  11  14
HETATM   14  N1  UNL     1       0.498   9.540  20.404  1.00  0.00    -0.303 N 
ATOM     15  H1  UNL     1      -0.301   9.930  20.903  1.00  0.00     0.183 HD
BRANCH  14  16
HETATM   16  N2  UNL     1       0.375   8.324  19.735  1.00  0.00    -0.300 N 
HETATM   17  C7  UNL     1      -0.695   7.952  19.159  1.00  0.00     0.206 C 
HETATM   18  N3  UNL     1      -1.877   8.741  19.137  1.00  0.00    -0.095 NA
ATOM     19  H2  UNL     1       1.182   7.701  19.707  1.00  0.00     0.186 HD
ENDBRANCH  14  16
ENDBRANCH  11  14
BRANCH  12  20
HETATM   20  N4  UNL     1       3.139   9.308  22.195  1.00  0.00    -0.218 N 
HETATM   21  C9  UNL     1       3.665   8.374  21.374  1.00  0.00     0.347 A 
HETATM   22  O4  UNL     1       3.463   8.468  20.154  1.00  0.00    -0.246 OA
HETATM   23  N5  UNL     1       4.405   7.338  21.810  1.00  0.00    -0.141 N 
HETATM   24  C10 UNL     1       4.639   7.214  23.126  1.00  0.00     0.683 A 
ATOM     25  H5  UNL     1       4.781   6.658  21.151  1.00  0.00     0.189 HD
HETATM   26  N7  UNL     1       4.131   8.123  23.969  1.00  0.00    -0.141 N 
HETATM   27  C11 UNL     1       3.392   9.154  23.507  1.00  0.00     0.347 A 
ATOM     28  H7  UNL     1       4.305   8.034  24.970  1.00  0.00     0.189 HD
HETATM   29  O5  UNL     1       2.936   9.986  24.353  1.00  0.00    -0.246 OA
BRANCH  24  30
HETATM   30  N6  UNL     1       5.351   6.224  23.587  1.00  0.00    -0.234 N 
ATOM     31  H62 UNL     1       5.518   5.403  23.005  1.00  0.00     0.174 HD
ATOM     32  H61 UNL     1       5.746   6.258  24.526  1.00  0.00     0.174 HD
ENDBRANCH  24  30
ENDBRANCH  12  20
ENDBRANCH   6   9
ENDBRANCH   3   6
TORSDOF 8
ENDMDL
MODEL 2
REMARK VINA RESULT: -9.402630052      2.960      6.048
REMARK  8 active torsions:
REMARK  status: ('A' for Active; 'I' for Inactive)
REMARK    1  A    between atoms: C3_3  and  O1_4 
REMARK    2  A    between atoms: C3_3  and  C4_6 
REMARK    3  A    between atoms: C4_6  and  O2_7 
REMARK    4  A    between atoms: C4_6  and  C5_9 
REMARK    5  A    between atoms: C6_11  and  N1_12 
REMARK    6  A    between atoms: N1_12  and  N2_14 
REMARK    7  A    between atoms: C8_18  and  N4_19 
REMARK    8  A    between atoms: C10_24  and  N6_25 
ROOT
HETATM    1  C1  UNL     1       3.784   8.039  27.623  1.00  0.00     0.015 C 
HETATM    2  C2  UNL     1       3.572   8.769  26.685  1.00  0.00    -0.083 C 
HETATM    3  C3  UNL     1       3.326   9.684  25.547  1.00  0.00     0.229 C 
ENDROOT
BRANCH   3   4
HETATM    4  O1  UNL     1       3.504  10.982  26.071  1.00  0.00    -0.381 OA
ATOM      5  H1  UNL     1       3.004  10.995  26.878  1.00  0.00     0.211 HD
ENDBRANCH   3   4
BRANCH   3   6
HETATM    6  C4  UNL     1       4.415   9.421  24.544  1.00  0.00     0.214 C 
BRANCH   6   7
HETATM    7  O2  UNL     1       5.602   9.931  25.088  1.00  0.00    -0.387 OA
ATOM      8  H2  UNL     1       6.290   9.308  24.885  1.00  0.00     0.210 HD
ENDBRANCH   6   7
BRANCH   6   9
HETATM    9  C5  UNL     1       4.192  10.141  23.240  1.00  0.00     0.297 C 
HETATM   10  O3  UNL     1       3.137   9.490  22.590  1.00  0.00    -0.328 OA
HETATM   11  C6  UNL     1       2.364  10.463  21.992  1.00  0.00     0.288 C 
HETATM   12  C8  UNL     1       3.183  11.708  22.187  1.00  0.00     0.290 C 
HETATM   13  O6  UNL     1       3.768  11.458  23.427  1.00  0.00    -0.329 OA
BRANCH  11  14
HETATM   14  N1  UNL     1       2.190  10.121  20.590  1.00  0.00    -0.303 N 
ATOM     15  H1  UNL     1       2.880  10.422  19.902  1.00  0.00     0.183 HD
BRANCH  14  16
HETATM   16  N2  UNL     1       1.080   9.382  20.184  1.00  0.00    -0.300 N 
HETATM   17  C7  UNL     1       1.140   8.152  19.871  1.00  0.00     0.206 C 
HETATM   18  N3  UNL     1       2.348   7.403  19.902  1.00  0.00    -0.095 NA
ATOM     19  H2  UNL     1       0.175   9.851  20.137  1.00  0.00     0.186 HD
ENDBRANCH  14  16
ENDBRANCH  11  14
BRANCH  12  20
HETATM   20  N4  UNL     1       2.438  12.915  22.128  1.00  0.00    -0.218 N 
HETATM   21  C9  UNL     1       1.709  13.418  23.146  1.00  0.00     0.347 A 
HETATM   22  O4  UNL     1       1.674  12.797  24.220  1.00  0.00    -0.246 OA
HETATM   23  N5  UNL     1       1.012  14.565  23.062  1.00  0.00    -0.141 N 
HETATM   24  C10 UNL     1       1.033  15.256  21.912  1.00  0.00     0.683 A 
ATOM     25  H5  UNL     1       0.475  14.905  23.860  1.00  0.00     0.189 HD
HETATM   26  N7  UNL     1       1.746  14.787  20.880  1.00  0.00    -0.141 N 
HETATM   27  C11 UNL     1       2.438  13.632  20.990  1.00  0.00     0.347 A 
ATOM     28  H7  UNL     1       1.766  15.306  20.002  1.00  0.00     0.189 HD
HETATM   29  O5  UNL     1       3.098  13.234  19.978  1.00  0.00    -0.246 OA
BRANCH  24  30
HETATM   30  N6  UNL     1       0.371  16.373  21.791  1.00  0.00    -0.234 N 
ATOM     31  H62 UNL     1       0.733  17.228  22.214  1.00  0.00     0.174 HD
ATOM     32  H61 UNL     1      -0.509  16.404  21.277  1.00  0.00     0.174 HD
ENDBRANCH  24  30
ENDBRANCH  12  20
ENDBRANCH   6   9
ENDBRANCH   3   6
TORSDOF 8
ENDMDL
MODEL 3
REMARK VINA RESULT: -9.201595394      2.955      5.830
REMARK  8 active torsions:
REMARK  status: ('A' for Active; 'I' for Inactive)
REMARK    1  A    between atoms: C3_3  and  O1_4 
REMARK    2  A    between atoms: C3_3  and  C4_6 
REMARK    3  A    between atoms: C4_6  and  O2_7 
REMARK    4  A    between atoms: C4_6  and  C5_9 
REMARK    5  A    between atoms: C6_11  and  N1_12 
REMARK    6  A    between atoms: N1_12  and  N2_14 
REMARK    7  A    between atoms: C8_18  and  N4_19 
REMARK    8  A    between atoms: C10_24  and  N6_25 
ROOT
HETATM    1  C1  UNL     1       3.678   8.162  27.682  1.00  0.00     0.015 C 
HETATM    2  C2  UNL     1       3.494   8.871  26.721  1.00  0.00    -0.083 C 
HETATM    3  C3  UNL     1       3.283   9.760  25.555  1.00  0.00     0.229 C 
ENDROOT
BRANCH   3   4
HETATM    4  O1  UNL     1       3.489  11.066  26.045  1.00  0.00    -0.381 OA
ATOM      5  H1  UNL     1       4.214  11.411  25.537  1.00  0.00     0.211 HD
ENDBRANCH   3   4
BRANCH   3   6
HETATM    6  C4  UNL     1       4.375   9.440  24.572  1.00  0.00     0.214 C 
BRANCH   6   7
HETATM    7  O2  UNL     1       5.569   9.938  25.114  1.00  0.00    -0.387 OA
ATOM      8  H2  UNL     1       5.724  10.784  24.710  1.00  0.00     0.210 HD
ENDBRANCH   6   7
BRANCH   6   9
HETATM    9  C5  UNL     1       4.182  10.126  23.245  1.00  0.00     0.297 C 
HETATM   10  O3  UNL     1       3.107   9.493  22.612  1.00  0.00    -0.328 OA
HETATM   11  C6  UNL     1       2.371  10.474  21.980  1.00  0.00     0.288 C 
HETATM   12  C8  UNL     1       3.233  11.694  22.140  1.00  0.00     0.290 C 
HETATM   13  O6  UNL     1       3.805  11.463  23.389  1.00  0.00    -0.329 OA
BRANCH  11  14
HETATM   14  N1  UNL     1       2.189  10.094  20.589  1.00  0.00    -0.303 N 
ATOM     15  H1  UNL     1       2.895  10.342  19.896  1.00  0.00     0.183 HD
BRANCH  14  16
HETATM   16  N2  UNL     1       1.051   9.390  20.200  1.00  0.00    -0.300 N 
HETATM   17  C7  UNL     1       1.068   8.161  19.880  1.00  0.00     0.206 C 
HETATM   18  N3  UNL     1       2.252   7.375  19.887  1.00  0.00    -0.095 NA
ATOM     19  H2  UNL     1       0.160   9.887  20.170  1.00  0.00     0.186 HD
ENDBRANCH  14  16
ENDBRANCH  11  14
BRANCH  12  20
HETATM   20  N4  UNL     1       2.531  12.924  22.039  1.00  0.00    -0.218 N 
HETATM   21  C9  UNL     1       2.462  13.678  20.921  1.00  0.00     0.347 A 
HETATM   22  O4  UNL     1       3.044  13.287  19.899  1.00  0.00    -0.246 OA
HETATM   23  N5  UNL     1       1.789  14.841  20.853  1.00  0.00    -0.141 N 
HETATM   24  C10 UNL     1       1.150  15.287  21.946  1.00  0.00     0.683 A 
ATOM     25  H5  UNL     1       1.765  15.375  19.985  1.00  0.00     0.189 HD
HETATM   26  N7  UNL     1       1.198  14.565  23.073  1.00  0.00    -0.141 N 
HETATM   27  C11 UNL     1       1.880  13.401  23.115  1.00  0.00     0.347 A 
ATOM     28  H7  UNL     1       0.715  14.898  23.907  1.00  0.00     0.189 HD
HETATM   29  O5  UNL     1       1.891  12.756  24.212  1.00  0.00    -0.246 OA
BRANCH  24  30
HETATM   30  N6  UNL     1       0.486  16.410  21.919  1.00  0.00    -0.234 N 
ATOM     31  H62 UNL     1       0.652  17.082  21.171  1.00  0.00     0.174 HD
ATOM     32  H61 UNL     1      -0.200  16.627  22.641  1.00  0.00     0.174 HD
ENDBRANCH  24  30
ENDBRANCH  12  20
ENDBRANCH   6   9
ENDBRANCH   3   6
TORSDOF 8
ENDMDL
MODEL 4
REMARK VINA RESULT: -9.185305631      0.128      1.605
REMARK  8 active torsions:
REMARK  status: ('A' for Active; 'I' for Inactive)
REMARK    1  A    between atoms: C3_3  and  O1_4 
REMARK    2  A    between atoms: C3_3  and  C4_6 
REMARK    3  A    between atoms: C4_6  and  O2_7 
REMARK    4  A    between atoms: C4_6  and  C5_9 
REMARK    5  A    between atoms: C6_11  and  N1_12 
REMARK    6  A    between atoms: N1_12  and  N2_14 
REMARK    7  A    between atoms: C8_18  and  N4_19 
REMARK    8  A    between atoms: C10_24  and  N6_25 
ROOT
HETATM    1  C1  UNL     1       1.999  14.817  23.315  1.00  0.00     0.015 C 
HETATM    2  C2  UNL     1       2.061  14.795  22.110  1.00  0.00    -0.083 C 
HETATM    3  C3  UNL     1       2.161  14.779  20.632  1.00  0.00     0.229 C 
ENDROOT
BRANCH   3   4
HETATM    4  O1  UNL     1       3.092  15.790  20.314  1.00  0.00    -0.381 OA
ATOM      5  H1  UNL     1       3.941  15.421  20.525  1.00  0.00     0.211 HD
ENDBRANCH   3   4
BRANCH   3   6
HETATM    6  C4  UNL     1       2.755  13.448  20.259  1.00  0.00     0.214 C 
BRANCH   6   7
HETATM    7  O2  UNL     1       2.459  13.235  18.905  1.00  0.00    -0.387 OA
ATOM      8  H2  UNL     1       3.144  12.678  18.556  1.00  0.00     0.210 HD
ENDBRANCH   6   7
BRANCH   6   9
HETATM    9  C5  UNL     1       2.142  12.303  21.022  1.00  0.00     0.297 C 
HETATM   10  O3  UNL     1       1.572  11.443  20.077  1.00  0.00    -0.328 OA
HETATM   11  C6  UNL     1       1.813  10.153  20.502  1.00  0.00     0.288 C 
HETATM   12  C8  UNL     1       2.393  10.356  21.873  1.00  0.00     0.290 C 
HETATM   13  O6  UNL     1       3.099  11.545  21.698  1.00  0.00    -0.329 OA
BRANCH  11  14
HETATM   14  N1  UNL     1       0.553   9.429  20.528  1.00  0.00    -0.303 N 
ATOM     15  H1  UNL     1      -0.222   9.773  21.095  1.00  0.00     0.183 HD
BRANCH  14  16
HETATM   16  N2  UNL     1       0.401   8.265  19.777  1.00  0.00    -0.300 N 
HETATM   17  C7  UNL     1      -0.676   7.961  19.175  1.00  0.00     0.206 C 
HETATM   18  N3  UNL     1      -1.839   8.779  19.206  1.00  0.00    -0.095 NA
ATOM     19  H2  UNL     1       1.192   7.625  19.707  1.00  0.00     0.186 HD
ENDBRANCH  14  16
ENDBRANCH  11  14
BRANCH  12  20
HETATM   20  N4  UNL     1       3.183   9.273  22.341  1.00  0.00    -0.218 N 
HETATM   21  C9  UNL     1       3.471   9.038  23.639  1.00  0.00     0.347 A 
HETATM   22  O4  UNL     1       3.024   9.811  24.500  1.00  0.00    -0.246 OA
HETATM   23  N5  UNL     1       4.222   8.003  24.055  1.00  0.00    -0.141 N 
HETATM   24  C10 UNL     1       4.718   7.152  23.144  1.00  0.00     0.683 A 
ATOM     25  H5  UNL     1       4.413   7.867  25.047  1.00  0.00     0.189 HD
HETATM   26  N7  UNL     1       4.453   7.354  21.847  1.00  0.00    -0.141 N 
HETATM   27  C11 UNL     1       3.696   8.401  21.455  1.00  0.00     0.347 A 
ATOM     28  H7  UNL     1       4.827   6.711  21.149  1.00  0.00     0.189 HD
HETATM   29  O5  UNL     1       3.476   8.544  20.210  1.00  0.00    -0.246 OA
BRANCH  24  30
HETATM   30  N6  UNL     1       5.451   6.136  23.508  1.00  0.00    -0.234 N 
ATOM     31  H62 UNL     1       5.058   5.416  24.114  1.00  0.00     0.174 HD
ATOM     32  H61 UNL     1       6.417   6.050  23.193  1.00  0.00     0.174 HD
ENDBRANCH  24  30
ENDBRANCH  12  20
ENDBRANCH   6   9
ENDBRANCH   3   6
TORSDOF 8
ENDMDL
MODEL 5
REMARK VINA RESULT: -9.095545936      3.668      8.082
REMARK  8 active torsions:
REMARK  status: ('A' for Active; 'I' for Inactive)
REMARK    1  A    between atoms: C3_3  and  O1_4 
REMARK    2  A    between atoms: C3_3  and  C4_6 
REMARK    3  A    between atoms: C4_6  and  O2_7 
REMARK    4  A    between atoms: C4_6  and  C5_9 
REMARK    5  A    between atoms: C6_11  and  N1_12 
REMARK    6  A    between atoms: N1_12  and  N2_14 
REMARK    7  A    between atoms: C8_18  and  N4_19 
REMARK    8  A    between atoms: C10_24  and  N6_25 
ROOT
HETATM    1  C1  UNL     1       7.953   2.520  26.495  1.00  0.00     0.015 C 
HETATM    2  C2  UNL     1       7.677   3.669  26.247  1.00  0.00    -0.083 C 
HETATM    3  C3  UNL     1       7.355   5.078  25.924  1.00  0.00     0.229 C 
ENDROOT
BRANCH   3   4
HETATM    4  O1  UNL     1       8.453   5.544  25.171  1.00  0.00    -0.381 OA
ATOM      5  H1  UNL     1       8.072   6.016  24.440  1.00  0.00     0.211 HD
ENDBRANCH   3   4
BRANCH   3   6
HETATM    6  C4  UNL     1       6.145   5.045  25.032  1.00  0.00     0.214 C 
BRANCH   6   7
HETATM    7  O2  UNL     1       6.610   5.113  23.711  1.00  0.00    -0.387 OA
ATOM      8  H2  UNL     1       6.424   5.989  23.396  1.00  0.00     0.210 HD
ENDBRANCH   6   7
BRANCH   6   9
HETATM    9  C5  UNL     1       5.241   6.233  25.234  1.00  0.00     0.297 C 
HETATM   10  O3  UNL     1       6.058   7.311  25.592  1.00  0.00    -0.328 OA
HETATM   11  C6  UNL     1       5.557   8.430  24.960  1.00  0.00     0.288 C 
HETATM   12  C8  UNL     1       4.267   7.933  24.372  1.00  0.00     0.290 C 
HETATM   13  O6  UNL     1       4.600   6.617  24.055  1.00  0.00    -0.329 OA
BRANCH  11  14
HETATM   14  N1  UNL     1       5.358   9.474  25.951  1.00  0.00    -0.303 N 
ATOM     15  H1  UNL     1       5.266  10.446  25.657  1.00  0.00     0.183 HD
BRANCH  14  16
HETATM   16  N2  UNL     1       5.291   9.148  27.305  1.00  0.00    -0.300 N 
HETATM   17  C7  UNL     1       4.707   9.875  28.167  1.00  0.00     0.206 C 
HETATM   18  N3  UNL     1       4.060  11.098  27.840  1.00  0.00    -0.095 NA
ATOM     19  H2  UNL     1       5.733   8.284  27.618  1.00  0.00     0.186 HD
ENDBRANCH  14  16
ENDBRANCH  11  14
BRANCH  12  20
HETATM   20  N4  UNL     1       3.791   8.695  23.273  1.00  0.00    -0.218 N 
HETATM   21  C9  UNL     1       4.071   8.432  21.979  1.00  0.00     0.347 A 
HETATM   22  O4  UNL     1       4.792   7.460  21.709  1.00  0.00    -0.246 OA
HETATM   23  N5  UNL     1       3.606   9.172  20.956  1.00  0.00    -0.141 N 
HETATM   24  C10 UNL     1       2.823  10.229  21.221  1.00  0.00     0.683 A 
ATOM     25  H5  UNL     1       3.845   8.934  19.994  1.00  0.00     0.189 HD
HETATM   26  N7  UNL     1       2.525  10.520  22.494  1.00  0.00    -0.141 N 
HETATM   27  C11 UNL     1       3.004   9.762  23.503  1.00  0.00     0.347 A 
ATOM     28  H7  UNL     1       1.932  11.323  22.703  1.00  0.00     0.189 HD
HETATM   29  O5  UNL     1       2.689  10.084  24.693  1.00  0.00    -0.246 OA
BRANCH  24  30
HETATM   30  N6  UNL     1       2.353  10.971  20.257  1.00  0.00    -0.234 N 
ATOM     31  H62 UNL     1       2.005  10.535  19.403  1.00  0.00     0.174 HD
ATOM     32  H61 UNL     1       2.328  11.987  20.344  1.00  0.00     0.174 HD
ENDBRANCH  24  30
ENDBRANCH  12  20
ENDBRANCH   6   9
ENDBRANCH   3   6
TORSDOF 8
ENDMDL
