MODEL 1
REMARK VINA RESULT: -8.906932916      0.000      0.000
REMARK  9 active torsions:
REMARK  status: ('A' for Active; 'I' for Inactive)
REMARK    1  A    between atoms: N1_1  and  C1_4 
REMARK    2  A    between atoms: C2_9  and  C3_10 
REMARK    3  A    between atoms: N4_11  and  N5_13 
REMARK    4  A    between atoms: N6_15  and  N7_17 
REMARK    5  A    between atoms: C6_26  and  C7_27 
REMARK    6  A    between atoms: C7_27  and  O2_28 
REMARK    7  A    between atoms: C7_27  and  C8_30 
REMARK    8  A    between atoms: C8_30  and  N11_31 
REMARK    9  A    between atoms: C8_30  and  N12_35 
ROOT
HETATM    1  N7  UNL     1       2.934  11.585  21.742  1.00  0.00    -0.199 N 
HETATM    2  N8  UNL     1       3.352  12.746  21.094  1.00  0.00    -0.255 N 
ATOM      3  H8  UNL     1       4.305  12.764  20.731  1.00  0.00     0.191 HD
HETATM    4  C4  UNL     1       2.628  13.796  20.919  1.00  0.00     0.211 C 
HETATM    5  N9  UNL     1       3.065  14.966  20.260  1.00  0.00    -0.062 NA
HETATM    6  N10 UNL     1       1.283  13.720  21.449  1.00  0.00    -0.298 N 
ATOM      7  H10 UNL     1       0.653  14.516  21.346  1.00  0.00     0.171 HD
HETATM    8  C5  UNL     1       0.835  12.549  22.109  1.00  0.00     0.253 C 
HETATM    9  O1  UNL     1      -0.097  12.594  22.933  1.00  0.00    -0.271 OA
HETATM   10  C6  UNL     1       1.504  11.271  21.794  1.00  0.00     0.253 C 
ENDROOT
BRANCH   1  11
HETATM   11  N6  UNL     1       3.842  10.708  22.349  1.00  0.00    -0.210 N 
HETATM   12  N5  UNL     1       3.512   9.621  22.879  1.00  0.00    -0.227 N 
ATOM     13  H5  UNL     1       2.538   9.320  22.891  1.00  0.00     0.210 HD
ATOM     14  H6  UNL     1       4.828  10.968  22.360  1.00  0.00     0.211 HD
BRANCH  12  15
HETATM   15  N4  UNL     1       4.510   8.833  23.451  1.00  0.00    -0.294 N 
HETATM   16  C3  UNL     1       4.338   7.563  23.529  1.00  0.00     0.145 C 
ATOM     17  H4  UNL     1       5.366   9.261  23.804  1.00  0.00     0.187 HD
BRANCH  16  18
HETATM   18  C2  UNL     1       5.379   6.743  24.126  1.00  0.00     0.134 A 
HETATM   19  N3  UNL     1       6.077   5.864  23.374  1.00  0.00    -0.280 N 
HETATM   20  N2  UNL     1       7.030   5.116  23.927  1.00  0.00    -0.132 N 
ATOM     21  H3  UNL     1       5.874   5.773  22.379  1.00  0.00     0.188 HD
HETATM   22  C1  UNL     1       7.303   5.228  25.233  1.00  0.00     0.693 A 
ATOM     23  H2  UNL     1       7.554   4.456  23.353  1.00  0.00     0.205 HD
HETATM   24  N13 UNL     1       6.648   6.078  26.030  1.00  0.00    -0.153 N 
HETATM   25  C9  UNL     1       5.674   6.845  25.467  1.00  0.00     0.289 A 
ATOM     26  H13 UNL     1       6.869   6.150  27.023  1.00  0.00     0.187 HD
HETATM   27  O3  UNL     1       5.052   7.642  26.191  1.00  0.00    -0.265 OA
BRANCH  22  28
HETATM   28  N1  UNL     1       8.242   4.470  25.703  1.00  0.00    -0.233 N 
ATOM     29  H12 UNL     1       8.742   4.728  26.554  1.00  0.00     0.174 HD
ATOM     30  H11 UNL     1       8.451   3.617  25.186  1.00  0.00     0.174 HD
ENDBRANCH  22  28
ENDBRANCH  16  18
ENDBRANCH  12  15
ENDBRANCH   1  11
BRANCH  10  31
HETATM   31  C7  UNL     1       1.072  10.647  20.502  1.00  0.00     0.211 C 
BRANCH  31  32
HETATM   32  O2  UNL     1       0.068  11.358  19.845  1.00  0.00    -0.389 OA
ATOM     33  H2  UNL     1      -0.810  11.129  20.128  1.00  0.00     0.210 HD
ENDBRANCH  31  32
BRANCH  31  34
HETATM   34  C8  UNL     1       0.644   9.230  20.612  1.00  0.00     0.408 C 
BRANCH  34  35
HETATM   35  N11 UNL     1       1.654   8.294  20.163  1.00  0.00    -0.048 N 
ATOM     36 3H11 UNL     1       1.229   7.412  19.876  1.00  0.00     0.276 HD
ATOM     37 2H11 UNL     1       2.050   8.588  19.270  1.00  0.00     0.276 HD
ATOM     38 1H11 UNL     1       2.389   8.136  20.852  1.00  0.00     0.276 HD
ENDBRANCH  34  35
BRANCH  34  39
HETATM   39  N12 UNL     1      -0.581   8.927  19.905  1.00  0.00    -0.048 N 
ATOM     40 3H12 UNL     1      -0.919   7.998  20.156  1.00  0.00     0.276 HD
ATOM     41 2H12 UNL     1      -1.349   9.493  20.263  1.00  0.00     0.276 HD
ATOM     42 1H12 UNL     1      -0.509   9.020  18.891  1.00  0.00     0.276 HD
ENDBRANCH  34  39
ENDBRANCH  31  34
ENDBRANCH  10  31
TORSDOF 9
ENDMDL
MODEL 2
REMARK VINA RESULT: -8.773493799      1.499      3.227
REMARK  9 active torsions:
REMARK  status: ('A' for Active; 'I' for Inactive)
REMARK    1  A    between atoms: N1_1  and  C1_4 
REMARK    2  A    between atoms: C2_9  and  C3_10 
REMARK    3  A    between atoms: N4_11  and  N5_13 
REMARK    4  A    between atoms: N6_15  and  N7_17 
REMARK    5  A    between atoms: C6_26  and  C7_27 
REMARK    6  A    between atoms: C7_27  and  O2_28 
REMARK    7  A    between atoms: C7_27  and  C8_30 
REMARK    8  A    between atoms: C8_30  and  N11_31 
REMARK    9  A    between atoms: C8_30  and  N12_35 
ROOT
HETATM    1  N7  UNL     1       2.501  10.328  21.915  1.00  0.00    -0.199 N 
HETATM    2  N8  UNL     1       1.322   9.867  21.335  1.00  0.00    -0.255 N 
ATOM      3  H8  UNL     1       0.933   8.993  21.689  1.00  0.00     0.191 HD
HETATM    4  C4  UNL     1       0.683  10.460  20.386  1.00  0.00     0.211 C 
HETATM    5  N9  UNL     1      -0.512   9.981  19.807  1.00  0.00    -0.062 NA
HETATM    6  N10 UNL     1       1.271  11.698  19.920  1.00  0.00    -0.298 N 
ATOM      7  H10 UNL     1       0.820  12.222  19.170  1.00  0.00     0.171 HD
HETATM    8  C5  UNL     1       2.469  12.188  20.497  1.00  0.00     0.253 C 
HETATM    9  O1  UNL     1       3.216  12.958  19.866  1.00  0.00    -0.271 OA
HETATM   10  C6  UNL     1       2.808  11.760  21.868  1.00  0.00     0.253 C 
ENDROOT
BRANCH   1  11
HETATM   11  N6  UNL     1       3.406   9.463  22.542  1.00  0.00    -0.210 N 
HETATM   12  N5  UNL     1       4.550   9.806  22.922  1.00  0.00    -0.227 N 
ATOM     13  H5  UNL     1       4.880  10.761  22.787  1.00  0.00     0.210 HD
ATOM     14  H6  UNL     1       3.118   8.497  22.698  1.00  0.00     0.211 HD
BRANCH  12  15
HETATM   15  N4  UNL     1       5.359   8.850  23.534  1.00  0.00    -0.294 N 
HETATM   16  C3  UNL     1       4.943   7.637  23.618  1.00  0.00     0.145 C 
ATOM     17  H4  UNL     1       6.270   9.110  23.912  1.00  0.00     0.187 HD
BRANCH  16  18
HETATM   18  C2  UNL     1       5.788   6.642  24.257  1.00  0.00     0.134 A 
HETATM   19  N3  UNL     1       6.368   5.663  23.528  1.00  0.00    -0.280 N 
HETATM   20  N2  UNL     1       7.140   4.755  24.118  1.00  0.00    -0.132 N 
ATOM     21  H3  UNL     1       6.213   5.621  22.521  1.00  0.00     0.188 HD
HETATM   22  C1  UNL     1       7.349   4.802  25.440  1.00  0.00     0.693 A 
ATOM     23  H2  UNL     1       7.576   4.019  23.562  1.00  0.00     0.205 HD
HETATM   24  N13 UNL     1       6.803   5.745  26.216  1.00  0.00    -0.153 N 
HETATM   25  C9  UNL     1       6.013   6.675  25.614  1.00  0.00     0.289 A 
ATOM     26  H13 UNL     1       6.972   5.765  27.221  1.00  0.00     0.187 HD
HETATM   27  O3  UNL     1       5.495   7.560  26.318  1.00  0.00    -0.265 OA
BRANCH  22  28
HETATM   28  N1  UNL     1       8.111   3.887  25.948  1.00  0.00    -0.233 N 
ATOM     29  H12 UNL     1       9.012   4.129  26.360  1.00  0.00     0.174 HD
ATOM     30  H11 UNL     1       7.768   2.927  25.914  1.00  0.00     0.174 HD
ENDBRANCH  22  28
ENDBRANCH  16  18
ENDBRANCH  12  15
ENDBRANCH   1  11
BRANCH  10  31
HETATM   31  C7  UNL     1       2.055  12.479  22.946  1.00  0.00     0.211 C 
BRANCH  31  32
HETATM   32  O2  UNL     1       0.671  12.353  22.840  1.00  0.00    -0.389 OA
ATOM     33  H2  UNL     1       0.194  12.769  23.549  1.00  0.00     0.210 HD
ENDBRANCH  31  32
BRANCH  31  34
HETATM   34  C8  UNL     1       2.385  13.921  23.075  1.00  0.00     0.408 C 
BRANCH  34  35
HETATM   35  N11 UNL     1       2.808  14.291  24.409  1.00  0.00    -0.048 N 
ATOM     36 3H11 UNL     1       2.064  14.122  25.086  1.00  0.00     0.276 HD
ATOM     37 2H11 UNL     1       3.507  13.637  24.763  1.00  0.00     0.276 HD
ATOM     38 1H11 UNL     1       3.144  15.252  24.471  1.00  0.00     0.276 HD
ENDBRANCH  34  35
BRANCH  34  39
HETATM   39  N12 UNL     1       1.308  14.808  22.694  1.00  0.00    -0.048 N 
ATOM     40 3H12 UNL     1       1.317  14.970  21.687  1.00  0.00     0.276 HD
ATOM     41 2H12 UNL     1       0.408  14.338  22.785  1.00  0.00     0.276 HD
ATOM     42 1H12 UNL     1       1.301  15.694  23.198  1.00  0.00     0.276 HD
ENDBRANCH  34  39
ENDBRANCH  31  34
ENDBRANCH  10  31
TORSDOF 9
ENDMDL
MODEL 3
REMARK VINA RESULT: -7.994404554      3.944      4.711
REMARK  9 active torsions:
REMARK  status: ('A' for Active; 'I' for Inactive)
REMARK    1  A    between atoms: N1_1  and  C1_4 
REMARK    2  A    between atoms: C2_9  and  C3_10 
REMARK    3  A    between atoms: N4_11  and  N5_13 
REMARK    4  A    between atoms: N6_15  and  N7_17 
REMARK    5  A    between atoms: C6_26  and  C7_27 
REMARK    6  A    between atoms: C7_27  and  O2_28 
REMARK    7  A    between atoms: C7_27  and  C8_30 
REMARK    8  A    between atoms: C8_30  and  N11_31 
REMARK    9  A    between atoms: C8_30  and  N12_35 
ROOT
HETATM    1  N7  UNL     1       2.206  14.872  23.463  1.00  0.00    -0.199 N 
HETATM    2  N8  UNL     1       2.805  16.101  23.732  1.00  0.00    -0.255 N 
ATOM      3  H8  UNL     1       3.568  16.114  24.408  1.00  0.00     0.191 HD
HETATM    4  C4  UNL     1       2.469  17.221  23.192  1.00  0.00     0.211 C 
HETATM    5  N9  UNL     1       3.086  18.459  23.475  1.00  0.00    -0.062 NA
HETATM    6  N10 UNL     1       1.384  17.151  22.237  1.00  0.00    -0.298 N 
ATOM      7  H10 UNL     1       1.065  18.000  21.770  1.00  0.00     0.171 HD
HETATM    8  C5  UNL     1       0.761  15.911  21.945  1.00  0.00     0.253 C 
HETATM    9  O1  UNL     1      -0.401  15.866  21.504  1.00  0.00    -0.271 OA
HETATM   10  C6  UNL     1       1.530  14.673  22.178  1.00  0.00     0.253 C 
ENDROOT
BRANCH   1  11
HETATM   11  N6  UNL     1       2.229  13.819  24.385  1.00  0.00    -0.210 N 
HETATM   12  N5  UNL     1       1.569  12.762  24.253  1.00  0.00    -0.227 N 
ATOM     13  H5  UNL     1       0.968  12.620  23.442  1.00  0.00     0.210 HD
ATOM     14  H6  UNL     1       2.816  13.918  25.213  1.00  0.00     0.211 HD
BRANCH  12  15
HETATM   15  N4  UNL     1       1.676  11.786  25.243  1.00  0.00    -0.294 N 
HETATM   16  C3  UNL     1       2.820  11.252  25.475  1.00  0.00     0.145 C 
ATOM     17  H4  UNL     1       0.855  11.499  25.775  1.00  0.00     0.187 HD
BRANCH  16  18
HETATM   18  C2  UNL     1       2.931  10.234  26.506  1.00  0.00     0.134 A 
HETATM   19  N3  UNL     1       3.526   9.050  26.242  1.00  0.00    -0.280 N 
HETATM   20  N2  UNL     1       3.624   8.121  27.190  1.00  0.00    -0.132 N 
ATOM     21  H3  UNL     1       3.902   8.867  25.312  1.00  0.00     0.188 HD
HETATM   22  C1  UNL     1       3.133   8.353  28.414  1.00  0.00     0.693 A 
ATOM     23  H2  UNL     1       4.076   7.231  26.985  1.00  0.00     0.205 HD
HETATM   24  N13 UNL     1       2.532   9.502  28.738  1.00  0.00    -0.153 N 
HETATM   25  C9  UNL     1       2.431  10.453  27.770  1.00  0.00     0.289 A 
ATOM     26  H13 UNL     1       2.163   9.661  29.675  1.00  0.00     0.187 HD
HETATM   27  O3  UNL     1       1.875  11.530  28.049  1.00  0.00    -0.265 OA
BRANCH  22  28
HETATM   28  N1  UNL     1       3.263   7.406  29.288  1.00  0.00    -0.233 N 
ATOM     29  H12 UNL     1       2.617   6.617  29.302  1.00  0.00     0.174 HD
ATOM     30  H11 UNL     1       4.034   7.490  29.951  1.00  0.00     0.174 HD
ENDBRANCH  22  28
ENDBRANCH  16  18
ENDBRANCH  12  15
ENDBRANCH   1  11
BRANCH  10  31
HETATM   31  C7  UNL     1       2.538  14.360  21.115  1.00  0.00     0.211 C 
BRANCH  31  32
HETATM   32  O2  UNL     1       2.950  15.476  20.388  1.00  0.00    -0.389 OA
ATOM     33  H2  UNL     1       2.243  16.070  20.167  1.00  0.00     0.210 HD
ENDBRANCH  31  32
BRANCH  31  34
HETATM   34  C8  UNL     1       2.119  13.307  20.155  1.00  0.00     0.408 C 
BRANCH  34  35
HETATM   35  N11 UNL     1       1.234  12.321  20.741  1.00  0.00    -0.048 N 
ATOM     36 3H11 UNL     1       0.642  11.896  20.028  1.00  0.00     0.276 HD
ATOM     37 2H11 UNL     1       1.756  11.497  21.040  1.00  0.00     0.276 HD
ATOM     38 1H11 UNL     1       0.671  12.692  21.507  1.00  0.00     0.276 HD
ENDBRANCH  34  35
BRANCH  34  39
HETATM   39  N12 UNL     1       3.219  12.598  19.540  1.00  0.00    -0.048 N 
ATOM     40 3H12 UNL     1       3.080  11.590  19.610  1.00  0.00     0.276 HD
ATOM     41 2H12 UNL     1       3.191  12.706  18.526  1.00  0.00     0.276 HD
ATOM     42 1H12 UNL     1       4.136  12.859  19.903  1.00  0.00     0.276 HD
ENDBRANCH  34  39
ENDBRANCH  31  34
ENDBRANCH  10  31
TORSDOF 9
ENDMDL
MODEL 4
REMARK VINA RESULT: -7.958729913      4.179     10.909
REMARK  9 active torsions:
REMARK  status: ('A' for Active; 'I' for Inactive)
REMARK    1  A    between atoms: N1_1  and  C1_4 
REMARK    2  A    between atoms: C2_9  and  C3_10 
REMARK    3  A    between atoms: N4_11  and  N5_13 
REMARK    4  A    between atoms: N6_15  and  N7_17 
REMARK    5  A    between atoms: C6_26  and  C7_27 
REMARK    6  A    between atoms: C7_27  and  O2_28 
REMARK    7  A    between atoms: C7_27  and  C8_30 
REMARK    8  A    between atoms: C8_30  and  N11_31 
REMARK    9  A    between atoms: C8_30  and  N12_35 
ROOT
HETATM    1  N7  UNL     1       7.608   4.282  28.600  1.00  0.00    -0.199 N 
HETATM    2  N8  UNL     1       8.309   3.106  28.343  1.00  0.00    -0.255 N 
ATOM      3  H8  UNL     1       8.686   2.980  27.403  1.00  0.00     0.191 HD
HETATM    4  C4  UNL     1       8.518   2.167  29.199  1.00  0.00     0.211 C 
HETATM    5  N9  UNL     1       9.230   0.980  28.923  1.00  0.00    -0.062 NA
HETATM    6  N10 UNL     1       7.967   2.395  30.518  1.00  0.00    -0.298 N 
ATOM      7  H10 UNL     1       8.093   1.692  31.247  1.00  0.00     0.171 HD
HETATM    8  C5  UNL     1       7.252   3.585  30.804  1.00  0.00     0.253 C 
HETATM    9  O1  UNL     1       6.419   3.626  31.727  1.00  0.00    -0.271 OA
HETATM   10  C6  UNL     1       7.524   4.777  29.977  1.00  0.00     0.253 C 
ENDROOT
BRANCH   1  11
HETATM   11  N6  UNL     1       6.979   5.008  27.581  1.00  0.00    -0.210 N 
HETATM   12  N5  UNL     1       6.157   5.931  27.789  1.00  0.00    -0.227 N 
ATOM     13  H5  UNL     1       5.905   6.202  28.739  1.00  0.00     0.210 HD
ATOM     14  H6  UNL     1       7.201   4.771  26.615  1.00  0.00     0.211 HD
BRANCH  12  15
HETATM   15  N4  UNL     1       5.597   6.580  26.688  1.00  0.00    -0.294 N 
HETATM   16  C3  UNL     1       6.082   6.362  25.519  1.00  0.00     0.145 C 
ATOM     17  H4  UNL     1       4.812   7.219  26.811  1.00  0.00     0.187 HD
BRANCH  16  18
HETATM   18  C2  UNL     1       5.497   7.038  24.373  1.00  0.00     0.134 A 
HETATM   19  N3  UNL     1       5.163   6.344  23.263  1.00  0.00    -0.280 N 
HETATM   20  N2  UNL     1       4.627   6.968  22.217  1.00  0.00    -0.132 N 
ATOM     21  H3  UNL     1       5.320   5.337  23.227  1.00  0.00     0.188 HD
HETATM   22  C1  UNL     1       4.417   8.290  22.255  1.00  0.00     0.693 A 
ATOM     23  H2  UNL     1       4.376   6.438  21.383  1.00  0.00     0.205 HD
HETATM   24  N13 UNL     1       4.728   9.033  23.323  1.00  0.00    -0.153 N 
HETATM   25  C9  UNL     1       5.274   8.396  24.394  1.00  0.00     0.289 A 
ATOM     26  H13 UNL     1       4.561  10.039  23.335  1.00  0.00     0.187 HD
HETATM   27  O3  UNL     1       5.571   9.068  25.398  1.00  0.00    -0.265 OA
BRANCH  22  28
HETATM   28  N1  UNL     1       3.893   8.833  21.202  1.00  0.00    -0.233 N 
ATOM     29  H12 UNL     1       3.889   9.845  21.086  1.00  0.00     0.174 HD
ATOM     30  H11 UNL     1       3.492   8.202  20.508  1.00  0.00     0.174 HD
ENDBRANCH  22  28
ENDBRANCH  16  18
ENDBRANCH  12  15
ENDBRANCH   1  11
BRANCH  10  31
HETATM   31  C7  UNL     1       8.783   5.506  30.335  1.00  0.00     0.211 C 
BRANCH  31  32
HETATM   32  O2  UNL     1       9.936   4.736  30.191  1.00  0.00    -0.389 OA
ATOM     33  H2  UNL     1       9.809   3.816  30.393  1.00  0.00     0.210 HD
ENDBRANCH  31  32
BRANCH  31  34
HETATM   34  C8  UNL     1       8.787   6.103  31.695  1.00  0.00     0.408 C 
BRANCH  34  35
HETATM   35  N11 UNL     1       9.224   5.180  32.721  1.00  0.00    -0.048 N 
ATOM     36 3H11 UNL     1       8.788   5.399  33.616  1.00  0.00     0.276 HD
ATOM     37 2H11 UNL     1       8.831   4.251  32.565  1.00  0.00     0.276 HD
ATOM     38 1H11 UNL     1      10.239   5.135  32.813  1.00  0.00     0.276 HD
ENDBRANCH  34  35
BRANCH  34  39
HETATM   39  N12 UNL     1       7.509   6.643  32.105  1.00  0.00    -0.048 N 
ATOM     40 3H12 UNL     1       7.073   6.040  32.803  1.00  0.00     0.276 HD
ATOM     41 2H12 UNL     1       7.641   7.486  32.663  1.00  0.00     0.276 HD
ATOM     42 1H12 UNL     1       6.866   6.820  31.334  1.00  0.00     0.276 HD
ENDBRANCH  34  39
ENDBRANCH  31  34
ENDBRANCH  10  31
TORSDOF 9
ENDMDL
MODEL 5
REMARK VINA RESULT: -7.854848248      3.770      4.749
REMARK  9 active torsions:
REMARK  status: ('A' for Active; 'I' for Inactive)
REMARK    1  A    between atoms: N1_1  and  C1_4 
REMARK    2  A    between atoms: C2_9  and  C3_10 
REMARK    3  A    between atoms: N4_11  and  N5_13 
REMARK    4  A    between atoms: N6_15  and  N7_17 
REMARK    5  A    between atoms: C6_26  and  C7_27 
REMARK    6  A    between atoms: C7_27  and  O2_28 
REMARK    7  A    between atoms: C7_27  and  C8_30 
REMARK    8  A    between atoms: C8_30  and  N11_31 
REMARK    9  A    between atoms: C8_30  and  N12_35 
ROOT
HETATM    1  N7  UNL     1       2.278  14.732  23.490  1.00  0.00    -0.199 N 
HETATM    2  N8  UNL     1       2.884  15.932  23.854  1.00  0.00    -0.255 N 
ATOM      3  H8  UNL     1       3.667  15.884  24.507  1.00  0.00     0.191 HD
HETATM    4  C4  UNL     1       2.533  17.096  23.430  1.00  0.00     0.211 C 
HETATM    5  N9  UNL     1       3.157  18.305  23.809  1.00  0.00    -0.062 NA
HETATM    6  N10 UNL     1       1.421  17.111  22.504  1.00  0.00    -0.298 N 
ATOM      7  H10 UNL     1       1.088  17.999  22.127  1.00  0.00     0.171 HD
HETATM    8  C5  UNL     1       0.790  15.902  22.116  1.00  0.00     0.253 C 
HETATM    9  O1  UNL     1      -0.385  15.895  21.707  1.00  0.00    -0.271 OA
HETATM   10  C6  UNL     1       1.566  14.650  22.212  1.00  0.00     0.253 C 
ENDROOT
BRANCH   1  11
HETATM   11  N6  UNL     1       2.328  13.598  24.310  1.00  0.00    -0.210 N 
HETATM   12  N5  UNL     1       1.693  12.542  24.079  1.00  0.00    -0.227 N 
ATOM     13  H5  UNL     1       1.094  12.462  23.257  1.00  0.00     0.210 HD
ATOM     14  H6  UNL     1       2.914  13.632  25.143  1.00  0.00     0.211 HD
BRANCH  12  15
HETATM   15  N4  UNL     1       1.825  11.480  24.973  1.00  0.00    -0.294 N 
HETATM   16  C3  UNL     1       2.738  11.530  25.875  1.00  0.00     0.145 C 
ATOM     17  H4  UNL     1       1.204  10.673  24.911  1.00  0.00     0.187 HD
BRANCH  16  18
HETATM   18  C2  UNL     1       2.875  10.423  26.805  1.00  0.00     0.134 A 
HETATM   19  N3  UNL     1       2.449  10.542  28.082  1.00  0.00    -0.280 N 
HETATM   20  N2  UNL     1       2.577   9.524  28.930  1.00  0.00    -0.132 N 
ATOM     21  H3  UNL     1       2.028  11.416  28.398  1.00  0.00     0.188 HD
HETATM   22  C1  UNL     1       3.129   8.374  28.525  1.00  0.00     0.693 A 
ATOM     23  H2  UNL     1       2.252   9.621  29.892  1.00  0.00     0.205 HD
HETATM   24  N13 UNL     1       3.570   8.193  27.276  1.00  0.00    -0.153 N 
HETATM   25  C9  UNL     1       3.440   9.233  26.407  1.00  0.00     0.289 A 
ATOM     26  H13 UNL     1       3.989   7.310  26.985  1.00  0.00     0.187 HD
HETATM   27  O3  UNL     1       3.844   9.087  25.240  1.00  0.00    -0.265 OA
BRANCH  22  28
HETATM   28  N1  UNL     1       3.222   7.425  29.403  1.00  0.00    -0.233 N 
ATOM     29  H12 UNL     1       2.960   7.588  30.374  1.00  0.00     0.174 HD
ATOM     30  H11 UNL     1       3.565   6.523  29.074  1.00  0.00     0.174 HD
ENDBRANCH  22  28
ENDBRANCH  16  18
ENDBRANCH  12  15
ENDBRANCH   1  11
BRANCH  10  31
HETATM   31  C7  UNL     1       2.543  14.440  21.095  1.00  0.00     0.211 C 
BRANCH  31  32
HETATM   32  O2  UNL     1       2.875  15.610  20.414  1.00  0.00    -0.389 OA
ATOM     33  H2  UNL     1       2.570  16.401  20.843  1.00  0.00     0.210 HD
ENDBRANCH  31  32
BRANCH  31  34
HETATM   34  C8  UNL     1       2.133  13.419  20.098  1.00  0.00     0.408 C 
BRANCH  34  35
HETATM   35  N11 UNL     1       1.145  12.490  20.607  1.00  0.00    -0.048 N 
ATOM     36 3H11 UNL     1       1.495  11.533  20.571  1.00  0.00     0.276 HD
ATOM     37 2H11 UNL     1       1.037  12.592  21.616  1.00  0.00     0.276 HD
ATOM     38 1H11 UNL     1       0.244  12.565  20.135  1.00  0.00     0.276 HD
ENDBRANCH  34  35
BRANCH  34  39
HETATM   39  N12 UNL     1       3.230  12.643  19.563  1.00  0.00    -0.048 N 
ATOM     40 3H12 UNL     1       3.117  11.656  19.795  1.00  0.00     0.276 HD
ATOM     41 2H12 UNL     1       3.169  12.591  18.547  1.00  0.00     0.276 HD
ATOM     42 1H12 UNL     1       4.151  12.975  19.850  1.00  0.00     0.276 HD
ENDBRANCH  34  39
ENDBRANCH  31  34
ENDBRANCH  10  31
TORSDOF 9
ENDMDL
