MODEL 1
REMARK VINA RESULT: -8.351145219      0.000      0.000
REMARK  8 active torsions:
REMARK  status: ('A' for Active; 'I' for Inactive)
REMARK    1  A    between atoms: C2_2  and  O1_3 
REMARK    2  A    between atoms: C2_2  and  C3_5 
REMARK    3  A    between atoms: C10_15  and  O2_16 
REMARK    4  A    between atoms: O2_16  and  S1_17 
REMARK    5  A    between atoms: S1_17  and  O5_20 
REMARK    6  A    between atoms: O5_20  and  C11_21 
REMARK    7  A    between atoms: C19_31  and  O6_32 
REMARK    8  A    between atoms: C20_34  and  O7_35 
ROOT
HETATM    1  C3  UNL     1       7.658  28.306  56.358  1.00  0.00     0.160 C 
HETATM    2  F1  UNL     1       8.341  29.431  56.863  1.00  0.00    -0.238 F 
HETATM    3  C4  UNL     1       8.030  28.237  54.917  1.00  0.00     0.053 C 
HETATM    4  C5  UNL     1       7.034  27.632  54.001  1.00  0.00     0.073 C 
HETATM    5  C6  UNL     1       5.629  27.841  54.446  1.00  0.00     0.406 C 
HETATM    6  F2  UNL     1       4.808  28.003  53.383  1.00  0.00    -0.216 F 
HETATM    7  N1  UNL     1       5.589  28.959  55.402  1.00  0.00     0.137 N 
HETATM    8  C7  UNL     1       4.279  29.467  55.465  1.00  0.00     0.258 C 
HETATM    9  C8  UNL     1       3.395  28.761  56.503  1.00  0.00     0.042 C 
HETATM   10  C9  UNL     1       3.488  29.559  57.753  1.00  0.00     0.044 C 
HETATM   11  C10 UNL     1       4.866  30.233  57.895  1.00  0.00     0.113 C 
HETATM   12  C17 UNL     1       5.910  29.169  57.857  1.00  0.00     0.081 C 
HETATM   13  C18 UNL     1       6.162  28.463  56.606  1.00  0.00     0.272 C 
HETATM   14  C19 UNL     1       5.046  31.324  56.895  1.00  0.00     0.185 C 
HETATM   15  C20 UNL     1       4.229  30.982  55.673  1.00  0.00     0.183 C 
ENDROOT
BRANCH  11  16
HETATM   16  O2  UNL     1       4.829  30.769  59.160  1.00  0.00    -0.239 OA
BRANCH  16  17
HETATM   17  S1  UNL     1       6.221  31.324  59.811  1.00  0.00     0.407 S 
HETATM   18  O3  UNL     1       7.477  30.709  59.326  1.00  0.00    -0.168 OA
HETATM   19  O4  UNL     1       6.136  31.305  61.333  1.00  0.00    -0.168 OA
BRANCH  17  20
HETATM   20  O5  UNL     1       6.314  33.000  59.411  1.00  0.00    -0.211 OA
BRANCH  20  21
HETATM   21  C11 UNL     1       7.155  33.869  60.035  1.00  0.00     0.093 A 
HETATM   22  C12 UNL     1       8.466  34.038  59.657  1.00  0.00     0.040 A 
HETATM   23  C13 UNL     1       9.300  34.940  60.323  1.00  0.00     0.028 A 
HETATM   24  C14 UNL     1       8.806  35.673  61.375  1.00  0.00     0.056 A 
HETATM   25 CL1  UNL     1       9.849  36.803  62.210  1.00  0.00    -0.083 Cl
HETATM   26  C15 UNL     1       7.497  35.518  61.768  1.00  0.00     0.058 A 
HETATM   27 CL2  UNL     1       6.913  36.477  63.117  1.00  0.00    -0.082 Cl
HETATM   28  C16 UNL     1       6.693  34.619  61.092  1.00  0.00     0.063 A 
ENDBRANCH  20  21
ENDBRANCH  17  20
ENDBRANCH  16  17
ENDBRANCH  11  16
BRANCH  14  29
HETATM   29  O6  UNL     1       4.579  32.570  57.346  1.00  0.00    -0.390 OA
ATOM     30  H6  UNL     1       5.196  33.016  57.915  1.00  0.00     0.210 HD
ENDBRANCH  14  29
BRANCH  15  31
HETATM   31  O7  UNL     1       2.938  31.439  55.710  1.00  0.00    -0.391 OA
ATOM     32  H7  UNL     1       2.865  32.227  56.237  1.00  0.00     0.210 HD
ENDBRANCH  15  31
BRANCH   1  33
HETATM   33  C2  UNL     1       8.174  27.169  57.197  1.00  0.00     0.156 C 
HETATM   34  C1  UNL     1       9.238  27.506  58.173  1.00  0.00     0.042 C 
BRANCH  33  35
HETATM   35  O1  UNL     1       8.670  26.178  56.343  1.00  0.00    -0.393 OA
ATOM     36  H1  UNL     1       8.272  26.302  55.489  1.00  0.00     0.210 HD
ENDBRANCH  33  35
ENDBRANCH   1  33
TORSDOF 8
ENDMDL
MODEL 2
REMARK VINA RESULT: -8.265632062      1.219      1.550
REMARK  8 active torsions:
REMARK  status: ('A' for Active; 'I' for Inactive)
REMARK    1  A    between atoms: C2_2  and  O1_3 
REMARK    2  A    between atoms: C2_2  and  C3_5 
REMARK    3  A    between atoms: C10_15  and  O2_16 
REMARK    4  A    between atoms: O2_16  and  S1_17 
REMARK    5  A    between atoms: S1_17  and  O5_20 
REMARK    6  A    between atoms: O5_20  and  C11_21 
REMARK    7  A    between atoms: C19_31  and  O6_32 
REMARK    8  A    between atoms: C20_34  and  O7_35 
ROOT
HETATM    1  C3  UNL     1       7.453  28.457  56.444  1.00  0.00     0.160 C 
HETATM    2  F1  UNL     1       8.097  29.640  56.861  1.00  0.00    -0.238 F 
HETATM    3  C4  UNL     1       7.894  28.247  55.037  1.00  0.00     0.053 C 
HETATM    4  C5  UNL     1       6.950  27.534  54.142  1.00  0.00     0.073 C 
HETATM    5  C6  UNL     1       5.523  27.764  54.498  1.00  0.00     0.406 C 
HETATM    6  F2  UNL     1       4.751  27.802  53.387  1.00  0.00    -0.216 F 
HETATM    7  N1  UNL     1       5.424  28.973  55.332  1.00  0.00     0.137 N 
HETATM    8  C7  UNL     1       4.105  29.462  55.281  1.00  0.00     0.258 C 
HETATM    9  C8  UNL     1       3.183  28.851  56.344  1.00  0.00     0.042 C 
HETATM   10  C9  UNL     1       3.206  29.774  57.509  1.00  0.00     0.044 C 
HETATM   11  C10 UNL     1       4.566  30.483  57.644  1.00  0.00     0.113 C 
HETATM   12  C17 UNL     1       5.625  29.438  57.764  1.00  0.00     0.081 C 
HETATM   13  C18 UNL     1       5.945  28.613  56.605  1.00  0.00     0.272 C 
HETATM   14  C19 UNL     1       4.780  31.468  56.546  1.00  0.00     0.185 C 
HETATM   15  C20 UNL     1       4.027  30.990  55.330  1.00  0.00     0.183 C 
ENDROOT
BRANCH  11  16
HETATM   16  O2  UNL     1       4.463  31.145  58.844  1.00  0.00    -0.239 OA
BRANCH  16  17
HETATM   17  S1  UNL     1       4.484  30.267  60.221  1.00  0.00     0.407 S 
HETATM   18  O3  UNL     1       4.250  28.811  60.090  1.00  0.00    -0.168 OA
HETATM   19  O4  UNL     1       3.561  30.894  61.261  1.00  0.00    -0.168 OA
BRANCH  17  20
HETATM   20  O5  UNL     1       6.064  30.447  60.892  1.00  0.00    -0.211 OA
BRANCH  20  21
HETATM   21  C11 UNL     1       6.858  31.525  60.649  1.00  0.00     0.093 A 
HETATM   22  C12 UNL     1       7.860  31.515  59.707  1.00  0.00     0.040 A 
HETATM   23  C13 UNL     1       8.656  32.643  59.487  1.00  0.00     0.028 A 
HETATM   24  C14 UNL     1       8.437  33.784  60.221  1.00  0.00     0.056 A 
HETATM   25 CL1  UNL     1       9.433  35.196  59.946  1.00  0.00    -0.083 Cl
HETATM   26  C15 UNL     1       7.439  33.813  61.167  1.00  0.00     0.058 A 
HETATM   27 CL2  UNL     1       7.199  35.293  62.079  1.00  0.00    -0.082 Cl
HETATM   28  C16 UNL     1       6.667  32.684  61.366  1.00  0.00     0.063 A 
ENDBRANCH  20  21
ENDBRANCH  17  20
ENDBRANCH  16  17
ENDBRANCH  11  16
BRANCH  14  29
HETATM   29  O6  UNL     1       4.277  32.746  56.844  1.00  0.00    -0.390 OA
ATOM     30  H6  UNL     1       4.953  33.413  56.887  1.00  0.00     0.210 HD
ENDBRANCH  14  29
BRANCH  15  31
HETATM   31  O7  UNL     1       2.730  31.426  55.260  1.00  0.00    -0.391 OA
ATOM     32  H7  UNL     1       2.528  32.024  55.970  1.00  0.00     0.210 HD
ENDBRANCH  15  31
BRANCH   1  33
HETATM   33  C2  UNL     1       7.942  27.421  57.418  1.00  0.00     0.156 C 
HETATM   34  C1  UNL     1       8.906  27.890  58.442  1.00  0.00     0.042 C 
BRANCH  33  35
HETATM   35  O1  UNL     1       8.548  26.387  56.698  1.00  0.00    -0.393 OA
ATOM     36  H1  UNL     1       7.970  25.633  56.725  1.00  0.00     0.210 HD
ENDBRANCH  33  35
ENDBRANCH   1  33
TORSDOF 8
ENDMDL
MODEL 3
REMARK VINA RESULT: -8.138908429      4.443      7.533
REMARK  8 active torsions:
REMARK  status: ('A' for Active; 'I' for Inactive)
REMARK    1  A    between atoms: C2_2  and  O1_3 
REMARK    2  A    between atoms: C2_2  and  C3_5 
REMARK    3  A    between atoms: C10_15  and  O2_16 
REMARK    4  A    between atoms: O2_16  and  S1_17 
REMARK    5  A    between atoms: S1_17  and  O5_20 
REMARK    6  A    between atoms: O5_20  and  C11_21 
REMARK    7  A    between atoms: C19_31  and  O6_32 
REMARK    8  A    between atoms: C20_34  and  O7_35 
ROOT
HETATM    1  C3  UNL     1       7.529  32.279  59.549  1.00  0.00     0.160 C 
HETATM    2  F1  UNL     1       8.771  31.643  59.357  1.00  0.00    -0.238 F 
HETATM    3  C4  UNL     1       7.363  32.375  61.026  1.00  0.00     0.053 C 
HETATM    4  C5  UNL     1       5.972  32.370  61.542  1.00  0.00     0.073 C 
HETATM    5  C6  UNL     1       5.037  31.585  60.691  1.00  0.00     0.406 C 
HETATM    6  F2  UNL     1       4.101  30.968  61.448  1.00  0.00    -0.216 F 
HETATM    7  N1  UNL     1       5.815  30.668  59.842  1.00  0.00     0.137 N 
HETATM    8  C7  UNL     1       4.978  29.626  59.401  1.00  0.00     0.258 C 
HETATM    9  C8  UNL     1       4.237  29.945  58.095  1.00  0.00     0.042 C 
HETATM   10  C9  UNL     1       5.067  29.399  56.991  1.00  0.00     0.044 C 
HETATM   11  C10 UNL     1       6.568  29.444  57.333  1.00  0.00     0.113 C 
HETATM   12  C17 UNL     1       6.934  30.859  57.632  1.00  0.00     0.081 C 
HETATM   13  C18 UNL     1       6.433  31.481  58.852  1.00  0.00     0.272 C 
HETATM   14  C19 UNL     1       6.913  28.467  58.405  1.00  0.00     0.185 C 
HETATM   15  C20 UNL     1       5.701  28.282  59.282  1.00  0.00     0.183 C 
ENDROOT
BRANCH  11  16
HETATM   16  O2  UNL     1       7.174  29.072  56.157  1.00  0.00    -0.239 OA
BRANCH  16  17
HETATM   17  S1  UNL     1       6.270  28.336  55.014  1.00  0.00     0.407 S 
HETATM   18  O3  UNL     1       5.763  29.187  53.913  1.00  0.00    -0.168 OA
HETATM   19  O4  UNL     1       5.150  27.530  55.663  1.00  0.00    -0.168 OA
BRANCH  17  20
HETATM   20  O5  UNL     1       7.281  27.145  54.281  1.00  0.00    -0.211 OA
BRANCH  20  21
HETATM   21  C11 UNL     1       8.569  27.386  53.911  1.00  0.00     0.093 A 
HETATM   22  C12 UNL     1       9.647  26.856  54.581  1.00  0.00     0.040 A 
HETATM   23  C13 UNL     1      10.956  27.127  54.171  1.00  0.00     0.028 A 
HETATM   24  C14 UNL     1      11.173  27.936  53.082  1.00  0.00     0.056 A 
HETATM   25 CL1  UNL     1      12.811  28.275  52.568  1.00  0.00    -0.083 Cl
HETATM   26  C15 UNL     1      10.108  28.474  52.399  1.00  0.00     0.058 A 
HETATM   27 CL2  UNL     1      10.438  29.501  51.015  1.00  0.00    -0.082 Cl
HETATM   28  C16 UNL     1       8.823  28.191  52.825  1.00  0.00     0.063 A 
ENDBRANCH  20  21
ENDBRANCH  17  20
ENDBRANCH  16  17
ENDBRANCH  11  16
BRANCH  14  29
HETATM   29  O6  UNL     1       7.240  27.194  57.908  1.00  0.00    -0.390 OA
ATOM     30  H6  UNL     1       6.510  26.762  57.480  1.00  0.00     0.210 HD
ENDBRANCH  14  29
BRANCH  15  31
HETATM   31  O7  UNL     1       4.849  27.292  58.868  1.00  0.00    -0.391 OA
ATOM     32  H7  UNL     1       5.209  26.812  58.132  1.00  0.00     0.210 HD
ENDBRANCH  15  31
BRANCH   1  33
HETATM   33  C2  UNL     1       7.690  33.600  58.847  1.00  0.00     0.156 C 
HETATM   34  C1  UNL     1       8.508  34.618  59.550  1.00  0.00     0.042 C 
BRANCH  33  35
HETATM   35  O1  UNL     1       6.420  34.143  58.627  1.00  0.00    -0.393 OA
ATOM     36  H1  UNL     1       6.509  35.089  58.599  1.00  0.00     0.210 HD
ENDBRANCH  33  35
ENDBRANCH   1  33
TORSDOF 8
ENDMDL
MODEL 4
REMARK VINA RESULT: -7.831128423      4.452      7.198
REMARK  8 active torsions:
REMARK  status: ('A' for Active; 'I' for Inactive)
REMARK    1  A    between atoms: C2_2  and  O1_3 
REMARK    2  A    between atoms: C2_2  and  C3_5 
REMARK    3  A    between atoms: C10_15  and  O2_16 
REMARK    4  A    between atoms: O2_16  and  S1_17 
REMARK    5  A    between atoms: S1_17  and  O5_20 
REMARK    6  A    between atoms: O5_20  and  C11_21 
REMARK    7  A    between atoms: C19_31  and  O6_32 
REMARK    8  A    between atoms: C20_34  and  O7_35 
ROOT
HETATM    1  C3  UNL     1       6.758  31.695  59.388  1.00  0.00     0.160 C 
HETATM    2  F1  UNL     1       7.339  30.443  59.673  1.00  0.00    -0.238 F 
HETATM    3  C4  UNL     1       6.199  32.171  60.685  1.00  0.00     0.053 C 
HETATM    4  C5  UNL     1       5.016  33.062  60.613  1.00  0.00     0.073 C 
HETATM    5  C6  UNL     1       4.151  32.791  59.432  1.00  0.00     0.406 C 
HETATM    6  F2  UNL     1       2.848  32.986  59.736  1.00  0.00    -0.216 F 
HETATM    7  N1  UNL     1       4.447  31.443  58.919  1.00  0.00     0.137 N 
HETATM    8  C7  UNL     1       3.362  30.996  58.143  1.00  0.00     0.258 C 
HETATM    9  C8  UNL     1       3.456  31.401  56.666  1.00  0.00     0.042 C 
HETATM   10  C9  UNL     1       4.099  30.267  55.954  1.00  0.00     0.044 C 
HETATM   11  C10 UNL     1       5.098  29.522  56.859  1.00  0.00     0.113 C 
HETATM   12  C17 UNL     1       6.115  30.504  57.335  1.00  0.00     0.081 C 
HETATM   13  C18 UNL     1       5.717  31.536  58.285  1.00  0.00     0.272 C 
HETATM   14  C19 UNL     1       4.400  28.769  57.939  1.00  0.00     0.185 C 
HETATM   15  C20 UNL     1       3.116  29.490  58.263  1.00  0.00     0.183 C 
ENDROOT
BRANCH  11  16
HETATM   16  O2  UNL     1       5.708  28.638  56.000  1.00  0.00    -0.239 OA
BRANCH  16  17
HETATM   17  S1  UNL     1       7.265  28.234  56.278  1.00  0.00     0.407 S 
HETATM   18  O3  UNL     1       7.544  27.444  57.499  1.00  0.00    -0.168 OA
HETATM   19  O4  UNL     1       8.156  29.469  56.191  1.00  0.00    -0.168 OA
BRANCH  17  20
HETATM   20  O5  UNL     1       7.762  27.257  54.944  1.00  0.00    -0.211 OA
BRANCH  20  21
HETATM   21  C11 UNL     1       8.921  27.463  54.262  1.00  0.00     0.093 A 
HETATM   22  C12 UNL     1      10.128  26.942  54.668  1.00  0.00     0.040 A 
HETATM   23  C13 UNL     1      11.298  27.176  53.940  1.00  0.00     0.028 A 
HETATM   24  C14 UNL     1      11.247  27.939  52.798  1.00  0.00     0.056 A 
HETATM   25 CL1  UNL     1      12.711  28.232  51.887  1.00  0.00    -0.083 Cl
HETATM   26  C15 UNL     1      10.050  28.468  52.376  1.00  0.00     0.058 A 
HETATM   27 CL2  UNL     1      10.037  29.435  50.911  1.00  0.00    -0.082 Cl
HETATM   28  C16 UNL     1       8.907  28.222  53.114  1.00  0.00     0.063 A 
ENDBRANCH  20  21
ENDBRANCH  17  20
ENDBRANCH  16  17
ENDBRANCH  11  16
BRANCH  14  29
HETATM   29  O6  UNL     1       4.036  27.466  57.559  1.00  0.00    -0.390 OA
ATOM     30  H6  UNL     1       3.346  27.098  58.098  1.00  0.00     0.210 HD
ENDBRANCH  14  29
BRANCH  15  31
HETATM   31  O7  UNL     1       2.042  29.099  57.508  1.00  0.00    -0.391 OA
ATOM     32  H7  UNL     1       1.235  29.134  58.009  1.00  0.00     0.210 HD
ENDBRANCH  15  31
BRANCH   1  33
HETATM   33  C2  UNL     1       7.905  32.511  58.860  1.00  0.00     0.156 C 
HETATM   34  C1  UNL     1       8.893  32.975  59.864  1.00  0.00     0.042 C 
BRANCH  33  35
HETATM   35  O1  UNL     1       7.387  33.638  58.213  1.00  0.00    -0.393 OA
ATOM     36  H1  UNL     1       6.935  34.164  58.861  1.00  0.00     0.210 HD
ENDBRANCH  33  35
ENDBRANCH   1  33
TORSDOF 8
ENDMDL
MODEL 5
REMARK VINA RESULT: -7.782782936      4.481      6.790
REMARK  8 active torsions:
REMARK  status: ('A' for Active; 'I' for Inactive)
REMARK    1  A    between atoms: C2_2  and  O1_3 
REMARK    2  A    between atoms: C2_2  and  C3_5 
REMARK    3  A    between atoms: C10_15  and  O2_16 
REMARK    4  A    between atoms: O2_16  and  S1_17 
REMARK    5  A    between atoms: S1_17  and  O5_20 
REMARK    6  A    between atoms: O5_20  and  C11_21 
REMARK    7  A    between atoms: C19_31  and  O6_32 
REMARK    8  A    between atoms: C20_34  and  O7_35 
ROOT
HETATM    1  C3  UNL     1       4.117  28.643  54.822  1.00  0.00     0.160 C 
HETATM    2  F1  UNL     1       5.157  29.112  53.995  1.00  0.00    -0.238 F 
HETATM    3  C4  UNL     1       2.940  29.495  54.492  1.00  0.00     0.053 C 
HETATM    4  C5  UNL     1       1.950  29.712  55.574  1.00  0.00     0.073 C 
HETATM    5  C6  UNL     1       2.558  29.695  56.933  1.00  0.00     0.406 C 
HETATM    6  F2  UNL     1       1.932  30.572  57.750  1.00  0.00    -0.216 F 
HETATM    7  N1  UNL     1       4.007  29.924  56.814  1.00  0.00     0.137 N 
HETATM    8  C7  UNL     1       4.507  30.373  58.050  1.00  0.00     0.258 C 
HETATM    9  C8  UNL     1       4.928  29.237  58.992  1.00  0.00     0.042 C 
HETATM   10  C9  UNL     1       6.382  29.022  58.775  1.00  0.00     0.044 C 
HETATM   11  C10 UNL     1       6.791  29.330  57.322  1.00  0.00     0.113 C 
HETATM   12  C17 UNL     1       5.979  28.465  56.418  1.00  0.00     0.081 C 
HETATM   13  C18 UNL     1       4.550  28.721  56.281  1.00  0.00     0.272 C 
HETATM   14  C19 UNL     1       6.712  30.789  57.030  1.00  0.00     0.185 C 
HETATM   15  C20 UNL     1       5.642  31.389  57.907  1.00  0.00     0.183 C 
ENDROOT
BRANCH  11  16
HETATM   16  O2  UNL     1       8.101  28.918  57.265  1.00  0.00    -0.239 OA
BRANCH  16  17
HETATM   17  S1  UNL     1       8.465  27.409  57.773  1.00  0.00     0.407 S 
HETATM   18  O3  UNL     1       7.403  26.671  58.493  1.00  0.00    -0.168 OA
HETATM   19  O4  UNL     1       9.774  27.417  58.556  1.00  0.00    -0.168 OA
BRANCH  17  20
HETATM   20  O5  UNL     1       8.823  26.489  56.357  1.00  0.00    -0.211 OA
BRANCH  20  21
HETATM   21  C11 UNL     1       9.049  27.053  55.140  1.00  0.00     0.093 A 
HETATM   22  C12 UNL     1       8.034  27.492  54.322  1.00  0.00     0.040 A 
HETATM   23  C13 UNL     1       8.307  28.067  53.077  1.00  0.00     0.028 A 
HETATM   24  C14 UNL     1       9.609  28.197  52.659  1.00  0.00     0.056 A 
HETATM   25 CL1  UNL     1       9.952  28.915  51.101  1.00  0.00    -0.083 Cl
HETATM   26  C15 UNL     1      10.638  27.763  53.463  1.00  0.00     0.058 A 
HETATM   27 CL2  UNL     1      12.284  27.951  52.884  1.00  0.00    -0.082 Cl
HETATM   28  C16 UNL     1      10.341  27.199  54.690  1.00  0.00     0.063 A 
ENDBRANCH  20  21
ENDBRANCH  17  20
ENDBRANCH  16  17
ENDBRANCH  11  16
BRANCH  14  29
HETATM   29  O6  UNL     1       7.900  31.478  57.329  1.00  0.00    -0.390 OA
ATOM     30  H6  UNL     1       8.168  32.077  56.642  1.00  0.00     0.210 HD
ENDBRANCH  14  29
BRANCH  15  31
HETATM   31  O7  UNL     1       6.088  31.814  59.131  1.00  0.00    -0.391 OA
ATOM     32  H7  UNL     1       6.562  31.127  59.585  1.00  0.00     0.210 HD
ENDBRANCH  15  31
BRANCH   1  33
HETATM   33  C2  UNL     1       3.975  27.197  54.433  1.00  0.00     0.156 C 
HETATM   34  C1  UNL     1       3.283  26.930  53.149  1.00  0.00     0.042 C 
BRANCH  33  35
HETATM   35  O1  UNL     1       3.276  26.533  55.446  1.00  0.00    -0.393 OA
ATOM     36  H1  UNL     1       3.770  25.756  55.682  1.00  0.00     0.210 HD
ENDBRANCH  33  35
ENDBRANCH   1  33
TORSDOF 8
ENDMDL
