MODEL 1
REMARK VINA RESULT: -7.255339419      0.000      0.000
REMARK  8 active torsions:
REMARK  status: ('A' for Active; 'I' for Inactive)
REMARK    1  A    between atoms: O1_2  and  C2_3 
REMARK    2  A    between atoms: C2_3  and  C3_5 
REMARK    3  A    between atoms: C3_5  and  O3_6 
REMARK    4  A    between atoms: C3_5  and  C5_8 
REMARK    5  A    between atoms: C5_8  and  N2_12 
REMARK    6  A    between atoms: N2_12  and  N3_14 
REMARK    7  A    between atoms: N3_14  and  C6_16 
REMARK    8  A    between atoms: C7_19  and  N5_20 
ROOT
HETATM    1  C6  UNL     1      37.601   5.479  18.790  1.00  0.00     0.696 A 
HETATM    2  N4  UNL     1      38.109   4.486  19.387  1.00  0.00    -0.198 N 
ATOM      3  H4  UNL     1      38.850   3.999  18.883  1.00  0.00     0.180 HD
HETATM    4  C7  UNL     1      37.787   3.955  20.669  1.00  0.00     0.258 A 
HETATM    5  C11 UNL     1      36.696   4.683  21.327  1.00  0.00     0.123 A 
HETATM    6  N8  UNL     1      36.058   4.532  22.521  1.00  0.00    -0.238 N 
ATOM      7  H8  UNL     1      36.256   3.813  23.217  1.00  0.00     0.196 HD
HETATM    8  O4  UNL     1      35.162   5.457  22.622  1.00  0.00    -0.155 OA
HETATM    9  N9  UNL     1      35.153   6.220  21.578  1.00  0.00    -0.223 N 
ATOM     10  H9  UNL     1      34.539   7.018  21.419  1.00  0.00     0.198 HD
HETATM   11  C12 UNL     1      36.109   5.762  20.736  1.00  0.00     0.171 A 
HETATM   12  N10 UNL     1      36.552   6.184  19.449  1.00  0.00    -0.172 N 
ATOM     13  H10 UNL     1      36.119   6.991  19.000  1.00  0.00     0.186 HD
ENDROOT
BRANCH   1  14
HETATM   14  N3  UNL     1      38.017   5.913  17.499  1.00  0.00    -0.131 N 
ATOM     15  H3  UNL     1      38.397   6.852  17.371  1.00  0.00     0.205 HD
BRANCH  14  16
HETATM   16  N2  UNL     1      37.903   5.062  16.422  1.00  0.00    -0.272 N 
ATOM     17  H2  UNL     1      38.383   4.164  16.479  1.00  0.00     0.189 HD
BRANCH  16  18
HETATM   18  C5  UNL     1      37.175   5.338  15.249  1.00  0.00     0.129 C 
HETATM   19  N1  UNL     1      36.414   6.359  15.204  1.00  0.00    -0.385 N 
ATOM     20  H12 UNL     1      35.887   6.559  14.354  1.00  0.00     0.157 HD
ATOM     21  H11 UNL     1      36.334   6.975  16.014  1.00  0.00     0.157 HD
BRANCH  18  22
HETATM   22  C3  UNL     1      37.290   4.452  14.083  1.00  0.00     0.288 C 
BRANCH  22  23
HETATM   23  C2  UNL     1      35.897   3.970  13.770  1.00  0.00     0.295 C 
HETATM   24  O2  UNL     1      34.985   4.744  13.406  1.00  0.00    -0.262 OA
BRANCH  23  25
HETATM   25  O1  UNL     1      35.587   2.622  13.881  1.00  0.00    -0.324 OA
HETATM   26  C1  UNL     1      36.460   1.657  13.359  1.00  0.00     0.213 C 
ENDBRANCH  23  25
ENDBRANCH  22  23
BRANCH  22  27
HETATM   27  O3  UNL     1      37.766   5.056  12.955  1.00  0.00    -0.373 OA
HETATM   28  C4  UNL     1      38.923   4.474  12.450  1.00  0.00     0.203 C 
ENDBRANCH  22  27
ENDBRANCH  18  22
ENDBRANCH  16  18
ENDBRANCH  14  16
ENDBRANCH   1  14
BRANCH   4  29
HETATM   29  N5  UNL     1      37.597   2.543  20.622  1.00  0.00    -0.335 N 
HETATM   30  C8  UNL     1      38.457   1.616  20.495  1.00  0.00     0.173 C 
HETATM   31  N6  UNL     1      38.231   0.207  20.452  1.00  0.00    -0.361 N 
HETATM   32  N7  UNL     1      39.856   1.790  20.365  1.00  0.00    -0.361 N 
HETATM   33  C9  UNL     1      39.319  -0.362  19.692  1.00  0.00     0.142 C 
ATOM     34  H6  UNL     1      37.453  -0.300  20.875  1.00  0.00     0.162 HD
HETATM   35  C10 UNL     1      40.385   0.678  19.586  1.00  0.00     0.142 C 
ATOM     36  H7  UNL     1      40.401   2.562  20.750  1.00  0.00     0.162 HD
ATOM     37  H5  UNL     1      36.629   2.230  20.703  1.00  0.00     0.165 HD
ENDBRANCH   4  29
TORSDOF 8
ENDMDL
MODEL 2
REMARK VINA RESULT: -6.939601737      5.325      9.137
REMARK  8 active torsions:
REMARK  status: ('A' for Active; 'I' for Inactive)
REMARK    1  A    between atoms: O1_2  and  C2_3 
REMARK    2  A    between atoms: C2_3  and  C3_5 
REMARK    3  A    between atoms: C3_5  and  O3_6 
REMARK    4  A    between atoms: C3_5  and  C5_8 
REMARK    5  A    between atoms: C5_8  and  N2_12 
REMARK    6  A    between atoms: N2_12  and  N3_14 
REMARK    7  A    between atoms: N3_14  and  C6_16 
REMARK    8  A    between atoms: C7_19  and  N5_20 
ROOT
HETATM    1  C6  UNL     1      37.078  -2.747  14.936  1.00  0.00     0.696 A 
HETATM    2  N4  UNL     1      37.384  -1.613  14.463  1.00  0.00    -0.198 N 
ATOM      3  H4  UNL     1      37.975  -1.032  15.057  1.00  0.00     0.180 HD
HETATM    4  C7  UNL     1      37.013  -1.038  13.214  1.00  0.00     0.258 A 
HETATM    5  C11 UNL     1      36.141  -1.913  12.422  1.00  0.00     0.123 A 
HETATM    6  N8  UNL     1      35.543  -1.784  11.205  1.00  0.00    -0.238 N 
ATOM      7  H8  UNL     1      35.610  -0.973  10.590  1.00  0.00     0.196 HD
HETATM    8  O4  UNL     1      34.878  -2.865  10.963  1.00  0.00    -0.155 OA
HETATM    9  N9  UNL     1      34.987  -3.712  11.933  1.00  0.00    -0.223 N 
ATOM     10  H9  UNL     1      34.557  -4.635  11.980  1.00  0.00     0.198 HD
HETATM   11  C12 UNL     1      35.778  -3.147  12.875  1.00  0.00     0.171 A 
HETATM   12  N10 UNL     1      36.242  -3.590  14.147  1.00  0.00    -0.172 N 
ATOM     13  H10 UNL     1      35.976  -4.512  14.494  1.00  0.00     0.186 HD
ENDROOT
BRANCH   1  14
HETATM   14  N3  UNL     1      37.517  -3.208  16.209  1.00  0.00    -0.131 N 
ATOM     15  H3  UNL     1      37.844  -4.168  16.321  1.00  0.00     0.205 HD
BRANCH  14  16
HETATM   16  N2  UNL     1      37.499  -2.354  17.289  1.00  0.00    -0.272 N 
ATOM     17  H2  UNL     1      36.589  -2.057  17.640  1.00  0.00     0.189 HD
BRANCH  16  18
HETATM   18  C5  UNL     1      38.643  -1.858  17.945  1.00  0.00     0.129 C 
HETATM   19  N1  UNL     1      38.568  -1.512  19.169  1.00  0.00    -0.385 N 
ATOM     20  H12 UNL     1      39.397  -1.153  19.644  1.00  0.00     0.157 HD
ATOM     21  H11 UNL     1      37.684  -1.594  19.672  1.00  0.00     0.157 HD
BRANCH  18  22
HETATM   22  C3  UNL     1      39.916  -1.740  17.221  1.00  0.00     0.288 C 
BRANCH  22  23
HETATM   23  C2  UNL     1      39.962  -0.343  16.659  1.00  0.00     0.295 C 
HETATM   24  O2  UNL     1      40.093   0.667  17.382  1.00  0.00    -0.262 OA
BRANCH  23  25
HETATM   25  O1  UNL     1      39.858  -0.143  15.289  1.00  0.00    -0.324 OA
HETATM   26  C1  UNL     1      40.856  -0.628  14.432  1.00  0.00     0.213 C 
ENDBRANCH  23  25
ENDBRANCH  22  23
BRANCH  22  27
HETATM   27  O3  UNL     1      41.028  -1.895  17.999  1.00  0.00    -0.373 OA
HETATM   28  C4  UNL     1      42.029  -2.655  17.405  1.00  0.00     0.203 C 
ENDBRANCH  22  27
ENDBRANCH  18  22
ENDBRANCH  16  18
ENDBRANCH  14  16
ENDBRANCH   1  14
BRANCH   4  29
HETATM   29  N5  UNL     1      36.516   0.289  13.370  1.00  0.00    -0.335 N 
HETATM   30  C8  UNL     1      37.119   1.399  13.235  1.00  0.00     0.173 C 
HETATM   31  N6  UNL     1      36.588   2.714  13.401  1.00  0.00    -0.361 N 
HETATM   32  N7  UNL     1      38.480   1.570  12.884  1.00  0.00    -0.361 N 
HETATM   33  C9  UNL     1      37.696   3.562  13.773  1.00  0.00     0.142 C 
ATOM     34  H6  UNL     1      35.616   2.999  13.279  1.00  0.00     0.162 HD
HETATM   35  C10 UNL     1      38.954   2.813  13.481  1.00  0.00     0.142 C 
ATOM     36  H7  UNL     1      39.035   0.933  12.312  1.00  0.00     0.162 HD
ATOM     37  H5  UNL     1      35.531   0.358  13.628  1.00  0.00     0.165 HD
ENDBRANCH   4  29
TORSDOF 8
ENDMDL
MODEL 3
REMARK VINA RESULT: -6.923201777      5.566      9.375
REMARK  8 active torsions:
REMARK  status: ('A' for Active; 'I' for Inactive)
REMARK    1  A    between atoms: O1_2  and  C2_3 
REMARK    2  A    between atoms: C2_3  and  C3_5 
REMARK    3  A    between atoms: C3_5  and  O3_6 
REMARK    4  A    between atoms: C3_5  and  C5_8 
REMARK    5  A    between atoms: C5_8  and  N2_12 
REMARK    6  A    between atoms: N2_12  and  N3_14 
REMARK    7  A    between atoms: N3_14  and  C6_16 
REMARK    8  A    between atoms: C7_19  and  N5_20 
ROOT
HETATM    1  C6  UNL     1      37.119  -2.701  14.920  1.00  0.00     0.696 A 
HETATM    2  N4  UNL     1      37.382  -1.561  14.437  1.00  0.00    -0.198 N 
ATOM      3  H4  UNL     1      37.974  -0.964  15.015  1.00  0.00     0.180 HD
HETATM    4  C7  UNL     1      36.965  -1.000  13.197  1.00  0.00     0.258 A 
HETATM    5  C11 UNL     1      36.095  -1.900  12.430  1.00  0.00     0.123 A 
HETATM    6  N8  UNL     1      35.463  -1.790  11.228  1.00  0.00    -0.238 N 
ATOM      7  H8  UNL     1      35.493  -0.979  10.610  1.00  0.00     0.196 HD
HETATM    8  O4  UNL     1      34.820  -2.888  11.006  1.00  0.00    -0.155 OA
HETATM    9  N9  UNL     1      34.976  -3.729  11.975  1.00  0.00    -0.223 N 
ATOM     10  H9  UNL     1      34.571  -4.663  12.035  1.00  0.00     0.198 HD
HETATM   11  C12 UNL     1      35.777  -3.141  12.895  1.00  0.00     0.171 A 
HETATM   12  N10 UNL     1      36.285  -3.569  14.156  1.00  0.00    -0.172 N 
ATOM     13  H10 UNL     1      36.051  -4.496  14.511  1.00  0.00     0.186 HD
ENDROOT
BRANCH   1  14
HETATM   14  N3  UNL     1      37.603  -3.148  16.183  1.00  0.00    -0.131 N 
ATOM     15  H3  UNL     1      38.018  -4.076  16.273  1.00  0.00     0.205 HD
BRANCH  14  16
HETATM   16  N2  UNL     1      37.509  -2.323  17.281  1.00  0.00    -0.272 N 
ATOM     17  H2  UNL     1      36.576  -2.033  17.575  1.00  0.00     0.189 HD
BRANCH  16  18
HETATM   18  C5  UNL     1      38.604  -1.848  18.030  1.00  0.00     0.129 C 
HETATM   19  N1  UNL     1      38.512  -1.766  19.298  1.00  0.00    -0.385 N 
ATOM     20  H12 UNL     1      39.306  -1.422  19.840  1.00  0.00     0.157 HD
ATOM     21  H11 UNL     1      37.650  -2.042  19.769  1.00  0.00     0.157 HD
BRANCH  18  22
HETATM   22  C3  UNL     1      39.844  -1.450  17.352  1.00  0.00     0.288 C 
BRANCH  22  23
HETATM   23  C2  UNL     1      40.674  -2.699  17.206  1.00  0.00     0.295 C 
HETATM   24  O2  UNL     1      41.781  -2.706  16.626  1.00  0.00    -0.262 OA
BRANCH  23  25
HETATM   25  O1  UNL     1      40.216  -3.901  17.728  1.00  0.00    -0.324 OA
HETATM   26  C1  UNL     1      40.962  -4.568  18.711  1.00  0.00     0.213 C 
ENDBRANCH  23  25
ENDBRANCH  22  23
BRANCH  22  27
HETATM   27  O3  UNL     1      39.668  -0.940  16.097  1.00  0.00    -0.373 OA
HETATM   28  C4  UNL     1      40.050   0.391  15.972  1.00  0.00     0.203 C 
ENDBRANCH  22  27
ENDBRANCH  18  22
ENDBRANCH  16  18
ENDBRANCH  14  16
ENDBRANCH   1  14
BRANCH   4  29
HETATM   29  N5  UNL     1      36.438   0.314  13.363  1.00  0.00    -0.335 N 
HETATM   30  C8  UNL     1      37.010   1.438  13.217  1.00  0.00     0.173 C 
HETATM   31  N6  UNL     1      36.450   2.740  13.393  1.00  0.00    -0.361 N 
HETATM   32  N7  UNL     1      38.360   1.644  12.840  1.00  0.00    -0.361 N 
HETATM   33  C9  UNL     1      37.543   3.615  13.744  1.00  0.00     0.142 C 
ATOM     34  H6  UNL     1      35.469   3.001  13.290  1.00  0.00     0.162 HD
HETATM   35  C10 UNL     1      38.813   2.898  13.427  1.00  0.00     0.142 C 
ATOM     36  H7  UNL     1      38.919   1.020  12.257  1.00  0.00     0.162 HD
ATOM     37  H5  UNL     1      35.457   0.358  13.641  1.00  0.00     0.165 HD
ENDBRANCH   4  29
TORSDOF 8
ENDMDL
MODEL 4
REMARK VINA RESULT: -6.902684657      5.179      9.313
REMARK  8 active torsions:
REMARK  status: ('A' for Active; 'I' for Inactive)
REMARK    1  A    between atoms: O1_2  and  C2_3 
REMARK    2  A    between atoms: C2_3  and  C3_5 
REMARK    3  A    between atoms: C3_5  and  O3_6 
REMARK    4  A    between atoms: C3_5  and  C5_8 
REMARK    5  A    between atoms: C5_8  and  N2_12 
REMARK    6  A    between atoms: N2_12  and  N3_14 
REMARK    7  A    between atoms: N3_14  and  C6_16 
REMARK    8  A    between atoms: C7_19  and  N5_20 
ROOT
HETATM    1  C6  UNL     1      37.061  -2.729  14.978  1.00  0.00     0.696 A 
HETATM    2  N4  UNL     1      37.374  -1.589  14.526  1.00  0.00    -0.198 N 
ATOM      3  H4  UNL     1      37.956  -1.017  15.137  1.00  0.00     0.180 HD
HETATM    4  C7  UNL     1      37.023  -0.998  13.279  1.00  0.00     0.258 A 
HETATM    5  C11 UNL     1      36.162  -1.862  12.462  1.00  0.00     0.123 A 
HETATM    6  N8  UNL     1      35.584  -1.716  11.238  1.00  0.00    -0.238 N 
ATOM      7  H8  UNL     1      35.660  -0.897  10.635  1.00  0.00     0.196 HD
HETATM    8  O4  UNL     1      34.922  -2.793  10.971  1.00  0.00    -0.155 OA
HETATM    9  N9  UNL     1      35.017  -3.653  11.931  1.00  0.00    -0.223 N 
ATOM     10  H9  UNL     1      34.586  -4.577  11.959  1.00  0.00     0.198 HD
HETATM   11  C12 UNL     1      35.793  -3.101  12.893  1.00  0.00     0.171 A 
HETATM   12  N10 UNL     1      36.237  -3.562  14.166  1.00  0.00    -0.172 N 
ATOM     13  H10 UNL     1      35.966  -4.488  14.496  1.00  0.00     0.186 HD
ENDROOT
BRANCH   1  14
HETATM   14  N3  UNL     1      37.481  -3.208  16.252  1.00  0.00    -0.131 N 
ATOM     15  H3  UNL     1      37.650  -4.205  16.394  1.00  0.00     0.205 HD
BRANCH  14  16
HETATM   16  N2  UNL     1      37.658  -2.322  17.291  1.00  0.00    -0.272 N 
ATOM     17  H2  UNL     1      36.845  -1.789  17.599  1.00  0.00     0.189 HD
BRANCH  16  18
HETATM   18  C5  UNL     1      38.876  -2.096  17.960  1.00  0.00     0.129 C 
HETATM   19  N1  UNL     1      39.626  -3.083  18.256  1.00  0.00    -0.385 N 
ATOM     20  H12 UNL     1      40.509  -2.919  18.740  1.00  0.00     0.157 HD
ATOM     21  H11 UNL     1      39.345  -4.033  18.009  1.00  0.00     0.157 HD
BRANCH  18  22
HETATM   22  C3  UNL     1      39.281  -0.729  18.314  1.00  0.00     0.288 C 
BRANCH  22  23
HETATM   23  C2  UNL     1      39.049  -0.584  19.796  1.00  0.00     0.295 C 
HETATM   24  O2  UNL     1      39.553  -1.362  20.634  1.00  0.00    -0.262 OA
BRANCH  23  25
HETATM   25  O1  UNL     1      38.249   0.445  20.275  1.00  0.00    -0.324 OA
HETATM   26  C1  UNL     1      38.723   1.765  20.263  1.00  0.00     0.213 C 
ENDBRANCH  23  25
ENDBRANCH  22  23
BRANCH  22  27
HETATM   27  O3  UNL     1      40.599  -0.450  18.088  1.00  0.00    -0.373 OA
HETATM   28  C4  UNL     1      40.807   0.672  17.293  1.00  0.00     0.203 C 
ENDBRANCH  22  27
ENDBRANCH  18  22
ENDBRANCH  16  18
ENDBRANCH  14  16
ENDBRANCH   1  14
BRANCH   4  29
HETATM   29  N5  UNL     1      36.523   0.327  13.446  1.00  0.00    -0.335 N 
HETATM   30  C8  UNL     1      37.094   1.440  13.225  1.00  0.00     0.173 C 
HETATM   31  N6  UNL     1      36.562   2.753  13.404  1.00  0.00    -0.361 N 
HETATM   32  N7  UNL     1      38.414   1.617  12.743  1.00  0.00    -0.361 N 
HETATM   33  C9  UNL     1      37.688   3.624  13.648  1.00  0.00     0.142 C 
ATOM     34  H6  UNL     1      35.579   3.023  13.367  1.00  0.00     0.162 HD
HETATM   35  C10 UNL     1      38.923   2.882  13.258  1.00  0.00     0.142 C 
ATOM     36  H7  UNL     1      38.921   0.971  12.138  1.00  0.00     0.162 HD
ATOM     37  H5  UNL     1      35.566   0.392  13.794  1.00  0.00     0.165 HD
ENDBRANCH   4  29
TORSDOF 8
ENDMDL
MODEL 5
REMARK VINA RESULT: -6.748500557      5.600      9.626
REMARK  8 active torsions:
REMARK  status: ('A' for Active; 'I' for Inactive)
REMARK    1  A    between atoms: O1_2  and  C2_3 
REMARK    2  A    between atoms: C2_3  and  C3_5 
REMARK    3  A    between atoms: C3_5  and  O3_6 
REMARK    4  A    between atoms: C3_5  and  C5_8 
REMARK    5  A    between atoms: C5_8  and  N2_12 
REMARK    6  A    between atoms: N2_12  and  N3_14 
REMARK    7  A    between atoms: N3_14  and  C6_16 
REMARK    8  A    between atoms: C7_19  and  N5_20 
ROOT
HETATM    1  C6  UNL     1      37.101  -2.711  14.934  1.00  0.00     0.696 A 
HETATM    2  N4  UNL     1      37.403  -1.576  14.463  1.00  0.00    -0.198 N 
ATOM      3  H4  UNL     1      37.997  -0.996  15.055  1.00  0.00     0.180 HD
HETATM    4  C7  UNL     1      37.025  -0.998  13.217  1.00  0.00     0.258 A 
HETATM    5  C11 UNL     1      36.149  -1.873  12.428  1.00  0.00     0.123 A 
HETATM    6  N8  UNL     1      35.545  -1.741  11.214  1.00  0.00    -0.238 N 
ATOM      7  H8  UNL     1      35.608  -0.928  10.601  1.00  0.00     0.196 HD
HETATM    8  O4  UNL     1      34.879  -2.821  10.973  1.00  0.00    -0.155 OA
HETATM    9  N9  UNL     1      34.994  -3.671  11.941  1.00  0.00    -0.223 N 
ATOM     10  H9  UNL     1      34.565  -4.594  11.988  1.00  0.00     0.198 HD
HETATM   11  C12 UNL     1      35.790  -3.107  12.880  1.00  0.00     0.171 A 
HETATM   12  N10 UNL     1      36.261  -3.554  14.149  1.00  0.00    -0.172 N 
ATOM     13  H10 UNL     1      35.998  -4.476  14.495  1.00  0.00     0.186 HD
ENDROOT
BRANCH   1  14
HETATM   14  N3  UNL     1      37.548  -3.175  16.204  1.00  0.00    -0.131 N 
ATOM     15  H3  UNL     1      37.901  -4.128  16.306  1.00  0.00     0.205 HD
BRANCH  14  16
HETATM   16  N2  UNL     1      37.502  -2.335  17.294  1.00  0.00    -0.272 N 
ATOM     17  H2  UNL     1      36.595  -1.946  17.552  1.00  0.00     0.189 HD
BRANCH  16  18
HETATM   18  C5  UNL     1      38.613  -1.971  18.079  1.00  0.00     0.129 C 
HETATM   19  N1  UNL     1      38.431  -1.500  19.249  1.00  0.00    -0.385 N 
ATOM     20  H12 UNL     1      39.236  -1.236  19.818  1.00  0.00     0.157 HD
ATOM     21  H11 UNL     1      37.485  -1.387  19.616  1.00  0.00     0.157 HD
BRANCH  18  22
HETATM   22  C3  UNL     1      39.974  -2.133  17.553  1.00  0.00     0.288 C 
BRANCH  22  23
HETATM   23  C2  UNL     1      40.913  -1.894  18.707  1.00  0.00     0.295 C 
HETATM   24  O2  UNL     1      41.505  -0.806  18.876  1.00  0.00    -0.262 OA
BRANCH  23  25
HETATM   25  O1  UNL     1      41.147  -2.902  19.632  1.00  0.00    -0.324 OA
HETATM   26  C1  UNL     1      41.406  -2.577  20.971  1.00  0.00     0.213 C 
ENDBRANCH  23  25
ENDBRANCH  22  23
BRANCH  22  27
HETATM   27  O3  UNL     1      40.251  -3.379  17.066  1.00  0.00    -0.373 OA
HETATM   28  C4  UNL     1      41.161  -3.384  16.015  1.00  0.00     0.203 C 
ENDBRANCH  22  27
ENDBRANCH  18  22
ENDBRANCH  16  18
ENDBRANCH  14  16
ENDBRANCH   1  14
BRANCH   4  29
HETATM   29  N5  UNL     1      36.527   0.328  13.380  1.00  0.00    -0.335 N 
HETATM   30  C8  UNL     1      37.118   1.439  13.204  1.00  0.00     0.173 C 
HETATM   31  N6  UNL     1      36.587   2.754  13.377  1.00  0.00    -0.361 N 
HETATM   32  N7  UNL     1      38.461   1.613  12.791  1.00  0.00    -0.361 N 
HETATM   33  C9  UNL     1      37.706   3.612  13.689  1.00  0.00     0.142 C 
ATOM     34  H6  UNL     1      35.609   3.032  13.296  1.00  0.00     0.162 HD
HETATM   35  C10 UNL     1      38.953   2.865  13.350  1.00  0.00     0.142 C 
ATOM     36  H7  UNL     1      38.993   0.972  12.202  1.00  0.00     0.162 HD
ATOM     37  H5  UNL     1      35.555   0.395  13.681  1.00  0.00     0.165 HD
ENDBRANCH   4  29
TORSDOF 8
ENDMDL
