MODEL 1
REMARK VINA RESULT: -6.725444493      0.000      0.000
REMARK  6 active torsions:
REMARK  status: ('A' for Active; 'I' for Inactive)
REMARK    1  A    between atoms: C3_5  and  N2_6 
REMARK    2  A    between atoms: C4_9  and  C5_10 
REMARK    3  A    between atoms: C5_10  and  N5_14 
REMARK    4  A    between atoms: N5_14  and  N6_16 
REMARK    5  A    between atoms: C6_21  and  N8_22 
REMARK    6  A    between atoms: N8_22  and  O1_24 
ROOT
HETATM    1  N2  UNL     1      37.384  -0.326  13.253  1.00  0.00     0.094 N 
HETATM    2  N3  UNL     1      36.254  -1.054  13.294  1.00  0.00    -0.246 N 
ATOM      3  H3  UNL     1      35.330  -0.691  13.528  1.00  0.00     0.190 HD
HETATM    4  C4  UNL     1      36.525  -2.335  12.981  1.00  0.00     0.182 A 
HETATM    5  N7  UNL     1      37.854  -2.350  12.753  1.00  0.00    -0.167 N 
ATOM      6  H7  UNL     1      38.384  -3.182  12.490  1.00  0.00     0.186 HD
HETATM    7  C6  UNL     1      38.397  -1.118  12.916  1.00  0.00     0.742 A 
ENDROOT
BRANCH   1   8
HETATM    8  C3  UNL     1      37.448   1.061  13.511  1.00  0.00     0.722 A 
HETATM    9  N1  UNL     1      38.571   1.464  14.176  1.00  0.00    -0.192 N 
HETATM   10  C2  UNL     1      38.727   2.753  14.480  1.00  0.00     0.042 A 
ATOM     11  H1  UNL     1      39.285   0.784  14.438  1.00  0.00     0.184 HD
HETATM   12  C1  UNL     1      39.955   3.237  15.202  1.00  0.00     0.070 C 
HETATM   13  C9  UNL     1      37.767   3.667  14.129  1.00  0.00     0.101 A 
HETATM   14  C8  UNL     1      36.641   3.219  13.452  1.00  0.00     0.275 A 
HETATM   15  C10 UNL     1      37.836   5.076  14.428  1.00  0.00     0.148 A 
HETATM   16  N9  UNL     1      36.511   1.913  13.158  1.00  0.00    -0.153 N 
HETATM   17  O2  UNL     1      35.741   4.026  13.112  1.00  0.00    -0.267 OA
ATOM     18  H9  UNL     1      35.683   1.583  12.660  1.00  0.00     0.187 HD
HETATM   19  N10 UNL     1      37.429   5.705  15.573  1.00  0.00    -0.269 N 
HETATM   20  N13 UNL     1      38.298   6.036  13.636  1.00  0.00    -0.269 N 
HETATM   21  N11 UNL     1      37.658   7.007  15.435  1.00  0.00    -0.007 NA
ATOM     22  H10 UNL     1      37.021   5.253  16.391  1.00  0.00     0.185 HD
HETATM   23  N12 UNL     1      38.198   7.212  14.229  1.00  0.00    -0.007 NA
ATOM     24  H13 UNL     1      38.677   5.886  12.701  1.00  0.00     0.185 HD
ENDBRANCH   1   8
BRANCH   7  25
HETATM   25  N8  UNL     1      39.774  -0.874  12.708  1.00  0.00    -0.092 N 
HETATM   26  C7  UNL     1      40.272  -0.842  11.346  1.00  0.00     0.205 C 
BRANCH  25  27
HETATM   27  O1  UNL     1      40.629  -0.687  13.714  1.00  0.00    -0.274 OA
ATOM     28  H1  UNL     1      41.551  -0.507  13.574  1.00  0.00     0.245 HD
ENDBRANCH  25  27
ENDBRANCH   7  25
BRANCH   4  29
HETATM   29  C5  UNL     1      35.608  -3.475  12.878  1.00  0.00     0.160 C 
HETATM   30  N4  UNL     1      35.380  -4.234  13.866  1.00  0.00    -0.381 N 
ATOM     31  H42 UNL     1      35.854  -4.059  14.752  1.00  0.00     0.157 HD
ATOM     32  H41 UNL     1      34.743  -5.028  13.795  1.00  0.00     0.157 HD
BRANCH  29  33
HETATM   33  N5  UNL     1      34.950  -3.718  11.650  1.00  0.00    -0.289 N 
ATOM     34  H5  UNL     1      33.941  -3.593  11.578  1.00  0.00     0.188 HD
BRANCH  33  35
HETATM   35  N6  UNL     1      35.685  -4.130  10.538  1.00  0.00    -0.344 N 
ATOM     36  H62 UNL     1      36.481  -3.570  10.234  1.00  0.00     0.176 HD
ATOM     37  H61 UNL     1      35.422  -4.981  10.041  1.00  0.00     0.176 HD
ENDBRANCH  33  35
ENDBRANCH  29  33
ENDBRANCH   4  29
TORSDOF 6
ENDMDL
MODEL 2
REMARK VINA RESULT: -6.556416588      5.356      8.784
REMARK  6 active torsions:
REMARK  status: ('A' for Active; 'I' for Inactive)
REMARK    1  A    between atoms: C3_5  and  N2_6 
REMARK    2  A    between atoms: C4_9  and  C5_10 
REMARK    3  A    between atoms: C5_10  and  N5_14 
REMARK    4  A    between atoms: N5_14  and  N6_16 
REMARK    5  A    between atoms: C6_21  and  N8_22 
REMARK    6  A    between atoms: N8_22  and  O1_24 
ROOT
HETATM    1  N2  UNL     1      36.848   6.402  18.403  1.00  0.00     0.094 N 
HETATM    2  N3  UNL     1      36.867   5.539  19.435  1.00  0.00    -0.246 N 
ATOM      3  H3  UNL     1      37.172   4.567  19.381  1.00  0.00     0.190 HD
HETATM    4  C4  UNL     1      36.425   6.150  20.550  1.00  0.00     0.182 A 
HETATM    5  N7  UNL     1      36.138   7.407  20.152  1.00  0.00    -0.167 N 
ATOM      6  H7  UNL     1      35.775   8.137  20.766  1.00  0.00     0.186 HD
HETATM    7  C6  UNL     1      36.395   7.577  18.831  1.00  0.00     0.742 A 
ENDROOT
BRANCH   1   8
HETATM    8  C3  UNL     1      37.267   6.088  17.093  1.00  0.00     0.722 A 
HETATM    9  N1  UNL     1      38.483   5.471  17.017  1.00  0.00    -0.192 N 
HETATM   10  C2  UNL     1      38.979   5.140  15.825  1.00  0.00     0.042 A 
ATOM     11  H1  UNL     1      39.008   5.264  17.868  1.00  0.00     0.184 HD
HETATM   12  C1  UNL     1      40.309   4.448  15.701  1.00  0.00     0.070 C 
HETATM   13  C9  UNL     1      38.274   5.418  14.682  1.00  0.00     0.101 A 
HETATM   14  C8  UNL     1      37.041   6.044  14.799  1.00  0.00     0.275 A 
HETATM   15  C10 UNL     1      38.732   5.116  13.348  1.00  0.00     0.148 A 
HETATM   16  N9  UNL     1      36.565   6.366  16.016  1.00  0.00    -0.153 N 
HETATM   17  O2  UNL     1      36.365   6.313  13.776  1.00  0.00    -0.267 OA
ATOM     18  H9  UNL     1      35.659   6.826  16.103  1.00  0.00     0.187 HD
HETATM   19  N10 UNL     1      39.533   5.886  12.549  1.00  0.00    -0.269 N 
HETATM   20  N13 UNL     1      38.450   4.033  12.636  1.00  0.00    -0.269 N 
HETATM   21  N11 UNL     1      39.704   5.248  11.396  1.00  0.00    -0.007 NA
ATOM     22  H10 UNL     1      39.929   6.793  12.795  1.00  0.00     0.185 HD
HETATM   23  N12 UNL     1      39.030   4.095  11.451  1.00  0.00    -0.007 NA
ATOM     24  H13 UNL     1      37.867   3.260  12.958  1.00  0.00     0.185 HD
ENDBRANCH   1   8
BRANCH   7  25
HETATM   25  N8  UNL     1      36.196   8.819  18.184  1.00  0.00    -0.092 N 
HETATM   26  C7  UNL     1      36.770  10.008  18.784  1.00  0.00     0.205 C 
BRANCH  25  27
HETATM   27  O1  UNL     1      35.493   8.937  17.058  1.00  0.00    -0.274 OA
ATOM     28  H1  UNL     1      35.168   9.771  16.744  1.00  0.00     0.245 HD
ENDBRANCH  25  27
ENDBRANCH   7  25
BRANCH   4  29
HETATM   29  C5  UNL     1      36.294   5.613  21.908  1.00  0.00     0.160 C 
HETATM   30  N4  UNL     1      35.926   6.341  22.877  1.00  0.00    -0.381 N 
ATOM     31  H42 UNL     1      35.727   7.328  22.715  1.00  0.00     0.157 HD
ATOM     32  H41 UNL     1      35.835   5.967  23.822  1.00  0.00     0.157 HD
BRANCH  29  33
HETATM   33  N5  UNL     1      36.569   4.244  22.134  1.00  0.00    -0.289 N 
ATOM     34  H5  UNL     1      37.406   3.819  21.736  1.00  0.00     0.188 HD
BRANCH  33  35
HETATM   35  N6  UNL     1      35.692   3.476  22.900  1.00  0.00    -0.344 N 
ATOM     36  H62 UNL     1      35.733   3.543  23.917  1.00  0.00     0.176 HD
ATOM     37  H61 UNL     1      35.022   2.859  22.442  1.00  0.00     0.176 HD
ENDBRANCH  33  35
ENDBRANCH  29  33
ENDBRANCH   4  29
TORSDOF 6
ENDMDL
MODEL 3
REMARK VINA RESULT: -6.520013967      0.958      1.386
REMARK  6 active torsions:
REMARK  status: ('A' for Active; 'I' for Inactive)
REMARK    1  A    between atoms: C3_5  and  N2_6 
REMARK    2  A    between atoms: C4_9  and  C5_10 
REMARK    3  A    between atoms: C5_10  and  N5_14 
REMARK    4  A    between atoms: N5_14  and  N6_16 
REMARK    5  A    between atoms: C6_21  and  N8_22 
REMARK    6  A    between atoms: N8_22  and  O1_24 
ROOT
HETATM    1  N2  UNL     1      37.291   0.243  13.100  1.00  0.00     0.094 N 
HETATM    2  N3  UNL     1      36.202  -0.530  12.939  1.00  0.00    -0.246 N 
ATOM      3  H3  UNL     1      35.239  -0.220  13.067  1.00  0.00     0.190 HD
HETATM    4  C4  UNL     1      36.574  -1.774  12.584  1.00  0.00     0.182 A 
HETATM    5  N7  UNL     1      37.922  -1.721  12.539  1.00  0.00    -0.167 N 
ATOM      6  H7  UNL     1      38.521  -2.511  12.299  1.00  0.00     0.186 HD
HETATM    7  C6  UNL     1      38.377  -0.483  12.854  1.00  0.00     0.742 A 
ENDROOT
BRANCH   1   8
HETATM    8  C3  UNL     1      37.254   1.609  13.453  1.00  0.00     0.722 A 
HETATM    9  N1  UNL     1      38.372   2.063  14.092  1.00  0.00    -0.192 N 
HETATM   10  C2  UNL     1      38.437   3.337  14.480  1.00  0.00     0.042 A 
ATOM     11  H1  UNL     1      39.153   1.431  14.270  1.00  0.00     0.184 HD
HETATM   12  C1  UNL     1      39.656   3.877  15.175  1.00  0.00     0.070 C 
HETATM   13  C9  UNL     1      37.387   4.186  14.240  1.00  0.00     0.101 A 
HETATM   14  C8  UNL     1      36.268   3.689  13.586  1.00  0.00     0.275 A 
HETATM   15  C10 UNL     1      37.354   5.572  14.635  1.00  0.00     0.148 A 
HETATM   16  N9  UNL     1      36.231   2.399  13.205  1.00  0.00    -0.153 N 
HETATM   17  O2  UNL     1      35.287   4.436  13.347  1.00  0.00    -0.267 OA
ATOM     18  H9  UNL     1      35.409   2.033  12.725  1.00  0.00     0.187 HD
HETATM   19  N10 UNL     1      36.957   6.086  15.840  1.00  0.00    -0.269 N 
HETATM   20  N13 UNL     1      37.692   6.620  13.893  1.00  0.00    -0.269 N 
HETATM   21  N11 UNL     1      37.069   7.408  15.785  1.00  0.00    -0.007 NA
ATOM     22  H10 UNL     1      36.632   5.546  16.642  1.00  0.00     0.185 HD
HETATM   23  N12 UNL     1      37.526   7.740  14.572  1.00  0.00    -0.007 NA
ATOM     24  H13 UNL     1      38.033   6.566  12.933  1.00  0.00     0.185 HD
ENDBRANCH   1   8
BRANCH   7  25
HETATM   25  N8  UNL     1      39.757  -0.172  12.853  1.00  0.00    -0.092 N 
HETATM   26  C7  UNL     1      40.630  -0.906  13.749  1.00  0.00     0.205 C 
BRANCH  25  27
HETATM   27  O1  UNL     1      40.278   0.775  12.073  1.00  0.00    -0.274 OA
ATOM     28  H1  UNL     1      41.028   0.620  11.512  1.00  0.00     0.245 HD
ENDBRANCH  25  27
ENDBRANCH   7  25
BRANCH   4  29
HETATM   29  C5  UNL     1      35.736  -2.938  12.283  1.00  0.00     0.160 C 
HETATM   30  N4  UNL     1      35.335  -3.182  11.106  1.00  0.00    -0.381 N 
ATOM     31  H42 UNL     1      35.591  -2.548  10.349  1.00  0.00     0.157 HD
ATOM     32  H41 UNL     1      34.751  -3.992  10.897  1.00  0.00     0.157 HD
BRANCH  29  33
HETATM   33  N5  UNL     1      35.382  -3.819  13.332  1.00  0.00    -0.289 N 
ATOM     34  H5  UNL     1      34.530  -4.376  13.266  1.00  0.00     0.188 HD
BRANCH  33  35
HETATM   35  N6  UNL     1      36.199  -3.923  14.458  1.00  0.00    -0.344 N 
ATOM     36  H62 UNL     1      36.451  -4.848  14.805  1.00  0.00     0.176 HD
ATOM     37  H61 UNL     1      36.536  -3.079  14.922  1.00  0.00     0.176 HD
ENDBRANCH  33  35
ENDBRANCH  29  33
ENDBRANCH   4  29
TORSDOF 6
ENDMDL
MODEL 4
REMARK VINA RESULT: -6.475663826      1.950      2.399
REMARK  6 active torsions:
REMARK  status: ('A' for Active; 'I' for Inactive)
REMARK    1  A    between atoms: C3_5  and  N2_6 
REMARK    2  A    between atoms: C4_9  and  C5_10 
REMARK    3  A    between atoms: C5_10  and  N5_14 
REMARK    4  A    between atoms: N5_14  and  N6_16 
REMARK    5  A    between atoms: C6_21  and  N8_22 
REMARK    6  A    between atoms: N8_22  and  O1_24 
ROOT
HETATM    1  N2  UNL     1      37.399  -0.678  13.646  1.00  0.00     0.094 N 
HETATM    2  N3  UNL     1      36.475  -1.348  12.933  1.00  0.00    -0.246 N 
ATOM      3  H3  UNL     1      36.007  -0.993  12.100  1.00  0.00     0.190 HD
HETATM    4  C4  UNL     1      36.261  -2.557  13.486  1.00  0.00     0.182 A 
HETATM    5  N7  UNL     1      37.086  -2.588  14.553  1.00  0.00    -0.167 N 
ATOM      6  H7  UNL     1      37.167  -3.377  15.195  1.00  0.00     0.186 HD
HETATM    7  C6  UNL     1      37.795  -1.437  14.663  1.00  0.00     0.742 A 
ENDROOT
BRANCH   1   8
HETATM    8  C3  UNL     1      37.869   0.614  13.326  1.00  0.00     0.722 A 
HETATM    9  N1  UNL     1      39.181   0.665  12.948  1.00  0.00    -0.192 N 
HETATM   10  C2  UNL     1      39.729   1.840  12.636  1.00  0.00     0.042 A 
ATOM     11  H1  UNL     1      39.736  -0.189  12.905  1.00  0.00     0.184 HD
HETATM   12  C1  UNL     1      41.167   1.936  12.203  1.00  0.00     0.070 C 
HETATM   13  C9  UNL     1      38.982   2.989  12.695  1.00  0.00     0.101 A 
HETATM   14  C8  UNL     1      37.653   2.896  13.082  1.00  0.00     0.275 A 
HETATM   15  C10 UNL     1      39.488   4.305  12.394  1.00  0.00     0.148 A 
HETATM   16  N9  UNL     1      37.126   1.698  13.390  1.00  0.00    -0.153 N 
HETATM   17  O2  UNL     1      36.936   3.925  13.146  1.00  0.00    -0.267 OA
ATOM     18  H9  UNL     1      36.148   1.629  13.675  1.00  0.00     0.187 HD
HETATM   19  N10 UNL     1      40.126   5.167  13.245  1.00  0.00    -0.269 N 
HETATM   20  N13 UNL     1      39.417   4.938  11.230  1.00  0.00    -0.269 N 
HETATM   21  N11 UNL     1      40.415   6.276  12.572  1.00  0.00    -0.007 NA
ATOM     22  H10 UNL     1      40.342   4.989  14.225  1.00  0.00     0.185 HD
HETATM   23  N12 UNL     1      39.972   6.133  11.318  1.00  0.00    -0.007 NA
ATOM     24  H13 UNL     1      38.992   4.556  10.385  1.00  0.00     0.185 HD
ENDBRANCH   1   8
BRANCH   7  25
HETATM   25  N8  UNL     1      38.745  -1.239  15.692  1.00  0.00    -0.092 N 
HETATM   26  C7  UNL     1      38.532  -1.901  16.964  1.00  0.00     0.205 C 
BRANCH  25  27
HETATM   27  O1  UNL     1      39.817  -0.461  15.538  1.00  0.00    -0.274 OA
ATOM     28  H1  UNL     1      40.584  -0.533  16.093  1.00  0.00     0.245 HD
ENDBRANCH  25  27
ENDBRANCH   7  25
BRANCH   4  29
HETATM   29  C5  UNL     1      35.364  -3.628  13.044  1.00  0.00     0.160 C 
HETATM   30  N4  UNL     1      34.988  -4.546  13.831  1.00  0.00    -0.381 N 
ATOM     31  H42 UNL     1      35.326  -4.550  14.793  1.00  0.00     0.157 HD
ATOM     32  H41 UNL     1      34.363  -5.292  13.523  1.00  0.00     0.157 HD
BRANCH  29  33
HETATM   33  N5  UNL     1      34.895  -3.624  11.709  1.00  0.00    -0.289 N 
ATOM     34  H5  UNL     1      33.958  -3.279  11.499  1.00  0.00     0.188 HD
BRANCH  33  35
HETATM   35  N6  UNL     1      35.714  -4.092  10.682  1.00  0.00    -0.344 N 
ATOM     36  H62 UNL     1      35.289  -4.393   9.806  1.00  0.00     0.176 HD
ATOM     37  H61 UNL     1      36.725  -4.128  10.815  1.00  0.00     0.176 HD
ENDBRANCH  33  35
ENDBRANCH  29  33
ENDBRANCH   4  29
TORSDOF 6
ENDMDL
MODEL 5
REMARK VINA RESULT: -6.448015338      2.849      3.678
REMARK  6 active torsions:
REMARK  status: ('A' for Active; 'I' for Inactive)
REMARK    1  A    between atoms: C3_5  and  N2_6 
REMARK    2  A    between atoms: C4_9  and  C5_10 
REMARK    3  A    between atoms: C5_10  and  N5_14 
REMARK    4  A    between atoms: N5_14  and  N6_16 
REMARK    5  A    between atoms: C6_21  and  N8_22 
REMARK    6  A    between atoms: N8_22  and  O1_24 
ROOT
HETATM    1  N2  UNL     1      37.944  -0.146  13.627  1.00  0.00     0.094 N 
HETATM    2  N3  UNL     1      38.276  -0.706  14.805  1.00  0.00    -0.246 N 
ATOM      3  H3  UNL     1      38.902  -0.292  15.496  1.00  0.00     0.190 HD
HETATM    4  C4  UNL     1      37.659  -1.896  14.935  1.00  0.00     0.182 A 
HETATM    5  N7  UNL     1      36.948  -2.030  13.796  1.00  0.00    -0.167 N 
ATOM      6  H7  UNL     1      36.360  -2.835  13.576  1.00  0.00     0.186 HD
HETATM    7  C6  UNL     1      37.114  -0.959  12.981  1.00  0.00     0.742 A 
ENDROOT
BRANCH   1   8
HETATM    8  C3  UNL     1      38.404   1.113  13.186  1.00  0.00     0.722 A 
HETATM    9  N1  UNL     1      39.704   1.129  12.768  1.00  0.00    -0.192 N 
HETATM   10  C2  UNL     1      40.243   2.272  12.341  1.00  0.00     0.042 A 
ATOM     11  H1  UNL     1      40.258   0.273  12.782  1.00  0.00     0.184 HD
HETATM   12  C1  UNL     1      41.667   2.328  11.861  1.00  0.00     0.070 C 
HETATM   13  C9  UNL     1      39.497   3.423  12.323  1.00  0.00     0.101 A 
HETATM   14  C8  UNL     1      38.179   3.366  12.754  1.00  0.00     0.275 A 
HETATM   15  C10 UNL     1      39.993   4.708  11.897  1.00  0.00     0.148 A 
HETATM   16  N9  UNL     1      37.662   2.199  13.179  1.00  0.00    -0.153 N 
HETATM   17  O2  UNL     1      37.464   4.398  12.750  1.00  0.00    -0.267 OA
ATOM     18  H9  UNL     1      36.693   2.156  13.495  1.00  0.00     0.187 HD
HETATM   19  N10 UNL     1      40.655   5.638  12.652  1.00  0.00    -0.269 N 
HETATM   20  N13 UNL     1      39.888   5.240  10.686  1.00  0.00    -0.269 N 
HETATM   21  N11 UNL     1      40.923   6.685  11.880  1.00  0.00    -0.007 NA
ATOM     22  H10 UNL     1      40.899   5.544  13.638  1.00  0.00     0.185 HD
HETATM   23  N12 UNL     1      40.445   6.437  10.656  1.00  0.00    -0.007 NA
ATOM     24  H13 UNL     1      39.440   4.788   9.889  1.00  0.00     0.185 HD
ENDBRANCH   1   8
BRANCH   7  25
HETATM   25  N8  UNL     1      36.451  -0.857  11.736  1.00  0.00    -0.092 N 
HETATM   26  C7  UNL     1      35.232  -1.618  11.540  1.00  0.00     0.205 C 
BRANCH  25  27
HETATM   27  O1  UNL     1      36.910  -0.101  10.739  1.00  0.00    -0.274 OA
ATOM     28  H1  UNL     1      36.689   0.818  10.651  1.00  0.00     0.245 HD
ENDBRANCH  25  27
ENDBRANCH   7  25
BRANCH   4  29
HETATM   29  C5  UNL     1      37.705  -2.843  16.052  1.00  0.00     0.160 C 
HETATM   30  N4  UNL     1      38.096  -4.038  15.894  1.00  0.00    -0.381 N 
ATOM     31  H42 UNL     1      38.373  -4.355  14.965  1.00  0.00     0.157 HD
ATOM     32  H41 UNL     1      38.128  -4.697  16.672  1.00  0.00     0.157 HD
BRANCH  29  33
HETATM   33  N5  UNL     1      37.321  -2.404  17.341  1.00  0.00    -0.289 N 
ATOM     34  H5  UNL     1      36.333  -2.348  17.588  1.00  0.00     0.188 HD
BRANCH  33  35
HETATM   35  N6  UNL     1      38.296  -2.048  18.273  1.00  0.00    -0.344 N 
ATOM     36  H62 UNL     1      39.085  -2.674  18.430  1.00  0.00     0.176 HD
ATOM     37  H61 UNL     1      38.212  -1.170  18.786  1.00  0.00     0.176 HD
ENDBRANCH  33  35
ENDBRANCH  29  33
ENDBRANCH   4  29
TORSDOF 6
ENDMDL
