MODEL 1
REMARK VINA RESULT: -7.200442682      0.000      0.000
REMARK  7 active torsions:
REMARK  status: ('A' for Active; 'I' for Inactive)
REMARK    1  A    between atoms: C2_3  and  N2_4 
REMARK    2  A    between atoms: C2_3  and  C6_20 
REMARK    3  A    between atoms: N2_4  and  C3_6 
REMARK    4  A    between atoms: C5_11  and  N4_12 
REMARK    5  A    between atoms: N4_12  and  O2_14 
REMARK    6  A    between atoms: C8_22  and  N7_23 
REMARK    7  A    between atoms: N7_23  and  C9_25 
ROOT
HETATM    1  N1  UNL     1      39.948   2.553  12.367  1.00  0.00    -0.195 NA
HETATM    2  C1  UNL     1      38.923   2.434  12.893  1.00  0.00     0.092 C 
HETATM    3  C2  UNL     1      37.619   2.265  13.561  1.00  0.00     0.264 C 
ENDROOT
BRANCH   3   4
HETATM    4  N2  UNL     1      36.768   1.520  12.671  1.00  0.00    -0.202 N 
ATOM      5  H2  UNL     1      36.298   2.024  11.919  1.00  0.00     0.179 HD
BRANCH   4   6
HETATM    6  C3  UNL     1      36.546   0.129  12.781  1.00  0.00     0.697 A 
HETATM    7  N3  UNL     1      35.807  -0.479  11.817  1.00  0.00    -0.152 N 
HETATM    8  C4  UNL     1      35.553  -1.794  11.868  1.00  0.00     0.306 A 
ATOM      9  H3  UNL     1      35.439   0.074  11.044  1.00  0.00     0.188 HD
HETATM   10  O1  UNL     1      34.869  -2.394  10.991  1.00  0.00    -0.263 OA
HETATM   11  C5  UNL     1      36.038  -2.567  12.903  1.00  0.00     0.210 A 
HETATM   12  N5  UNL     1      36.765  -1.956  13.845  1.00  0.00    -0.265 N 
HETATM   13  N6  UNL     1      36.999  -0.647  13.767  1.00  0.00    -0.130 N 
ATOM     14  H5  UNL     1      37.140  -2.494  14.626  1.00  0.00     0.189 HD
ATOM     15  H6  UNL     1      37.557  -0.213  14.502  1.00  0.00     0.205 HD
BRANCH  11  16
HETATM   16  N4  UNL     1      35.831  -3.828  13.009  1.00  0.00    -0.247 N 
ATOM     17  H4  UNL     1      36.243  -4.474  12.337  1.00  0.00     0.196 HD
BRANCH  16  18
HETATM   18  O2  UNL     1      35.042  -4.307  14.050  1.00  0.00    -0.288 OA
ATOM     19  H2  UNL     1      35.414  -4.385  14.921  1.00  0.00     0.244 HD
ENDBRANCH  16  18
ENDBRANCH  11  16
ENDBRANCH   4   6
ENDBRANCH   3   4
BRANCH   3  20
HETATM   20  C6  UNL     1      37.048   3.593  13.902  1.00  0.00     0.099 A 
HETATM   21  C7  UNL     1      37.667   4.479  14.729  1.00  0.00     0.085 A 
HETATM   22  C8  UNL     1      37.072   5.695  14.996  1.00  0.00     0.114 A 
HETATM   23  N10 UNL     1      35.887   5.944  14.413  1.00  0.00    -0.288 N 
HETATM   24  C12 UNL     1      35.303   5.063  13.608  1.00  0.00     0.371 A 
ATOM     25  H10 UNL     1      35.423   6.835  14.593  1.00  0.00     0.172 HD
HETATM   26  O3  UNL     1      34.195   5.256  13.042  1.00  0.00    -0.238 OA
HETATM   27  O4  UNL     1      35.894   3.919  13.375  1.00  0.00    -0.262 OA
BRANCH  22  28
HETATM   28  N7  UNL     1      37.695   6.654  15.864  1.00  0.00    -0.314 N 
ATOM     29  H7  UNL     1      38.638   6.982  15.655  1.00  0.00     0.170 HD
BRANCH  28  30
HETATM   30  C9  UNL     1      37.020   7.151  17.008  1.00  0.00     0.176 C 
HETATM   31  N8  UNL     1      37.057   6.612  18.192  1.00  0.00    -0.361 N 
HETATM   32  C10 UNL     1      36.258   7.372  19.133  1.00  0.00     0.142 C 
ATOM     33  H8  UNL     1      37.579   5.768  18.426  1.00  0.00     0.162 HD
HETATM   34  C11 UNL     1      36.116   8.696  18.436  1.00  0.00     0.142 C 
HETATM   35  N9  UNL     1      36.202   8.314  17.040  1.00  0.00    -0.361 N 
ATOM     36  H9  UNL     1      35.766   8.782  16.245  1.00  0.00     0.162 HD
ENDBRANCH  28  30
ENDBRANCH  22  28
ENDBRANCH   3  20
TORSDOF 7
ENDMDL
MODEL 2
REMARK VINA RESULT: -7.112570212      2.902      8.580
REMARK  7 active torsions:
REMARK  status: ('A' for Active; 'I' for Inactive)
REMARK    1  A    between atoms: C2_3  and  N2_4 
REMARK    2  A    between atoms: C2_3  and  C6_20 
REMARK    3  A    between atoms: N2_4  and  C3_6 
REMARK    4  A    between atoms: C5_11  and  N4_12 
REMARK    5  A    between atoms: N4_12  and  O2_14 
REMARK    6  A    between atoms: C8_22  and  N7_23 
REMARK    7  A    between atoms: N7_23  and  C9_25 
ROOT
HETATM    1  N1  UNL     1      41.308   2.870  14.155  1.00  0.00    -0.195 NA
HETATM    2  C1  UNL     1      40.227   2.825  13.741  1.00  0.00     0.092 C 
HETATM    3  C2  UNL     1      38.850   2.786  13.215  1.00  0.00     0.264 C 
ENDROOT
BRANCH   3   4
HETATM    4  N2  UNL     1      37.975   3.265  14.253  1.00  0.00    -0.202 N 
ATOM      5  H2  UNL     1      37.830   2.673  15.071  1.00  0.00     0.179 HD
BRANCH   4   6
HETATM    6  C3  UNL     1      37.305   4.508  14.201  1.00  0.00     0.697 A 
HETATM    7  N3  UNL     1      38.033   5.635  14.412  1.00  0.00    -0.152 N 
HETATM    8  C4  UNL     1      37.457   6.845  14.385  1.00  0.00     0.306 A 
ATOM      9  H3  UNL     1      39.034   5.560  14.595  1.00  0.00     0.188 HD
HETATM   10  O1  UNL     1      38.101   7.915  14.577  1.00  0.00    -0.263 OA
HETATM   11  C5  UNL     1      36.106   6.977  14.139  1.00  0.00     0.210 A 
HETATM   12  N5  UNL     1      35.401   5.860  13.933  1.00  0.00    -0.265 N 
HETATM   13  N6  UNL     1      36.003   4.672  13.967  1.00  0.00    -0.130 N 
ATOM     14  H5  UNL     1      34.400   5.917  13.749  1.00  0.00     0.189 HD
ATOM     15  H6  UNL     1      35.435   3.840  13.805  1.00  0.00     0.205 HD
BRANCH  11  16
HETATM   16  N4  UNL     1      35.495   8.104  14.099  1.00  0.00    -0.247 N 
ATOM     17  H4  UNL     1      35.999   8.969  14.296  1.00  0.00     0.196 HD
BRANCH  16  18
HETATM   18  O2  UNL     1      34.140   8.137  13.785  1.00  0.00    -0.288 OA
ATOM     19  H2  UNL     1      33.578   7.425  14.065  1.00  0.00     0.244 HD
ENDBRANCH  16  18
ENDBRANCH  11  16
ENDBRANCH   4   6
ENDBRANCH   3   4
BRANCH   3  20
HETATM   20  C6  UNL     1      38.509   1.405  12.788  1.00  0.00     0.099 A 
HETATM   21  C7  UNL     1      37.245   0.903  12.835  1.00  0.00     0.085 A 
HETATM   22  C8  UNL     1      37.009  -0.392  12.419  1.00  0.00     0.114 A 
HETATM   23  N10 UNL     1      38.062  -1.102  11.982  1.00  0.00    -0.288 N 
HETATM   24  C12 UNL     1      39.287  -0.590  11.946  1.00  0.00     0.371 A 
ATOM     25  H10 UNL     1      37.917  -2.063  11.670  1.00  0.00     0.172 HD
HETATM   26  O3  UNL     1      40.300  -1.219  11.544  1.00  0.00    -0.238 OA
HETATM   27  O4  UNL     1      39.478   0.641  12.346  1.00  0.00    -0.262 OA
BRANCH  22  28
HETATM   28  N7  UNL     1      35.688  -0.955  12.454  1.00  0.00    -0.314 N 
ATOM     29  H7  UNL     1      34.882  -0.354  12.287  1.00  0.00     0.170 HD
BRANCH  28  30
HETATM   30  C9  UNL     1      35.489  -2.334  12.719  1.00  0.00     0.176 C 
HETATM   31  N8  UNL     1      35.184  -3.230  11.828  1.00  0.00    -0.361 N 
HETATM   32  C10 UNL     1      35.053  -4.541  12.433  1.00  0.00     0.142 C 
ATOM     33  H8  UNL     1      35.054  -3.037  10.834  1.00  0.00     0.162 HD
HETATM   34  C11 UNL     1      35.777  -4.365  13.738  1.00  0.00     0.142 C 
HETATM   35  N9  UNL     1      35.592  -2.950  13.997  1.00  0.00    -0.361 N 
ATOM     36  H9  UNL     1      35.545  -2.491  14.907  1.00  0.00     0.162 HD
ENDBRANCH  28  30
ENDBRANCH  22  28
ENDBRANCH   3  20
TORSDOF 7
ENDMDL
MODEL 3
REMARK VINA RESULT: -7.108202305      3.956      8.257
REMARK  7 active torsions:
REMARK  status: ('A' for Active; 'I' for Inactive)
REMARK    1  A    between atoms: C2_3  and  N2_4 
REMARK    2  A    between atoms: C2_3  and  C6_20 
REMARK    3  A    between atoms: N2_4  and  C3_6 
REMARK    4  A    between atoms: C5_11  and  N4_12 
REMARK    5  A    between atoms: N4_12  and  O2_14 
REMARK    6  A    between atoms: C8_22  and  N7_23 
REMARK    7  A    between atoms: N7_23  and  C9_25 
ROOT
HETATM    1  N1  UNL     1      39.145   6.773  14.143  1.00  0.00    -0.195 NA
HETATM    2  C1  UNL     1      39.322   5.877  13.432  1.00  0.00     0.092 C 
HETATM    3  C2  UNL     1      39.562   4.743  12.520  1.00  0.00     0.264 C 
ENDROOT
BRANCH   3   4
HETATM    4  N2  UNL     1      39.405   5.229  11.173  1.00  0.00    -0.202 N 
ATOM      5  H2  UNL     1      38.501   5.617  10.903  1.00  0.00     0.179 HD
BRANCH   4   6
HETATM    6  C3  UNL     1      40.435   5.199  10.206  1.00  0.00     0.697 A 
HETATM    7  N3  UNL     1      40.081   5.250   8.895  1.00  0.00    -0.152 N 
HETATM    8  C4  UNL     1      41.009   5.216   7.928  1.00  0.00     0.306 A 
ATOM      9  H3  UNL     1      39.096   5.316   8.643  1.00  0.00     0.188 HD
HETATM   10  O1  UNL     1      40.719   5.263   6.699  1.00  0.00    -0.263 OA
HETATM   11  C5  UNL     1      42.350   5.129   8.240  1.00  0.00     0.210 A 
HETATM   12  N5  UNL     1      42.684   5.079   9.534  1.00  0.00    -0.265 N 
HETATM   13  N6  UNL     1      41.738   5.114  10.472  1.00  0.00    -0.130 N 
ATOM     14  H5  UNL     1      43.665   5.013   9.803  1.00  0.00     0.189 HD
ATOM     15  H6  UNL     1      42.028   5.073  11.449  1.00  0.00     0.205 HD
BRANCH  11  16
HETATM   16  N4  UNL     1      43.285   5.093   7.363  1.00  0.00    -0.247 N 
ATOM     17  H4  UNL     1      44.020   5.800   7.366  1.00  0.00     0.196 HD
BRANCH  16  18
HETATM   18  O2  UNL     1      43.289   4.081   6.408  1.00  0.00    -0.288 OA
ATOM     19  H2  UNL     1      43.914   4.117   5.692  1.00  0.00     0.244 HD
ENDBRANCH  16  18
ENDBRANCH  11  16
ENDBRANCH   4   6
ENDBRANCH   3   4
BRANCH   3  20
HETATM   20  C6  UNL     1      38.620   3.636  12.828  1.00  0.00     0.099 A 
HETATM   21  C7  UNL     1      38.970   2.323  12.763  1.00  0.00     0.085 A 
HETATM   22  C8  UNL     1      38.037   1.352  13.065  1.00  0.00     0.114 A 
HETATM   23  N10 UNL     1      36.807   1.764  13.415  1.00  0.00    -0.288 N 
HETATM   24  C12 UNL     1      36.490   3.053  13.472  1.00  0.00     0.371 A 
ATOM     25  H10 UNL     1      36.097   1.068  13.643  1.00  0.00     0.172 HD
HETATM   26  O3  UNL     1      35.352   3.482  13.794  1.00  0.00    -0.238 OA
HETATM   27  O4  UNL     1      37.397   3.949  13.179  1.00  0.00    -0.262 OA
BRANCH  22  28
HETATM   28  N7  UNL     1      38.371  -0.043  13.007  1.00  0.00    -0.314 N 
ATOM     29  H7  UNL     1      39.308  -0.347  13.271  1.00  0.00     0.170 HD
BRANCH  28  30
HETATM   30  C9  UNL     1      37.417  -1.006  12.587  1.00  0.00     0.176 C 
HETATM   31  N8  UNL     1      36.645  -1.690  13.380  1.00  0.00    -0.361 N 
HETATM   32  C10 UNL     1      35.789  -2.585  12.626  1.00  0.00     0.142 C 
ATOM     33  H8  UNL     1      36.643  -1.608  14.397  1.00  0.00     0.162 HD
HETATM   34  C11 UNL     1      35.847  -1.995  11.245  1.00  0.00     0.142 C 
HETATM   35  N9  UNL     1      37.156  -1.371  11.237  1.00  0.00    -0.361 N 
ATOM     36  H9  UNL     1      37.764  -1.224  10.431  1.00  0.00     0.162 HD
ENDBRANCH  28  30
ENDBRANCH  22  28
ENDBRANCH   3  20
TORSDOF 7
ENDMDL
MODEL 4
REMARK VINA RESULT: -7.050138823      2.769      8.513
REMARK  7 active torsions:
REMARK  status: ('A' for Active; 'I' for Inactive)
REMARK    1  A    between atoms: C2_3  and  N2_4 
REMARK    2  A    between atoms: C2_3  and  C6_20 
REMARK    3  A    between atoms: N2_4  and  C3_6 
REMARK    4  A    between atoms: C5_11  and  N4_12 
REMARK    5  A    between atoms: N4_12  and  O2_14 
REMARK    6  A    between atoms: C8_22  and  N7_23 
REMARK    7  A    between atoms: N7_23  and  C9_25 
ROOT
HETATM    1  N1  UNL     1      38.870   4.189  17.237  1.00  0.00    -0.195 NA
HETATM    2  C1  UNL     1      39.154   4.026  16.126  1.00  0.00     0.092 C 
HETATM    3  C2  UNL     1      39.530   3.829  14.714  1.00  0.00     0.264 C 
ENDROOT
BRANCH   3   4
HETATM    4  N2  UNL     1      39.507   5.119  14.075  1.00  0.00    -0.202 N 
ATOM      5  H2  UNL     1      40.292   5.373  13.474  1.00  0.00     0.179 HD
BRANCH   4   6
HETATM    6  C3  UNL     1      38.458   6.052  14.233  1.00  0.00     0.697 A 
HETATM    7  N3  UNL     1      38.730   7.216  14.877  1.00  0.00    -0.152 N 
HETATM    8  C4  UNL     1      37.777   8.139  15.067  1.00  0.00     0.306 A 
ATOM      9  H3  UNL     1      39.674   7.391  15.221  1.00  0.00     0.188 HD
HETATM   10  O1  UNL     1      37.992   9.234  15.661  1.00  0.00    -0.263 OA
HETATM   11  C5  UNL     1      36.492   7.930  14.612  1.00  0.00     0.210 A 
HETATM   12  N5  UNL     1      36.237   6.780  13.979  1.00  0.00    -0.265 N 
HETATM   13  N6  UNL     1      37.206   5.882  13.806  1.00  0.00    -0.130 N 
ATOM     14  H5  UNL     1      35.299   6.589  13.629  1.00  0.00     0.189 HD
ATOM     15  H6  UNL     1      36.977   5.015  13.320  1.00  0.00     0.205 HD
BRANCH  11  16
HETATM   16  N4  UNL     1      35.536   8.772  14.761  1.00  0.00    -0.247 N 
ATOM     17  H4  UNL     1      35.647   9.569  15.388  1.00  0.00     0.196 HD
BRANCH  16  18
HETATM   18  O2  UNL     1      34.348   8.590  14.061  1.00  0.00    -0.288 OA
ATOM     19  H2  UNL     1      34.264   8.942  13.182  1.00  0.00     0.244 HD
ENDBRANCH  16  18
ENDBRANCH  11  16
ENDBRANCH   4   6
ENDBRANCH   3   4
BRANCH   3  20
HETATM   20  C6  UNL     1      38.598   2.868  14.070  1.00  0.00     0.099 A 
HETATM   21  C7  UNL     1      39.017   1.746  13.423  1.00  0.00     0.085 A 
HETATM   22  C8  UNL     1      38.087   0.902  12.851  1.00  0.00     0.114 A 
HETATM   23  N10 UNL     1      36.792   1.240  12.965  1.00  0.00    -0.288 N 
HETATM   24  C12 UNL     1      36.409   2.341  13.602  1.00  0.00     0.371 A 
ATOM     25  H10 UNL     1      36.083   0.635  12.550  1.00  0.00     0.172 HD
HETATM   26  O3  UNL     1      35.207   2.694  13.733  1.00  0.00    -0.238 OA
HETATM   27  O4  UNL     1      37.314   3.120  14.135  1.00  0.00    -0.262 OA
BRANCH  22  28
HETATM   28  N7  UNL     1      38.491  -0.290  12.160  1.00  0.00    -0.314 N 
ATOM     29  H7  UNL     1      39.417  -0.333  11.732  1.00  0.00     0.170 HD
BRANCH  28  30
HETATM   30  C9  UNL     1      37.624  -1.409  12.062  1.00  0.00     0.176 C 
HETATM   31  N8  UNL     1      36.966  -1.754  10.995  1.00  0.00    -0.361 N 
HETATM   32  C10 UNL     1      36.174  -2.944  11.236  1.00  0.00     0.142 C 
ATOM     33  H8  UNL     1      37.002  -1.254  10.106  1.00  0.00     0.162 HD
HETATM   34  C11 UNL     1      36.819  -3.514  12.468  1.00  0.00     0.142 C 
HETATM   35  N9  UNL     1      37.342  -2.325  13.113  1.00  0.00    -0.361 N 
ATOM     36  H9  UNL     1      37.478  -2.175  14.113  1.00  0.00     0.162 HD
ENDBRANCH  28  30
ENDBRANCH  22  28
ENDBRANCH   3  20
TORSDOF 7
ENDMDL
MODEL 5
REMARK VINA RESULT: -7.037979631      4.321      8.475
REMARK  7 active torsions:
REMARK  status: ('A' for Active; 'I' for Inactive)
REMARK    1  A    between atoms: C2_3  and  N2_4 
REMARK    2  A    between atoms: C2_3  and  C6_20 
REMARK    3  A    between atoms: N2_4  and  C3_6 
REMARK    4  A    between atoms: C5_11  and  N4_12 
REMARK    5  A    between atoms: N4_12  and  O2_14 
REMARK    6  A    between atoms: C8_22  and  N7_23 
REMARK    7  A    between atoms: N7_23  and  C9_25 
ROOT
HETATM    1  N1  UNL     1      42.197   1.734  14.093  1.00  0.00    -0.195 NA
HETATM    2  C1  UNL     1      41.397   2.037  13.312  1.00  0.00     0.092 C 
HETATM    3  C2  UNL     1      40.392   2.430  12.306  1.00  0.00     0.264 C 
ENDROOT
BRANCH   3   4
HETATM    4  N2  UNL     1      40.465   3.860  12.155  1.00  0.00    -0.202 N 
ATOM      5  H2  UNL     1      40.350   4.439  12.986  1.00  0.00     0.179 HD
BRANCH   4   6
HETATM    6  C3  UNL     1      40.687   4.506  10.917  1.00  0.00     0.697 A 
HETATM    7  N3  UNL     1      41.592   3.959  10.065  1.00  0.00    -0.152 N 
HETATM    8  C4  UNL     1      41.855   4.526   8.879  1.00  0.00     0.306 A 
ATOM      9  H3  UNL     1      42.079   3.103  10.331  1.00  0.00     0.188 HD
HETATM   10  O1  UNL     1      42.690   4.047   8.061  1.00  0.00    -0.263 OA
HETATM   11  C5  UNL     1      41.211   5.683   8.493  1.00  0.00     0.210 A 
HETATM   12  N5  UNL     1      40.322   6.211   9.342  1.00  0.00    -0.265 N 
HETATM   13  N6  UNL     1      40.083   5.623  10.513  1.00  0.00    -0.130 N 
ATOM     14  H5  UNL     1      39.826   7.066   9.091  1.00  0.00     0.189 HD
ATOM     15  H6  UNL     1      39.399   6.053  11.136  1.00  0.00     0.205 HD
BRANCH  11  16
HETATM   16  N4  UNL     1      41.416   6.274   7.374  1.00  0.00    -0.247 N 
ATOM     17  H4  UNL     1      40.667   6.347   6.686  1.00  0.00     0.196 HD
BRANCH  16  18
HETATM   18  O2  UNL     1      42.669   6.817   7.106  1.00  0.00    -0.288 OA
ATOM     19  H2  UNL     1      42.731   7.689   6.734  1.00  0.00     0.244 HD
ENDBRANCH  16  18
ENDBRANCH  11  16
ENDBRANCH   4   6
ENDBRANCH   3   4
BRANCH   3  20
HETATM   20  C6  UNL     1      39.043   1.981  12.736  1.00  0.00     0.099 A 
HETATM   21  C7  UNL     1      38.789   0.726  13.198  1.00  0.00     0.085 A 
HETATM   22  C8  UNL     1      37.508   0.385  13.580  1.00  0.00     0.114 A 
HETATM   23  N10 UNL     1      36.559   1.330  13.472  1.00  0.00    -0.288 N 
HETATM   24  C12 UNL     1      36.832   2.548  13.018  1.00  0.00     0.371 A 
ATOM     25  H10 UNL     1      35.602   1.105  13.745  1.00  0.00     0.172 HD
HETATM   26  O3  UNL     1      35.974   3.463  12.902  1.00  0.00    -0.238 OA
HETATM   27  O4  UNL     1      38.057   2.840  12.665  1.00  0.00    -0.262 OA
BRANCH  22  28
HETATM   28  N7  UNL     1      37.203  -0.929  14.071  1.00  0.00    -0.314 N 
ATOM     29  H7  UNL     1      37.378  -1.152  15.051  1.00  0.00     0.170 HD
BRANCH  28  30
HETATM   30  C9  UNL     1      36.663  -1.923  13.214  1.00  0.00     0.176 C 
HETATM   31  N8  UNL     1      35.749  -2.786  13.552  1.00  0.00    -0.361 N 
HETATM   32  C10 UNL     1      35.422  -3.657  12.441  1.00  0.00     0.142 C 
ATOM     33  H8  UNL     1      35.320  -2.842  14.476  1.00  0.00     0.162 HD
HETATM   34  C11 UNL     1      35.947  -2.885  11.263  1.00  0.00     0.142 C 
HETATM   35  N9  UNL     1      37.033  -2.129  11.857  1.00  0.00    -0.361 N 
ATOM     36  H9  UNL     1      37.886  -1.812  11.396  1.00  0.00     0.162 HD
ENDBRANCH  28  30
ENDBRANCH  22  28
ENDBRANCH   3  20
TORSDOF 7
ENDMDL
