MODEL 1
REMARK VINA RESULT: -7.662012731      0.000      0.000
REMARK  10 active torsions:
REMARK  status: ('A' for Active; 'I' for Inactive)
REMARK    1  A    between atoms: C2_2  and  C4_4 
REMARK    2  A    between atoms: C6_6  and  N2_9 
REMARK       I    between atoms: N2_9  and  C8_11 
REMARK    3  A    between atoms: C8_11  and  C9_13 
REMARK    4  A    between atoms: C9_13  and  N3_14 
REMARK    5  A    between atoms: C9_13  and  C22_36 
REMARK       I    between atoms: N3_14  and  C10_16 
REMARK       I    between atoms: C10_16  and  N4_18 
REMARK    6  A    between atoms: N4_18  and  C11_20 
REMARK    7  A    between atoms: C11_20  and  C14_23 
REMARK    8  A    between atoms: C14_23  and  C15_24 
REMARK    9  A    between atoms: C14_23  and  C16_27 
REMARK   10  A    between atoms: C14_23  and  C21_32 
ROOT
HETATM    1  C4  UNL     1      14.915 -14.539  18.750  1.00  0.00     0.035 A 
HETATM    2  C5  UNL     1      13.413 -14.896  18.891  1.00  0.00     0.055 A 
HETATM    3  C6  UNL     1      14.391 -14.908  20.044  1.00  0.00     0.126 A 
HETATM    4  C7  UNL     1      14.196 -13.858  21.079  1.00  0.00     0.091 C 
HETATM    5  N1  UNL     1      14.042 -13.056  21.905  1.00  0.00    -0.195 NA
ENDROOT
BRANCH   3   6
HETATM    6  N2  UNL     1      14.827 -16.155  20.605  1.00  0.00    -0.337 N 
HETATM    7  C8  UNL     1      14.010 -17.113  21.209  1.00  0.00     0.242 C 
HETATM    8  O1  UNL     1      12.768 -17.050  21.359  1.00  0.00    -0.271 OA
ATOM      9  H2  UNL     1      15.825 -16.360  20.559  1.00  0.00     0.164 HD
BRANCH   7  10
HETATM   10  C9  UNL     1      14.664 -18.373  21.753  1.00  0.00     0.182 C 
BRANCH  10  11
HETATM   11  N3  UNL     1      15.428 -18.103  22.942  1.00  0.00    -0.329 N 
HETATM   12  C10 UNL     1      16.863 -17.922  22.882  1.00  0.00     0.317 C 
HETATM   13  O2  UNL     1      17.365 -18.018  21.742  1.00  0.00    -0.247 OA
HETATM   14  N4  UNL     1      17.564 -17.664  24.045  1.00  0.00    -0.333 N 
ATOM     15  H4  UNL     1      16.985 -17.668  24.884  1.00  0.00     0.165 HD
ATOM     16  H3  UNL     1      14.952 -18.039  23.841  1.00  0.00     0.165 HD
BRANCH  14  17
HETATM   17  C11 UNL     1      18.955 -17.389  24.300  1.00  0.00     0.053 C 
HETATM   18  C12 UNL     1      19.006 -17.447  25.871  1.00  0.00     0.039 C 
HETATM   19  C13 UNL     1      19.731 -18.571  23.862  1.00  0.00     0.039 C 
BRANCH  17  20
HETATM   20  C14 UNL     1      19.452 -16.031  23.888  1.00  0.00     0.177 C 
BRANCH  20  21
HETATM   21  C15 UNL     1      18.189 -15.148  23.779  1.00  0.00     0.319 C 
HETATM   22  O3  UNL     1      17.723 -14.796  22.722  1.00  0.00    -0.259 OA
HETATM   23  F1  UNL     1      17.526 -14.715  24.867  1.00  0.00    -0.163 F 
ENDBRANCH  20  21
BRANCH  20  24
HETATM   24  C16 UNL     1      20.184 -15.393  25.019  1.00  0.00     0.016 C 
HETATM   25  C17 UNL     1      20.171 -13.871  25.041  1.00  0.00     0.006 C 
HETATM   26  C18 UNL     1      20.940 -13.670  26.344  1.00  0.00     0.000 C 
HETATM   27  C19 UNL     1      21.765 -14.687  26.510  1.00  0.00     0.000 C 
HETATM   28  C20 UNL     1      21.588 -15.637  25.314  1.00  0.00     0.006 C 
ENDBRANCH  20  24
BRANCH  20  29
HETATM   29  C21 UNL     1      20.084 -15.889  22.570  1.00  0.00     0.407 C 
HETATM   30  F2  UNL     1      19.416 -16.274  21.468  1.00  0.00    -0.170 F 
HETATM   31  F3  UNL     1      21.356 -16.546  22.617  1.00  0.00    -0.170 F 
HETATM   32  F4  UNL     1      20.549 -14.574  22.352  1.00  0.00    -0.170 F 
ENDBRANCH  20  29
ENDBRANCH  17  20
ENDBRANCH  14  17
ENDBRANCH  10  11
BRANCH  10  33
HETATM   33  C22 UNL     1      13.523 -19.350  22.028  1.00  0.00     0.018 A 
HETATM   34  C23 UNL     1      13.920 -20.603  22.728  1.00  0.00     0.007 A 
HETATM   35  C24 UNL     1      13.417 -20.608  21.271  1.00  0.00     0.007 A 
ENDBRANCH  10  33
ENDBRANCH   7  10
ENDBRANCH   3   6
BRANCH   1  36
HETATM   36  C2  UNL     1      15.177 -13.231  18.146  1.00  0.00    -0.015 C 
HETATM   37  C1  UNL     1      16.530 -12.746  18.698  1.00  0.00     0.010 C 
HETATM   38  C3  UNL     1      15.269 -13.113  16.677  1.00  0.00     0.010 C 
ENDBRANCH   1  36
TORSDOF 10
ENDMDL
MODEL 2
REMARK VINA RESULT: -7.564974042      1.428      2.521
REMARK  10 active torsions:
REMARK  status: ('A' for Active; 'I' for Inactive)
REMARK    1  A    between atoms: C2_2  and  C4_4 
REMARK    2  A    between atoms: C6_6  and  N2_9 
REMARK       I    between atoms: N2_9  and  C8_11 
REMARK    3  A    between atoms: C8_11  and  C9_13 
REMARK    4  A    between atoms: C9_13  and  N3_14 
REMARK    5  A    between atoms: C9_13  and  C22_36 
REMARK       I    between atoms: N3_14  and  C10_16 
REMARK       I    between atoms: C10_16  and  N4_18 
REMARK    6  A    between atoms: N4_18  and  C11_20 
REMARK    7  A    between atoms: C11_20  and  C14_23 
REMARK    8  A    between atoms: C14_23  and  C15_24 
REMARK    9  A    between atoms: C14_23  and  C16_27 
REMARK   10  A    between atoms: C14_23  and  C21_32 
ROOT
HETATM    1  C4  UNL     1      14.937 -14.527  18.673  1.00  0.00     0.035 A 
HETATM    2  C5  UNL     1      13.447 -14.885  18.909  1.00  0.00     0.055 A 
HETATM    3  C6  UNL     1      14.498 -14.907  19.996  1.00  0.00     0.126 A 
HETATM    4  C7  UNL     1      14.372 -13.865  21.050  1.00  0.00     0.091 C 
HETATM    5  N1  UNL     1      14.273 -13.071  21.891  1.00  0.00    -0.195 NA
ENDROOT
BRANCH   3   6
HETATM    6  N2  UNL     1      14.969 -16.158  20.517  1.00  0.00    -0.337 N 
HETATM    7  C8  UNL     1      14.254 -17.021  21.351  1.00  0.00     0.242 C 
HETATM    8  O1  UNL     1      13.089 -16.851  21.780  1.00  0.00    -0.271 OA
ATOM      9  H2  UNL     1      15.912 -16.444  20.254  1.00  0.00     0.164 HD
BRANCH   7  10
HETATM   10  C9  UNL     1      14.930 -18.304  21.806  1.00  0.00     0.182 C 
BRANCH  10  11
HETATM   11  N3  UNL     1      15.793 -18.077  22.934  1.00  0.00    -0.329 N 
HETATM   12  C10 UNL     1      17.212 -17.856  22.757  1.00  0.00     0.317 C 
HETATM   13  O2  UNL     1      17.611 -17.879  21.574  1.00  0.00    -0.247 OA
HETATM   14  N4  UNL     1      18.009 -17.641  23.866  1.00  0.00    -0.333 N 
ATOM     15  H4  UNL     1      17.509 -17.704  24.752  1.00  0.00     0.165 HD
ATOM     16  H3  UNL     1      15.398 -18.073  23.875  1.00  0.00     0.165 HD
BRANCH  14  17
HETATM   17  C11 UNL     1      19.412 -17.345  24.012  1.00  0.00     0.053 C 
HETATM   18  C12 UNL     1      19.728 -17.988  25.411  1.00  0.00     0.039 C 
HETATM   19  C13 UNL     1      20.149 -18.188  23.044  1.00  0.00     0.039 C 
BRANCH  17  20
HETATM   20  C14 UNL     1      19.779 -15.889  24.097  1.00  0.00     0.177 C 
BRANCH  20  21
HETATM   21  C15 UNL     1      21.308 -15.865  24.325  1.00  0.00     0.319 C 
HETATM   22  O3  UNL     1      22.091 -16.409  23.586  1.00  0.00    -0.259 OA
HETATM   23  F1  UNL     1      21.861 -15.226  25.373  1.00  0.00    -0.163 F 
ENDBRANCH  20  21
BRANCH  20  24
HETATM   24  C16 UNL     1      19.652 -15.254  22.755  1.00  0.00     0.016 C 
HETATM   25  C17 UNL     1      20.764 -14.287  22.372  1.00  0.00     0.006 C 
HETATM   26  C18 UNL     1      20.281 -13.952  20.963  1.00  0.00     0.000 C 
HETATM   27  C19 UNL     1      18.966 -14.063  20.930  1.00  0.00     0.000 C 
HETATM   28  C20 UNL     1      18.493 -14.484  22.331  1.00  0.00     0.006 C 
ENDBRANCH  20  24
BRANCH  20  29
HETATM   29  C21 UNL     1      19.253 -15.101  25.218  1.00  0.00     0.407 C 
HETATM   30  F2  UNL     1      19.384 -15.562  26.474  1.00  0.00    -0.170 F 
HETATM   31  F3  UNL     1      17.875 -14.816  24.950  1.00  0.00    -0.170 F 
HETATM   32  F4  UNL     1      19.736 -13.775  25.197  1.00  0.00    -0.170 F 
ENDBRANCH  20  29
ENDBRANCH  17  20
ENDBRANCH  14  17
ENDBRANCH  10  11
BRANCH  10  33
HETATM   33  C22 UNL     1      13.801 -19.273  22.146  1.00  0.00     0.018 A 
HETATM   34  C23 UNL     1      14.144 -20.312  23.156  1.00  0.00     0.007 A 
HETATM   35  C24 UNL     1      13.849 -20.670  21.686  1.00  0.00     0.007 A 
ENDBRANCH  10  33
ENDBRANCH   7  10
ENDBRANCH   3   6
BRANCH   1  36
HETATM   36  C2  UNL     1      15.161 -13.213  18.065  1.00  0.00    -0.015 C 
HETATM   37  C1  UNL     1      16.527 -12.713  18.570  1.00  0.00     0.010 C 
HETATM   38  C3  UNL     1      15.198 -13.090  16.594  1.00  0.00     0.010 C 
ENDBRANCH   1  36
TORSDOF 10
ENDMDL
MODEL 3
REMARK VINA RESULT: -7.378795405      2.057      3.339
REMARK  10 active torsions:
REMARK  status: ('A' for Active; 'I' for Inactive)
REMARK    1  A    between atoms: C2_2  and  C4_4 
REMARK    2  A    between atoms: C6_6  and  N2_9 
REMARK       I    between atoms: N2_9  and  C8_11 
REMARK    3  A    between atoms: C8_11  and  C9_13 
REMARK    4  A    between atoms: C9_13  and  N3_14 
REMARK    5  A    between atoms: C9_13  and  C22_36 
REMARK       I    between atoms: N3_14  and  C10_16 
REMARK       I    between atoms: C10_16  and  N4_18 
REMARK    6  A    between atoms: N4_18  and  C11_20 
REMARK    7  A    between atoms: C11_20  and  C14_23 
REMARK    8  A    between atoms: C14_23  and  C15_24 
REMARK    9  A    between atoms: C14_23  and  C16_27 
REMARK   10  A    between atoms: C14_23  and  C21_32 
ROOT
HETATM    1  C4  UNL     1      13.900 -13.426  21.631  1.00  0.00     0.035 A 
HETATM    2  C5  UNL     1      14.910 -13.559  20.463  1.00  0.00     0.055 A 
HETATM    3  C6  UNL     1      13.965 -14.661  20.886  1.00  0.00     0.126 A 
HETATM    4  C7  UNL     1      12.877 -14.994  19.929  1.00  0.00     0.091 C 
HETATM    5  N1  UNL     1      12.036 -15.278  19.180  1.00  0.00    -0.195 NA
ENDROOT
BRANCH   3   6
HETATM    6  N2  UNL     1      14.468 -15.820  21.566  1.00  0.00    -0.337 N 
HETATM    7  C8  UNL     1      15.161 -16.881  20.978  1.00  0.00     0.242 C 
HETATM    8  O1  UNL     1      15.461 -16.997  19.767  1.00  0.00    -0.271 OA
ATOM      9  H2  UNL     1      14.305 -15.875  22.571  1.00  0.00     0.164 HD
BRANCH   7  10
HETATM   10  C9  UNL     1      15.609 -18.028  21.868  1.00  0.00     0.182 C 
BRANCH  10  11
HETATM   11  N3  UNL     1      16.442 -17.568  22.947  1.00  0.00    -0.329 N 
HETATM   12  C10 UNL     1      17.876 -17.456  22.789  1.00  0.00     0.317 C 
HETATM   13  O2  UNL     1      18.315 -17.784  21.667  1.00  0.00    -0.247 OA
HETATM   14  N4  UNL     1      18.643 -17.009  23.849  1.00  0.00    -0.333 N 
ATOM     15  H4  UNL     1      18.108 -16.833  24.699  1.00  0.00     0.165 HD
ATOM     16  H3  UNL     1      16.014 -17.317  23.839  1.00  0.00     0.165 HD
BRANCH  14  17
HETATM   17  C11 UNL     1      20.053 -16.744  23.984  1.00  0.00     0.053 C 
HETATM   18  C12 UNL     1      20.380 -17.456  25.347  1.00  0.00     0.039 C 
HETATM   19  C13 UNL     1      20.759 -17.554  22.966  1.00  0.00     0.039 C 
BRANCH  17  20
HETATM   20  C14 UNL     1      20.448 -15.301  24.129  1.00  0.00     0.177 C 
BRANCH  20  21
HETATM   21  C15 UNL     1      21.991 -15.286  24.036  1.00  0.00     0.319 C 
HETATM   22  O3  UNL     1      22.608 -14.396  23.504  1.00  0.00    -0.259 OA
HETATM   23  F1  UNL     1      22.745 -16.276  24.550  1.00  0.00    -0.163 F 
ENDBRANCH  20  21
BRANCH  20  24
HETATM   24  C16 UNL     1      20.053 -14.540  22.909  1.00  0.00     0.016 C 
HETATM   25  C17 UNL     1      18.578 -14.184  22.799  1.00  0.00     0.006 C 
HETATM   26  C18 UNL     1      18.646 -13.389  21.498  1.00  0.00     0.000 C 
HETATM   27  C19 UNL     1      19.642 -13.857  20.768  1.00  0.00     0.000 C 
HETATM   28  C20 UNL     1      20.302 -15.003  21.552  1.00  0.00     0.006 C 
ENDBRANCH  20  24
BRANCH  20  29
HETATM   29  C21 UNL     1      20.176 -14.626  25.405  1.00  0.00     0.407 C 
HETATM   30  F2  UNL     1      19.017 -14.859  26.045  1.00  0.00    -0.170 F 
HETATM   31  F3  UNL     1      20.341 -13.217  25.204  1.00  0.00    -0.170 F 
HETATM   32  F4  UNL     1      21.223 -14.817  26.331  1.00  0.00    -0.170 F 
ENDBRANCH  20  29
ENDBRANCH  17  20
ENDBRANCH  14  17
ENDBRANCH  10  11
BRANCH  10  33
HETATM   33  C22 UNL     1      14.329 -18.681  22.384  1.00  0.00     0.018 A 
HETATM   34  C23 UNL     1      14.529 -19.940  23.154  1.00  0.00     0.007 A 
HETATM   35  C24 UNL     1      13.829 -19.927  21.781  1.00  0.00     0.007 A 
ENDBRANCH  10  33
ENDBRANCH   7  10
ENDBRANCH   3   6
BRANCH   1  36
HETATM   36  C2  UNL     1      12.996 -12.277  21.529  1.00  0.00    -0.015 C 
HETATM   37  C1  UNL     1      11.819 -12.548  22.484  1.00  0.00     0.010 C 
HETATM   38  C3  UNL     1      13.495 -10.929  21.865  1.00  0.00     0.010 C 
ENDBRANCH   1  36
TORSDOF 10
ENDMDL
MODEL 4
REMARK VINA RESULT: -7.377099612      2.505      6.994
REMARK  10 active torsions:
REMARK  status: ('A' for Active; 'I' for Inactive)
REMARK    1  A    between atoms: C2_2  and  C4_4 
REMARK    2  A    between atoms: C6_6  and  N2_9 
REMARK       I    between atoms: N2_9  and  C8_11 
REMARK    3  A    between atoms: C8_11  and  C9_13 
REMARK    4  A    between atoms: C9_13  and  N3_14 
REMARK    5  A    between atoms: C9_13  and  C22_36 
REMARK       I    between atoms: N3_14  and  C10_16 
REMARK       I    between atoms: C10_16  and  N4_18 
REMARK    6  A    between atoms: N4_18  and  C11_20 
REMARK    7  A    between atoms: C11_20  and  C14_23 
REMARK    8  A    between atoms: C14_23  and  C15_24 
REMARK    9  A    between atoms: C14_23  and  C16_27 
REMARK   10  A    between atoms: C14_23  and  C21_32 
ROOT
HETATM    1  C4  UNL     1      18.820 -15.851  25.053  1.00  0.00     0.035 A 
HETATM    2  C5  UNL     1      18.389 -16.892  26.117  1.00  0.00     0.055 A 
HETATM    3  C6  UNL     1      18.447 -17.181  24.634  1.00  0.00     0.126 A 
HETATM    4  C7  UNL     1      19.503 -18.130  24.192  1.00  0.00     0.091 C 
HETATM    5  N1  UNL     1      20.310 -18.886  23.837  1.00  0.00    -0.195 NA
ENDROOT
BRANCH   3   6
HETATM    6  N2  UNL     1      17.234 -17.323  23.880  1.00  0.00    -0.337 N 
HETATM    7  C8  UNL     1      16.357 -18.409  23.934  1.00  0.00     0.242 C 
HETATM    8  O1  UNL     1      16.477 -19.433  24.646  1.00  0.00    -0.271 OA
ATOM      9  H2  UNL     1      16.990 -16.562  23.247  1.00  0.00     0.164 HD
BRANCH   7  10
HETATM   10  C9  UNL     1      15.122 -18.378  23.049  1.00  0.00     0.182 C 
BRANCH  10  11
HETATM   11  N3  UNL     1      15.352 -17.629  21.843  1.00  0.00    -0.329 N 
HETATM   12  C10 UNL     1      14.410 -16.625  21.396  1.00  0.00     0.317 C 
HETATM   13  O2  UNL     1      13.408 -16.472  22.127  1.00  0.00    -0.247 OA
HETATM   14  N4  UNL     1      14.665 -15.924  20.232  1.00  0.00    -0.333 N 
ATOM     15  H4  UNL     1      15.512 -16.223  19.749  1.00  0.00     0.165 HD
ATOM     16  H3  UNL     1      16.193 -17.807  21.294  1.00  0.00     0.165 HD
BRANCH  14  17
HETATM   17  C11 UNL     1      13.966 -14.853  19.570  1.00  0.00     0.053 C 
HETATM   18  C12 UNL     1      14.466 -15.016  18.088  1.00  0.00     0.039 C 
HETATM   19  C13 UNL     1      12.533 -15.218  19.519  1.00  0.00     0.039 C 
BRANCH  17  20
HETATM   20  C14 UNL     1      14.319 -13.458  20.007  1.00  0.00     0.177 C 
BRANCH  20  21
HETATM   21  C15 UNL     1      14.358 -12.619  18.710  1.00  0.00     0.319 C 
HETATM   22  O3  UNL     1      13.424 -11.954  18.329  1.00  0.00    -0.259 OA
HETATM   23  F1  UNL     1      15.447 -12.578  17.919  1.00  0.00    -0.163 F 
ENDBRANCH  20  21
BRANCH  20  24
HETATM   24  C16 UNL     1      13.172 -12.849  20.740  1.00  0.00     0.016 C 
HETATM   25  C17 UNL     1      13.277 -11.355  21.010  1.00  0.00     0.006 C 
HETATM   26  C18 UNL     1      11.919 -11.164  21.681  1.00  0.00     0.000 C 
HETATM   27  C19 UNL     1      11.582 -12.290  22.281  1.00  0.00     0.000 C 
HETATM   28  C20 UNL     1      12.707 -13.308  22.040  1.00  0.00     0.006 C 
ENDBRANCH  20  24
BRANCH  20  29
HETATM   29  C21 UNL     1      15.640 -13.225  20.604  1.00  0.00     0.407 C 
HETATM   30  F2  UNL     1      15.829 -13.465  21.913  1.00  0.00    -0.170 F 
HETATM   31  F3  UNL     1      16.033 -11.881  20.299  1.00  0.00    -0.170 F 
HETATM   32  F4  UNL     1      16.659 -13.894  19.894  1.00  0.00    -0.170 F 
ENDBRANCH  20  29
ENDBRANCH  17  20
ENDBRANCH  14  17
ENDBRANCH  10  11
BRANCH  10  33
HETATM   33  C22 UNL     1      14.786 -19.838  22.749  1.00  0.00     0.018 A 
HETATM   34  C23 UNL     1      14.932 -20.238  21.322  1.00  0.00     0.007 A 
HETATM   35  C24 UNL     1      13.558 -20.188  22.019  1.00  0.00     0.007 A 
ENDBRANCH  10  33
ENDBRANCH   7  10
ENDBRANCH   3   6
BRANCH   1  36
HETATM   36  C2  UNL     1      20.130 -15.240  25.293  1.00  0.00    -0.015 C 
HETATM   37  C1  UNL     1      20.537 -14.530  23.988  1.00  0.00     0.010 C 
HETATM   38  C3  UNL     1      20.279 -14.239  26.367  1.00  0.00     0.010 C 
ENDBRANCH   1  36
TORSDOF 10
ENDMDL
MODEL 5
REMARK VINA RESULT: -7.355672221      2.138      3.449
REMARK  10 active torsions:
REMARK  status: ('A' for Active; 'I' for Inactive)
REMARK    1  A    between atoms: C2_2  and  C4_4 
REMARK    2  A    between atoms: C6_6  and  N2_9 
REMARK       I    between atoms: N2_9  and  C8_11 
REMARK    3  A    between atoms: C8_11  and  C9_13 
REMARK    4  A    between atoms: C9_13  and  N3_14 
REMARK    5  A    between atoms: C9_13  and  C22_36 
REMARK       I    between atoms: N3_14  and  C10_16 
REMARK       I    between atoms: C10_16  and  N4_18 
REMARK    6  A    between atoms: N4_18  and  C11_20 
REMARK    7  A    between atoms: C11_20  and  C14_23 
REMARK    8  A    between atoms: C14_23  and  C15_24 
REMARK    9  A    between atoms: C14_23  and  C16_27 
REMARK   10  A    between atoms: C14_23  and  C21_32 
ROOT
HETATM    1  C4  UNL     1      14.165 -12.189  21.340  1.00  0.00     0.035 A 
HETATM    2  C5  UNL     1      15.668 -12.039  20.988  1.00  0.00     0.055 A 
HETATM    3  C6  UNL     1      14.723 -12.970  20.261  1.00  0.00     0.126 A 
HETATM    4  C7  UNL     1      14.399 -12.608  18.856  1.00  0.00     0.091 C 
HETATM    5  N1  UNL     1      14.155 -12.348  17.750  1.00  0.00    -0.195 NA
ENDROOT
BRANCH   3   6
HETATM    6  N2  UNL     1      14.822 -14.388  20.451  1.00  0.00    -0.337 N 
HETATM    7  C8  UNL     1      13.760 -15.258  20.706  1.00  0.00     0.242 C 
HETATM    8  O1  UNL     1      12.550 -14.951  20.808  1.00  0.00    -0.271 OA
ATOM      9  H2  UNL     1      15.754 -14.799  20.396  1.00  0.00     0.164 HD
BRANCH   7  10
HETATM   10  C9  UNL     1      14.069 -16.736  20.887  1.00  0.00     0.182 C 
BRANCH  10  11
HETATM   11  N3  UNL     1      14.884 -16.969  22.049  1.00  0.00    -0.329 N 
HETATM   12  C10 UNL     1      16.326 -17.047  21.946  1.00  0.00     0.317 C 
HETATM   13  O2  UNL     1      16.787 -16.900  20.795  1.00  0.00    -0.247 OA
HETATM   14  N4  UNL     1      17.076 -17.272  23.086  1.00  0.00    -0.333 N 
ATOM     15  H4  UNL     1      16.516 -17.412  23.926  1.00  0.00     0.165 HD
ATOM     16  H3  UNL     1      14.439 -17.081  22.960  1.00  0.00     0.165 HD
BRANCH  14  17
HETATM   17  C11 UNL     1      18.497 -17.347  23.314  1.00  0.00     0.053 C 
HETATM   18  C12 UNL     1      18.564 -18.253  24.597  1.00  0.00     0.039 C 
HETATM   19  C13 UNL     1      19.079 -18.182  22.241  1.00  0.00     0.039 C 
BRANCH  17  20
HETATM   20  C14 UNL     1      19.186 -16.052  23.647  1.00  0.00     0.177 C 
BRANCH  20  21
HETATM   21  C15 UNL     1      20.658 -16.431  23.926  1.00  0.00     0.319 C 
HETATM   22  O3  UNL     1      21.402 -16.849  23.072  1.00  0.00    -0.259 OA
HETATM   23  F1  UNL     1      21.204 -16.315  25.152  1.00  0.00    -0.163 F 
ENDBRANCH  20  21
BRANCH  20  24
HETATM   24  C16 UNL     1      19.305 -15.210  22.423  1.00  0.00     0.016 C 
HETATM   25  C17 UNL     1      20.618 -14.457  22.264  1.00  0.00     0.006 C 
HETATM   26  C18 UNL     1      20.335 -13.819  20.905  1.00  0.00     0.000 C 
HETATM   27  C19 UNL     1      19.032 -13.640  20.786  1.00  0.00     0.000 C 
HETATM   28  C20 UNL     1      18.366 -14.156  22.072  1.00  0.00     0.006 C 
ENDBRANCH  20  24
BRANCH  20  29
HETATM   29  C21 UNL     1      18.780 -15.338  24.865  1.00  0.00     0.407 C 
HETATM   30  F2  UNL     1      18.727 -15.997  26.035  1.00  0.00    -0.170 F 
HETATM   31  F3  UNL     1      17.519 -14.708  24.608  1.00  0.00    -0.170 F 
HETATM   32  F4  UNL     1      19.546 -14.170  25.065  1.00  0.00    -0.170 F 
ENDBRANCH  20  29
ENDBRANCH  17  20
ENDBRANCH  14  17
ENDBRANCH  10  11
BRANCH  10  33
HETATM   33  C22 UNL     1      12.716 -17.435  20.999  1.00  0.00     0.018 A 
HETATM   34  C23 UNL     1      12.774 -18.923  21.004  1.00  0.00     0.007 A 
HETATM   35  C24 UNL     1      12.138 -18.136  19.841  1.00  0.00     0.007 A 
ENDBRANCH  10  33
ENDBRANCH   7  10
ENDBRANCH   3   6
BRANCH   1  36
HETATM   36  C2  UNL     1      13.410 -10.934  21.341  1.00  0.00    -0.015 C 
HETATM   37  C1  UNL     1      12.016 -11.250  20.770  1.00  0.00     0.010 C 
HETATM   38  C3  UNL     1      13.179 -10.225  22.615  1.00  0.00     0.010 C 
ENDBRANCH   1  36
TORSDOF 10
ENDMDL
