MODEL 1
REMARK VINA RESULT: -7.209707455      0.000      0.000
REMARK  8 active torsions:
REMARK  status: ('A' for Active; 'I' for Inactive)
REMARK    1  A    between atoms: C2_2  and  C3_3 
REMARK    2  A    between atoms: C3_3  and  C4_4 
REMARK    3  A    between atoms: C4_4  and  C5_5 
REMARK    4  A    between atoms: C5_5  and  N1_6 
REMARK    5  A    between atoms: C7_11  and  N3_12 
REMARK    6  A    between atoms: N3_12  and  C8_14 
REMARK    7  A    between atoms: C8_14  and  C9_15 
REMARK    8  A    between atoms: C9_15  and  O1_16 
ROOT
HETATM    1  N1  UNL     1      33.600  43.152  -7.740  1.00  0.00    -0.375 N 
ATOM      2  H1  UNL     1      33.499  44.072  -7.311  1.00  0.00     0.161 HD
HETATM    3  C6  UNL     1      34.356  42.430  -7.067  1.00  0.00     0.124 A 
HETATM    4  N2  UNL     1      34.883  42.996  -5.929  1.00  0.00    -0.176 N 
ATOM      5  H2  UNL     1      34.628  43.958  -5.705  1.00  0.00     0.186 HD
HETATM    6  C7  UNL     1      35.708  42.354  -5.103  1.00  0.00     0.679 A 
HETATM    7  N4  UNL     1      36.033  41.086  -5.413  1.00  0.00    -0.195 N 
ATOM      8  H4  UNL     1      36.663  40.572  -4.796  1.00  0.00     0.184 HD
HETATM    9  C10 UNL     1      35.554  40.476  -6.509  1.00  0.00     0.032 A 
HETATM   10  C11 UNL     1      35.935  39.066  -6.825  1.00  0.00     0.069 C 
HETATM   11  C12 UNL     1      34.692  41.138  -7.377  1.00  0.00     0.005 A 
HETATM   12  C13 UNL     1      34.174  40.428  -8.596  1.00  0.00     0.054 C 
ENDROOT
BRANCH   1  13
HETATM   13  C5  UNL     1      32.851  43.065  -8.911  1.00  0.00     0.121 C 
BRANCH  13  14
HETATM   14  C4  UNL     1      33.511  43.795 -10.093  1.00  0.00     0.020 C 
BRANCH  14  15
HETATM   15  C3  UNL     1      33.418  42.989 -11.362  1.00  0.00     0.001 C 
BRANCH  15  16
HETATM   16  C2  UNL     1      33.151  43.818 -12.591  1.00  0.00    -0.004 C 
HETATM   17  C1  UNL     1      33.639  45.246 -12.410  1.00  0.00     0.005 C 
ENDBRANCH  15  16
ENDBRANCH  14  15
ENDBRANCH  13  14
ENDBRANCH   1  13
BRANCH   6  18
HETATM   18  N3  UNL     1      36.196  42.901  -4.032  1.00  0.00    -0.224 N 
ATOM     19  H3  UNL     1      36.144  43.914  -3.930  1.00  0.00     0.177 HD
BRANCH  18  20
HETATM   20  C8  UNL     1      36.809  42.127  -2.981  1.00  0.00     0.164 C 
BRANCH  20  21
HETATM   21  C9  UNL     1      36.060  42.385  -1.695  1.00  0.00     0.184 C 
BRANCH  21  22
HETATM   22  O1  UNL     1      34.753  41.885  -1.813  1.00  0.00    -0.399 OA
ATOM     23  H1  UNL     1      34.350  41.858  -0.953  1.00  0.00     0.209 HD
ENDBRANCH  21  22
ENDBRANCH  20  21
ENDBRANCH  18  20
ENDBRANCH   6  18
TORSDOF 8
ENDMDL
MODEL 2
REMARK VINA RESULT: -7.010704724      1.149      1.149
REMARK  8 active torsions:
REMARK  status: ('A' for Active; 'I' for Inactive)
REMARK    1  A    between atoms: C2_2  and  C3_3 
REMARK    2  A    between atoms: C3_3  and  C4_4 
REMARK    3  A    between atoms: C4_4  and  C5_5 
REMARK    4  A    between atoms: C5_5  and  N1_6 
REMARK    5  A    between atoms: C7_11  and  N3_12 
REMARK    6  A    between atoms: N3_12  and  C8_14 
REMARK    7  A    between atoms: C8_14  and  C9_15 
REMARK    8  A    between atoms: C9_15  and  O1_16 
ROOT
HETATM    1  N1  UNL     1      33.455  43.030  -7.775  1.00  0.00    -0.375 N 
ATOM      2  H1  UNL     1      33.312  43.886  -7.239  1.00  0.00     0.161 HD
HETATM    3  C6  UNL     1      34.174  42.232  -7.150  1.00  0.00     0.124 A 
HETATM    4  N2  UNL     1      34.614  42.648  -5.914  1.00  0.00    -0.176 N 
ATOM      5  H2  UNL     1      34.330  43.571  -5.586  1.00  0.00     0.186 HD
HETATM    6  C7  UNL     1      35.390  41.909  -5.123  1.00  0.00     0.679 A 
HETATM    7  N4  UNL     1      35.754  40.694  -5.571  1.00  0.00    -0.195 N 
ATOM      8  H4  UNL     1      36.348  40.108  -4.983  1.00  0.00     0.184 HD
HETATM    9  C10 UNL     1      35.361  40.229  -6.768  1.00  0.00     0.032 A 
HETATM   10  C11 UNL     1      35.783  38.874  -7.236  1.00  0.00     0.069 C 
HETATM   11  C12 UNL     1      34.550  40.993  -7.601  1.00  0.00     0.005 A 
HETATM   12  C13 UNL     1      34.127  40.444  -8.934  1.00  0.00     0.054 C 
ENDROOT
BRANCH   1  13
HETATM   13  C5  UNL     1      32.789  43.092  -8.997  1.00  0.00     0.121 C 
BRANCH  13  14
HETATM   14  C4  UNL     1      33.630  43.760 -10.098  1.00  0.00     0.020 C 
BRANCH  14  15
HETATM   15  C3  UNL     1      33.474  43.050 -11.418  1.00  0.00     0.001 C 
BRANCH  15  16
HETATM   16  C2  UNL     1      33.163  43.970 -12.570  1.00  0.00    -0.004 C 
HETATM   17  C1  UNL     1      33.644  45.385 -12.291  1.00  0.00     0.005 C 
ENDBRANCH  15  16
ENDBRANCH  14  15
ENDBRANCH  13  14
ENDBRANCH   1  13
BRANCH   6  18
HETATM   18  N3  UNL     1      35.795  42.315  -3.959  1.00  0.00    -0.224 N 
ATOM     19  H3  UNL     1      35.113  42.416  -3.209  1.00  0.00     0.177 HD
BRANCH  18  20
HETATM   20  C8  UNL     1      37.177  42.629  -3.689  1.00  0.00     0.164 C 
BRANCH  20  21
HETATM   21  C9  UNL     1      37.259  43.327  -2.353  1.00  0.00     0.184 C 
BRANCH  21  22
HETATM   22  O1  UNL     1      38.053  44.478  -2.480  1.00  0.00    -0.399 OA
ATOM     23  H1  UNL     1      38.556  44.599  -1.683  1.00  0.00     0.209 HD
ENDBRANCH  21  22
ENDBRANCH  20  21
ENDBRANCH  18  20
ENDBRANCH   6  18
TORSDOF 8
ENDMDL
MODEL 3
REMARK VINA RESULT: -6.705410483      2.645      7.205
REMARK  8 active torsions:
REMARK  status: ('A' for Active; 'I' for Inactive)
REMARK    1  A    between atoms: C2_2  and  C3_3 
REMARK    2  A    between atoms: C3_3  and  C4_4 
REMARK    3  A    between atoms: C4_4  and  C5_5 
REMARK    4  A    between atoms: C5_5  and  N1_6 
REMARK    5  A    between atoms: C7_11  and  N3_12 
REMARK    6  A    between atoms: N3_12  and  C8_14 
REMARK    7  A    between atoms: C8_14  and  C9_15 
REMARK    8  A    between atoms: C9_15  and  O1_16 
ROOT
HETATM    1  N1  UNL     1      36.607  43.285  -3.394  1.00  0.00    -0.375 N 
ATOM      2  H1  UNL     1      35.839  43.925  -3.596  1.00  0.00     0.161 HD
HETATM    3  C6  UNL     1      36.513  42.252  -4.079  1.00  0.00     0.124 A 
HETATM    4  N2  UNL     1      35.437  42.184  -4.933  1.00  0.00    -0.176 N 
ATOM      5  H2  UNL     1      34.788  42.970  -4.956  1.00  0.00     0.186 HD
HETATM    6  C7  UNL     1      35.197  41.145  -5.732  1.00  0.00     0.679 A 
HETATM    7  N4  UNL     1      36.062  40.117  -5.690  1.00  0.00    -0.195 N 
ATOM      8  H4  UNL     1      35.901  39.309  -6.293  1.00  0.00     0.184 HD
HETATM    9  C10 UNL     1      37.133  40.120  -4.878  1.00  0.00     0.032 A 
HETATM   10  C11 UNL     1      38.076  38.962  -4.856  1.00  0.00     0.069 C 
HETATM   11  C12 UNL     1      37.392  41.200  -4.041  1.00  0.00     0.005 A 
HETATM   12  C13 UNL     1      38.598  41.173  -3.145  1.00  0.00     0.054 C 
ENDROOT
BRANCH   1  13
HETATM   13  C5  UNL     1      37.460  43.819  -2.431  1.00  0.00     0.121 C 
BRANCH  13  14
HETATM   14  C4  UNL     1      36.797  43.930  -1.047  1.00  0.00     0.020 C 
BRANCH  14  15
HETATM   15  C3  UNL     1      36.103  42.650  -0.664  1.00  0.00     0.001 C 
BRANCH  15  16
HETATM   16  C2  UNL     1      36.983  41.682   0.084  1.00  0.00    -0.004 C 
HETATM   17  C1  UNL     1      37.660  42.354   1.267  1.00  0.00     0.005 C 
ENDBRANCH  15  16
ENDBRANCH  14  15
ENDBRANCH  13  14
ENDBRANCH   1  13
BRANCH   6  18
HETATM   18  N3  UNL     1      34.177  41.096  -6.533  1.00  0.00    -0.224 N 
ATOM     19  H3  UNL     1      33.241  41.033  -6.134  1.00  0.00     0.177 HD
BRANCH  18  20
HETATM   20  C8  UNL     1      34.320  41.129  -7.968  1.00  0.00     0.164 C 
BRANCH  20  21
HETATM   21  C9  UNL     1      34.215  42.563  -8.428  1.00  0.00     0.184 C 
BRANCH  21  22
HETATM   22  O1  UNL     1      35.392  43.247  -8.082  1.00  0.00    -0.399 OA
ATOM     23  H1  UNL     1      36.128  42.648  -8.131  1.00  0.00     0.209 HD
ENDBRANCH  21  22
ENDBRANCH  20  21
ENDBRANCH  18  20
ENDBRANCH   6  18
TORSDOF 8
ENDMDL
MODEL 4
REMARK VINA RESULT: -6.581969575      1.201      1.447
REMARK  8 active torsions:
REMARK  status: ('A' for Active; 'I' for Inactive)
REMARK    1  A    between atoms: C2_2  and  C3_3 
REMARK    2  A    between atoms: C3_3  and  C4_4 
REMARK    3  A    between atoms: C4_4  and  C5_5 
REMARK    4  A    between atoms: C5_5  and  N1_6 
REMARK    5  A    between atoms: C7_11  and  N3_12 
REMARK    6  A    between atoms: N3_12  and  C8_14 
REMARK    7  A    between atoms: C8_14  and  C9_15 
REMARK    8  A    between atoms: C9_15  and  O1_16 
ROOT
HETATM    1  N1  UNL     1      34.096  43.123  -9.067  1.00  0.00    -0.375 N 
ATOM      2  H1  UNL     1      34.368  44.073  -8.810  1.00  0.00     0.161 HD
HETATM    3  C6  UNL     1      34.240  42.347  -8.107  1.00  0.00     0.124 A 
HETATM    4  N2  UNL     1      34.718  42.901  -6.942  1.00  0.00    -0.176 N 
ATOM      5  H2  UNL     1      34.924  43.900  -6.932  1.00  0.00     0.186 HD
HETATM    6  C7  UNL     1      34.927  42.203  -5.827  1.00  0.00     0.679 A 
HETATM    7  N4  UNL     1      34.650  40.887  -5.858  1.00  0.00    -0.195 N 
ATOM      8  H4  UNL     1      34.801  40.330  -5.017  1.00  0.00     0.184 HD
HETATM    9  C10 UNL     1      34.181  40.284  -6.963  1.00  0.00     0.032 A 
HETATM   10  C11 UNL     1      33.883  38.820  -6.965  1.00  0.00     0.069 C 
HETATM   11  C12 UNL     1      33.960  41.005  -8.133  1.00  0.00     0.005 A 
HETATM   12  C13 UNL     1      33.435  40.301  -9.352  1.00  0.00     0.054 C 
ENDROOT
BRANCH   1  13
HETATM   13  C5  UNL     1      33.670  43.070 -10.392  1.00  0.00     0.121 C 
BRANCH  13  14
HETATM   14  C4  UNL     1      32.969  44.364 -10.842  1.00  0.00     0.020 C 
BRANCH  14  15
HETATM   15  C3  UNL     1      33.727  45.045 -11.951  1.00  0.00     0.001 C 
BRANCH  15  16
HETATM   16  C2  UNL     1      32.843  45.643 -13.014  1.00  0.00    -0.004 C 
HETATM   17  C1  UNL     1      31.422  45.114 -12.910  1.00  0.00     0.005 C 
ENDBRANCH  15  16
ENDBRANCH  14  15
ENDBRANCH  13  14
ENDBRANCH   1  13
BRANCH   6  18
HETATM   18  N3  UNL     1      35.378  42.741  -4.736  1.00  0.00    -0.224 N 
ATOM     19  H3  UNL     1      34.838  43.484  -4.294  1.00  0.00     0.177 HD
BRANCH  18  20
HETATM   20  C8  UNL     1      36.617  42.325  -4.125  1.00  0.00     0.164 C 
BRANCH  20  21
HETATM   21  C9  UNL     1      36.412  42.241  -2.632  1.00  0.00     0.184 C 
BRANCH  21  22
HETATM   22  O1  UNL     1      35.048  42.038  -2.363  1.00  0.00    -0.399 OA
ATOM     23  H1  UNL     1      34.532  42.420  -3.063  1.00  0.00     0.209 HD
ENDBRANCH  21  22
ENDBRANCH  20  21
ENDBRANCH  18  20
ENDBRANCH   6  18
TORSDOF 8
ENDMDL
MODEL 5
REMARK VINA RESULT: -6.538084693      2.527      7.159
REMARK  8 active torsions:
REMARK  status: ('A' for Active; 'I' for Inactive)
REMARK    1  A    between atoms: C2_2  and  C3_3 
REMARK    2  A    between atoms: C3_3  and  C4_4 
REMARK    3  A    between atoms: C4_4  and  C5_5 
REMARK    4  A    between atoms: C5_5  and  N1_6 
REMARK    5  A    between atoms: C7_11  and  N3_12 
REMARK    6  A    between atoms: N3_12  and  C8_14 
REMARK    7  A    between atoms: C8_14  and  C9_15 
REMARK    8  A    between atoms: C9_15  and  O1_16 
ROOT
HETATM    1  N1  UNL     1      36.236  42.939  -4.050  1.00  0.00    -0.375 N 
ATOM      2  H1  UNL     1      35.805  43.861  -3.988  1.00  0.00     0.161 HD
HETATM    3  C6  UNL     1      35.795  42.309  -5.027  1.00  0.00     0.124 A 
HETATM    4  N2  UNL     1      34.853  42.956  -5.794  1.00  0.00    -0.176 N 
ATOM      5  H2  UNL     1      34.574  43.899  -5.522  1.00  0.00     0.186 HD
HETATM    6  C7  UNL     1      34.286  42.417  -6.871  1.00  0.00     0.679 A 
HETATM    7  N4  UNL     1      34.665  41.174  -7.216  1.00  0.00    -0.195 N 
ATOM      8  H4  UNL     1      34.245  40.739  -8.038  1.00  0.00     0.184 HD
HETATM    9  C10 UNL     1      35.579  40.487  -6.510  1.00  0.00     0.032 A 
HETATM   10  C11 UNL     1      35.978  39.107  -6.920  1.00  0.00     0.069 C 
HETATM   11  C12 UNL     1      36.177  41.042  -5.384  1.00  0.00     0.005 A 
HETATM   12  C13 UNL     1      37.196  40.248  -4.616  1.00  0.00     0.054 C 
ENDROOT
BRANCH   1  13
HETATM   13  C5  UNL     1      37.150  42.747  -3.017  1.00  0.00     0.121 C 
BRANCH  13  14
HETATM   14  C4  UNL     1      37.450  44.041  -2.242  1.00  0.00     0.020 C 
BRANCH  14  15
HETATM   15  C3  UNL     1      37.533  43.790  -0.760  1.00  0.00     0.001 C 
BRANCH  15  16
HETATM   16  C2  UNL     1      36.684  42.638  -0.289  1.00  0.00    -0.004 C 
HETATM   17  C1  UNL     1      37.273  41.992   0.955  1.00  0.00     0.005 C 
ENDBRANCH  15  16
ENDBRANCH  14  15
ENDBRANCH  13  14
ENDBRANCH   1  13
BRANCH   6  18
HETATM   18  N3  UNL     1      33.399  43.042  -7.584  1.00  0.00    -0.224 N 
ATOM     19  H3  UNL     1      32.966  43.883  -7.204  1.00  0.00     0.177 HD
BRANCH  18  20
HETATM   20  C8  UNL     1      33.004  42.588  -8.895  1.00  0.00     0.164 C 
BRANCH  20  21
HETATM   21  C9  UNL     1      33.287  43.689  -9.890  1.00  0.00     0.184 C 
BRANCH  21  22
HETATM   22  O1  UNL     1      32.202  44.579  -9.915  1.00  0.00    -0.399 OA
ATOM     23  H1  UNL     1      31.736  44.529  -9.089  1.00  0.00     0.209 HD
ENDBRANCH  21  22
ENDBRANCH  20  21
ENDBRANCH  18  20
ENDBRANCH   6  18
TORSDOF 8
ENDMDL
