MODEL 1
REMARK VINA RESULT: -6.073230773      0.000      0.000
REMARK  6 active torsions:
REMARK  status: ('A' for Active; 'I' for Inactive)
REMARK    1  A    between atoms: C2_2  and  C3_3 
REMARK    2  A    between atoms: C3_3  and  N1_4 
REMARK    3  A    between atoms: C4_5  and  S1_6 
REMARK    4  A    between atoms: S1_6  and  C5_7 
REMARK    5  A    between atoms: C5_7  and  C6_8 
REMARK    6  A    between atoms: C7_11  and  N3_12 
ROOT
HETATM    1  S1  UNL     1      16.556   6.845  15.099  1.00  0.00    -0.086 SA
ENDROOT
BRANCH   1   2
HETATM    2  C4  UNL     1      17.931   6.894  13.964  1.00  0.00     0.148 A 
HETATM    3  N1  UNL     1      18.546   8.044  13.569  1.00  0.00    -0.320 N 
HETATM    4  C10 UNL     1      19.538   7.732  12.715  1.00  0.00     0.106 A 
HETATM    5  C8  UNL     1      19.557   6.358  12.563  1.00  0.00     0.042 A 
HETATM    6 BR1  UNL     1      20.698   8.994  11.879  1.00  0.00    -0.029 Br
HETATM    7  N6  UNL     1      18.558   5.878  13.343  1.00  0.00    -0.338 N 
HETATM    8  C9  UNL     1      20.506   5.610  11.702  1.00  0.00     0.071 C 
ATOM      9  H6  UNL     1      18.316   4.892  13.445  1.00  0.00     0.168 HD
BRANCH   3  10
HETATM   10  C3  UNL     1      18.183   9.371  14.002  1.00  0.00     0.131 C 
BRANCH  10  11
HETATM   11  C2  UNL     1      19.038   9.798  15.187  1.00  0.00     0.016 C 
HETATM   12  C1  UNL     1      18.222  10.050  16.412  1.00  0.00     0.006 C 
ENDBRANCH  10  11
ENDBRANCH   3  10
ENDBRANCH   1   2
BRANCH   1  13
HETATM   13  C5  UNL     1      15.414   5.511  14.585  1.00  0.00     0.160 C 
BRANCH  13  14
HETATM   14  C6  UNL     1      15.742   4.238  15.231  1.00  0.00     0.122 A 
HETATM   15  N2  UNL     1      15.114   3.701  16.290  1.00  0.00    -0.177 N 
HETATM   16  C7  UNL     1      15.672   2.528  16.624  1.00  0.00     0.691 A 
ATOM     17  H2  UNL     1      14.322   4.126  16.773  1.00  0.00     0.185 HD
HETATM   18  N4  UNL     1      16.685   2.336  15.737  1.00  0.00    -0.131 N 
HETATM   19  N5  UNL     1      16.716   3.369  14.907  1.00  0.00    -0.274 N 
ATOM     20  H4  UNL     1      17.313   1.533  15.714  1.00  0.00     0.205 HD
ATOM     21  H5  UNL     1      17.378   3.487  14.140  1.00  0.00     0.189 HD
BRANCH  16  22
HETATM   22  N3  UNL     1      15.284   1.788  17.591  1.00  0.00    -0.233 N 
ATOM     23  H32 UNL     1      14.378   1.749  18.058  1.00  0.00     0.174 HD
ATOM     24  H31 UNL     1      15.866   1.091  18.056  1.00  0.00     0.174 HD
ENDBRANCH  16  22
ENDBRANCH  13  14
ENDBRANCH   1  13
TORSDOF 6
ENDMDL
MODEL 2
REMARK VINA RESULT: -6.061789362      3.430      4.834
REMARK  6 active torsions:
REMARK  status: ('A' for Active; 'I' for Inactive)
REMARK    1  A    between atoms: C2_2  and  C3_3 
REMARK    2  A    between atoms: C3_3  and  N1_4 
REMARK    3  A    between atoms: C4_5  and  S1_6 
REMARK    4  A    between atoms: S1_6  and  C5_7 
REMARK    5  A    between atoms: C5_7  and  C6_8 
REMARK    6  A    between atoms: C7_11  and  N3_12 
ROOT
HETATM    1  S1  UNL     1      17.909   5.751  13.629  1.00  0.00    -0.086 SA
ENDROOT
BRANCH   1   2
HETATM    2  C4  UNL     1      16.895   5.312  15.028  1.00  0.00     0.148 A 
HETATM    3  N1  UNL     1      16.024   6.169  15.631  1.00  0.00    -0.320 N 
HETATM    4  C10 UNL     1      15.420   5.527  16.649  1.00  0.00     0.106 A 
HETATM    5  C8  UNL     1      15.914   4.237  16.695  1.00  0.00     0.042 A 
HETATM    6 BR1  UNL     1      14.113   6.297  17.804  1.00  0.00    -0.029 Br
HETATM    7  N6  UNL     1      16.816   4.141  15.687  1.00  0.00    -0.338 N 
HETATM    8  C9  UNL     1      15.503   3.203  17.677  1.00  0.00     0.071 C 
ATOM      9  H6  UNL     1      17.355   3.305  15.462  1.00  0.00     0.168 HD
BRANCH   3  10
HETATM   10  C3  UNL     1      15.796   7.537  15.234  1.00  0.00     0.131 C 
BRANCH  10  11
HETATM   11  C2  UNL     1      16.650   8.483  16.069  1.00  0.00     0.016 C 
HETATM   12  C1  UNL     1      17.732   9.125  15.266  1.00  0.00     0.006 C 
ENDBRANCH  10  11
ENDBRANCH   3  10
ENDBRANCH   1   2
BRANCH   1  13
HETATM   13  C5  UNL     1      16.894   5.654  12.110  1.00  0.00     0.160 C 
BRANCH  13  14
HETATM   14  C6  UNL     1      16.596   4.267  11.745  1.00  0.00     0.122 A 
HETATM   15  N2  UNL     1      16.927   3.173  12.451  1.00  0.00    -0.177 N 
HETATM   16  C7  UNL     1      16.500   2.064  11.828  1.00  0.00     0.691 A 
ATOM     17  H2  UNL     1      17.434   3.184  13.336  1.00  0.00     0.185 HD
HETATM   18  N4  UNL     1      15.882   2.493  10.695  1.00  0.00    -0.131 N 
HETATM   19  N5  UNL     1      15.946   3.816  10.657  1.00  0.00    -0.274 N 
ATOM     20  H4  UNL     1      15.443   1.897   9.993  1.00  0.00     0.205 HD
ATOM     21  H5  UNL     1      15.563   4.402   9.916  1.00  0.00     0.189 HD
BRANCH  16  22
HETATM   22  N3  UNL     1      16.671   0.875  12.264  1.00  0.00    -0.233 N 
ATOM     23  H32 UNL     1      16.801   0.545  13.220  1.00  0.00     0.174 HD
ATOM     24  H31 UNL     1      16.701   0.042  11.676  1.00  0.00     0.174 HD
ENDBRANCH  16  22
ENDBRANCH  13  14
ENDBRANCH   1  13
TORSDOF 6
ENDMDL
MODEL 3
REMARK VINA RESULT: -5.987893535      1.692      3.452
REMARK  6 active torsions:
REMARK  status: ('A' for Active; 'I' for Inactive)
REMARK    1  A    between atoms: C2_2  and  C3_3 
REMARK    2  A    between atoms: C3_3  and  N1_4 
REMARK    3  A    between atoms: C4_5  and  S1_6 
REMARK    4  A    between atoms: S1_6  and  C5_7 
REMARK    5  A    between atoms: C5_7  and  C6_8 
REMARK    6  A    between atoms: C7_11  and  N3_12 
ROOT
HETATM    1  S1  UNL     1      14.979   6.619  15.424  1.00  0.00    -0.086 SA
ENDROOT
BRANCH   1   2
HETATM    2  C4  UNL     1      16.353   7.737  15.224  1.00  0.00     0.148 A 
HETATM    3  N1  UNL     1      17.140   7.780  14.111  1.00  0.00    -0.320 N 
HETATM    4  C10 UNL     1      18.079   8.728  14.281  1.00  0.00     0.106 A 
HETATM    5  C8  UNL     1      17.888   9.301  15.525  1.00  0.00     0.042 A 
HETATM    6 BR1  UNL     1      19.424   9.175  13.006  1.00  0.00    -0.029 Br
HETATM    7  N6  UNL     1      16.822   8.669  16.074  1.00  0.00    -0.338 N 
HETATM    8  C9  UNL     1      18.719  10.391  16.095  1.00  0.00     0.071 C 
ATOM      9  H6  UNL     1      16.433   8.870  16.995  1.00  0.00     0.168 HD
BRANCH   3  10
HETATM   10  C3  UNL     1      16.980   6.939  12.949  1.00  0.00     0.131 C 
BRANCH  10  11
HETATM   11  C2  UNL     1      17.805   5.668  13.094  1.00  0.00     0.016 C 
HETATM   12  C1  UNL     1      17.099   4.470  12.552  1.00  0.00     0.006 C 
ENDBRANCH  10  11
ENDBRANCH   3  10
ENDBRANCH   1   2
BRANCH   1  13
HETATM   13  C5  UNL     1      15.081   5.850  17.082  1.00  0.00     0.160 C 
BRANCH  13  14
HETATM   14  C6  UNL     1      15.380   4.418  16.998  1.00  0.00     0.122 A 
HETATM   15  N2  UNL     1      16.128   3.819  16.057  1.00  0.00    -0.177 N 
HETATM   16  C7  UNL     1      16.196   2.498  16.281  1.00  0.00     0.691 A 
ATOM     17  H2  UNL     1      16.581   4.300  15.280  1.00  0.00     0.185 HD
HETATM   18  N4  UNL     1      15.460   2.276  17.403  1.00  0.00    -0.131 N 
HETATM   19  N5  UNL     1      14.976   3.436  17.823  1.00  0.00    -0.274 N 
ATOM     20  H4  UNL     1      15.307   1.371  17.846  1.00  0.00     0.205 HD
ATOM     21  H5  UNL     1      14.387   3.564  18.645  1.00  0.00     0.189 HD
BRANCH  16  22
HETATM   22  N3  UNL     1      16.838   1.670  15.551  1.00  0.00    -0.233 N 
ATOM     23  H32 UNL     1      17.375   1.833  14.699  1.00  0.00     0.174 HD
ATOM     24  H31 UNL     1      16.906   0.668  15.733  1.00  0.00     0.174 HD
ENDBRANCH  16  22
ENDBRANCH  13  14
ENDBRANCH   1  13
TORSDOF 6
ENDMDL
MODEL 4
REMARK VINA RESULT: -5.964438222      2.224      3.303
REMARK  6 active torsions:
REMARK  status: ('A' for Active; 'I' for Inactive)
REMARK    1  A    between atoms: C2_2  and  C3_3 
REMARK    2  A    between atoms: C3_3  and  N1_4 
REMARK    3  A    between atoms: C4_5  and  S1_6 
REMARK    4  A    between atoms: S1_6  and  C5_7 
REMARK    5  A    between atoms: C5_7  and  C6_8 
REMARK    6  A    between atoms: C7_11  and  N3_12 
ROOT
HETATM    1  S1  UNL     1      15.060   6.878  14.712  1.00  0.00    -0.086 SA
ENDROOT
BRANCH   1   2
HETATM    2  C4  UNL     1      16.384   8.065  14.589  1.00  0.00     0.148 A 
HETATM    3  N1  UNL     1      16.770   8.652  13.421  1.00  0.00    -0.320 N 
HETATM    4  C10 UNL     1      17.790   9.493  13.675  1.00  0.00     0.106 A 
HETATM    5  C8  UNL     1      18.060   9.441  15.030  1.00  0.00     0.042 A 
HETATM    6 BR1  UNL     1      18.683  10.554  12.367  1.00  0.00    -0.029 Br
HETATM    7  N6  UNL     1      17.179   8.556  15.558  1.00  0.00    -0.338 N 
HETATM    8  C9  UNL     1      19.118  10.223  15.717  1.00  0.00     0.071 C 
ATOM      9  H6  UNL     1      17.126   8.300  16.544  1.00  0.00     0.168 HD
BRANCH   3  10
HETATM   10  C3  UNL     1      16.174   8.404  12.131  1.00  0.00     0.131 C 
BRANCH  10  11
HETATM   11  C2  UNL     1      15.328   9.593  11.697  1.00  0.00     0.016 C 
HETATM   12  C1  UNL     1      13.888   9.422  12.053  1.00  0.00     0.006 C 
ENDBRANCH  10  11
ENDBRANCH   3  10
ENDBRANCH   1   2
BRANCH   1  13
HETATM   13  C5  UNL     1      14.992   6.245  16.427  1.00  0.00     0.160 C 
BRANCH  13  14
HETATM   14  C6  UNL     1      15.151   4.789  16.474  1.00  0.00     0.122 A 
HETATM   15  N2  UNL     1      16.195   4.089  16.000  1.00  0.00    -0.177 N 
HETATM   16  C7  UNL     1      16.015   2.777  16.208  1.00  0.00     0.691 A 
ATOM     17  H2  UNL     1      17.011   4.500  15.544  1.00  0.00     0.185 HD
HETATM   18  N4  UNL     1      14.813   2.664  16.834  1.00  0.00    -0.131 N 
HETATM   19  N5  UNL     1      14.305   3.878  16.987  1.00  0.00    -0.274 N 
ATOM     20  H4  UNL     1      14.377   1.792  17.134  1.00  0.00     0.205 HD
ATOM     21  H5  UNL     1      13.410   4.089  17.427  1.00  0.00     0.189 HD
BRANCH  16  22
HETATM   22  N3  UNL     1      16.844   1.867  15.863  1.00  0.00    -0.233 N 
ATOM     23  H32 UNL     1      17.648   1.494  16.368  1.00  0.00     0.174 HD
ATOM     24  H31 UNL     1      16.810   1.358  14.980  1.00  0.00     0.174 HD
ENDBRANCH  16  22
ENDBRANCH  13  14
ENDBRANCH   1  13
TORSDOF 6
ENDMDL
MODEL 5
REMARK VINA RESULT: -5.911516228      2.184      3.082
REMARK  6 active torsions:
REMARK  status: ('A' for Active; 'I' for Inactive)
REMARK    1  A    between atoms: C2_2  and  C3_3 
REMARK    2  A    between atoms: C3_3  and  N1_4 
REMARK    3  A    between atoms: C4_5  and  S1_6 
REMARK    4  A    between atoms: S1_6  and  C5_7 
REMARK    5  A    between atoms: C5_7  and  C6_8 
REMARK    6  A    between atoms: C7_11  and  N3_12 
ROOT
HETATM    1  S1  UNL     1      15.419   6.930  14.294  1.00  0.00    -0.086 SA
ENDROOT
BRANCH   1   2
HETATM    2  C4  UNL     1      16.688   8.182  14.237  1.00  0.00     0.148 A 
HETATM    3  N1  UNL     1      16.980   8.914  13.125  1.00  0.00    -0.320 N 
HETATM    4  C10 UNL     1      17.981   9.764  13.418  1.00  0.00     0.106 A 
HETATM    5  C8  UNL     1      18.334   9.571  14.741  1.00  0.00     0.042 A 
HETATM    6 BR1  UNL     1      18.754  11.006  12.195  1.00  0.00    -0.029 Br
HETATM    7  N6  UNL     1      17.520   8.594  15.211  1.00  0.00    -0.338 N 
HETATM    8  C9  UNL     1      19.401  10.315  15.454  1.00  0.00     0.071 C 
ATOM      9  H6  UNL     1      17.536   8.225  16.161  1.00  0.00     0.168 HD
BRANCH   3  10
HETATM   10  C3  UNL     1      16.318   8.788  11.850  1.00  0.00     0.131 C 
BRANCH  10  11
HETATM   11  C2  UNL     1      15.318   9.920  11.654  1.00  0.00     0.016 C 
HETATM   12  C1  UNL     1      13.913   9.484  11.907  1.00  0.00     0.006 C 
ENDBRANCH  10  11
ENDBRANCH   3  10
ENDBRANCH   1   2
BRANCH   1  13
HETATM   13  C5  UNL     1      15.230   6.359  16.022  1.00  0.00     0.160 C 
BRANCH  13  14
HETATM   14  C6  UNL     1      15.690   4.978  16.189  1.00  0.00     0.122 A 
HETATM   15  N2  UNL     1      15.060   4.010  16.875  1.00  0.00    -0.177 N 
HETATM   16  C7  UNL     1      15.758   2.866  16.823  1.00  0.00     0.691 A 
ATOM     17  H2  UNL     1      14.174   4.129  17.367  1.00  0.00     0.185 HD
HETATM   18  N4  UNL     1      16.861   3.140  16.077  1.00  0.00    -0.131 N 
HETATM   19  N5  UNL     1      16.808   4.411  15.703  1.00  0.00    -0.274 N 
ATOM     20  H4  UNL     1      17.603   2.481  15.845  1.00  0.00     0.205 HD
ATOM     21  H5  UNL     1      17.509   4.885  15.134  1.00  0.00     0.189 HD
BRANCH  16  22
HETATM   22  N3  UNL     1      15.404   1.773  17.383  1.00  0.00    -0.233 N 
ATOM     23  H32 UNL     1      15.662   0.813  17.157  1.00  0.00     0.174 HD
ATOM     24  H31 UNL     1      14.776   1.710  18.185  1.00  0.00     0.174 HD
ENDBRANCH  16  22
ENDBRANCH  13  14
ENDBRANCH   1  13
TORSDOF 6
ENDMDL
