MODEL 1
REMARK VINA RESULT: -6.724402223      0.000      0.000
REMARK  6 active torsions:
REMARK  status: ('A' for Active; 'I' for Inactive)
REMARK    1  A    between atoms: C2_2  and  O1_3 
REMARK    2  A    between atoms: C3_5  and  C4_6 
REMARK    3  A    between atoms: C4_6  and  O2_7 
REMARK    4  A    between atoms: C4_6  and  N1_9 
REMARK    5  A    between atoms: N1_9  and  C5_11 
REMARK    6  A    between atoms: C9_18  and  C10_19 
ROOT
HETATM    1  C10 UNL     1      15.684  53.147  14.855  1.00  0.00     0.108 C 
HETATM    2  N3  UNL     1      14.827  53.566  15.922  1.00  0.00    -0.086 NA
HETATM    3  N4  UNL     1      15.249  53.250  13.656  1.00  0.00    -0.285 N 
ATOM      4  H4  UNL     1      15.847  52.956  12.884  1.00  0.00     0.179 HD
HETATM    5  C11 UNL     1      13.974  53.756  13.375  1.00  0.00     0.182 C 
HETATM    6  N5  UNL     1      12.908  54.165  13.147  1.00  0.00    -0.172 NA
ENDROOT
BRANCH   1   7
HETATM    7  C9  UNL     1      17.000  52.631  15.248  1.00  0.00     0.076 C 
HETATM    8  C5  UNL     1      16.976  51.385  16.087  1.00  0.00     0.116 C 
HETATM    9  C6  UNL     1      18.419  51.167  16.542  1.00  0.00     0.257 C 
HETATM   10  N2  UNL     1      19.316  51.143  15.412  1.00  0.00    -0.073 N 
HETATM   11  C7  UNL     1      18.660  51.142  14.143  1.00  0.00     0.233 C 
ATOM     12  H22 UNL     1      19.983  51.913  15.468  1.00  0.00     0.277 HD
ATOM     13  H21 UNL     1      19.958  50.353  15.482  1.00  0.00     0.277 HD
HETATM   14  C8  UNL     1      17.692  52.251  13.929  1.00  0.00     0.041 C 
BRANCH   8  15
HETATM   15  N1  UNL     1      16.021  51.332  17.097  1.00  0.00    -0.387 N 
ATOM     16  H1  UNL     1      15.036  51.398  16.846  1.00  0.00     0.156 HD
BRANCH  15  17
HETATM   17  C4  UNL     1      16.363  51.191  18.440  1.00  0.00     0.240 C 
BRANCH  17  18
HETATM   18  C3  UNL     1      15.365  51.904  19.286  1.00  0.00     0.057 C 
HETATM   19  C2  UNL     1      15.500  52.118  20.569  1.00  0.00     0.039 C 
HETATM   20  C1  UNL     1      16.681  51.673  21.356  1.00  0.00     0.076 C 
BRANCH  19  21
HETATM   21  O1  UNL     1      14.466  52.808  21.227  1.00  0.00    -0.366 OA
ATOM     22  H1  UNL     1      13.571  52.515  21.106  1.00  0.00     0.217 HD
ENDBRANCH  19  21
ENDBRANCH  17  18
BRANCH  17  23
HETATM   23  O2  UNL     1      16.372  49.869  18.937  1.00  0.00    -0.374 OA
ATOM     24  H2  UNL     1      17.232  49.535  18.714  1.00  0.00     0.212 HD
ENDBRANCH  17  23
ENDBRANCH  15  17
ENDBRANCH   8  15
ENDBRANCH   1   7
TORSDOF 6
ENDMDL
MODEL 2
REMARK VINA RESULT: -6.603944488      9.321     11.079
REMARK  6 active torsions:
REMARK  status: ('A' for Active; 'I' for Inactive)
REMARK    1  A    between atoms: C2_2  and  O1_3 
REMARK    2  A    between atoms: C3_5  and  C4_6 
REMARK    3  A    between atoms: C4_6  and  O2_7 
REMARK    4  A    between atoms: C4_6  and  N1_9 
REMARK    5  A    between atoms: N1_9  and  C5_11 
REMARK    6  A    between atoms: C9_18  and  C10_19 
ROOT
HETATM    1  C10 UNL     1      15.193  41.700  18.804  1.00  0.00     0.108 C 
HETATM    2  N3  UNL     1      14.821  43.074  18.665  1.00  0.00    -0.086 NA
HETATM    3  N4  UNL     1      14.290  40.861  19.150  1.00  0.00    -0.285 N 
ATOM      4  H4  UNL     1      14.540  39.878  19.254  1.00  0.00     0.179 HD
HETATM    5  C11 UNL     1      12.970  41.258  19.390  1.00  0.00     0.182 C 
HETATM    6  N5  UNL     1      11.874  41.594  19.601  1.00  0.00    -0.172 NA
ENDROOT
BRANCH   1   7
HETATM    7  C9  UNL     1      16.600  41.382  18.532  1.00  0.00     0.076 C 
HETATM    8  C5  UNL     1      17.059  41.653  17.128  1.00  0.00     0.116 C 
HETATM    9  C6  UNL     1      18.463  41.055  17.032  1.00  0.00     0.257 C 
HETATM   10  N2  UNL     1      19.314  41.569  18.077  1.00  0.00    -0.073 N 
HETATM   11  C7  UNL     1      18.732  42.629  18.837  1.00  0.00     0.233 C 
ATOM     12  H22 UNL     1      19.619  40.815  18.693  1.00  0.00     0.277 HD
ATOM     13  H21 UNL     1      20.215  41.857  17.696  1.00  0.00     0.277 HD
HETATM   14  C8  UNL     1      17.407  42.324  19.440  1.00  0.00     0.041 C 
BRANCH   8  15
HETATM   15  N1  UNL     1      16.188  41.289  16.106  1.00  0.00    -0.387 N 
ATOM     16  H1  UNL     1      15.973  40.301  15.973  1.00  0.00     0.156 HD
BRANCH  15  17
HETATM   17  C4  UNL     1      15.600  42.224  15.258  1.00  0.00     0.240 C 
BRANCH  17  18
HETATM   18  C3  UNL     1      16.649  42.866  14.419  1.00  0.00     0.057 C 
HETATM   19  C2  UNL     1      17.139  44.060  14.629  1.00  0.00     0.039 C 
HETATM   20  C1  UNL     1      16.706  44.939  15.748  1.00  0.00     0.076 C 
BRANCH  19  21
HETATM   21  O1  UNL     1      18.128  44.525  13.744  1.00  0.00    -0.366 OA
ATOM     22  H1  UNL     1      18.503  45.386  13.887  1.00  0.00     0.217 HD
ENDBRANCH  19  21
ENDBRANCH  17  18
BRANCH  17  23
HETATM   23  O2  UNL     1      14.666  41.711  14.331  1.00  0.00    -0.374 OA
ATOM     24  H2  UNL     1      14.183  41.054  14.817  1.00  0.00     0.212 HD
ENDBRANCH  17  23
ENDBRANCH  15  17
ENDBRANCH   8  15
ENDBRANCH   1   7
TORSDOF 6
ENDMDL
MODEL 3
REMARK VINA RESULT: -6.486173104      2.772      4.909
REMARK  6 active torsions:
REMARK  status: ('A' for Active; 'I' for Inactive)
REMARK    1  A    between atoms: C2_2  and  O1_3 
REMARK    2  A    between atoms: C3_5  and  C4_6 
REMARK    3  A    between atoms: C4_6  and  O2_7 
REMARK    4  A    between atoms: C4_6  and  N1_9 
REMARK    5  A    between atoms: N1_9  and  C5_11 
REMARK    6  A    between atoms: C9_18  and  C10_19 
ROOT
HETATM    1  C10 UNL     1      16.889  50.726  18.779  1.00  0.00     0.108 C 
HETATM    2  N3  UNL     1      17.431  50.906  20.091  1.00  0.00    -0.086 NA
HETATM    3  N4  UNL     1      15.735  51.220  18.529  1.00  0.00    -0.285 N 
ATOM      4  H4  UNL     1      15.334  51.099  17.598  1.00  0.00     0.179 HD
HETATM    5  C11 UNL     1      15.008  51.920  19.498  1.00  0.00     0.182 C 
HETATM    6  N5  UNL     1      14.400  52.491  20.312  1.00  0.00    -0.172 NA
ENDROOT
BRANCH   1   7
HETATM    7  C9  UNL     1      17.724  49.977  17.832  1.00  0.00     0.076 C 
HETATM    8  C5  UNL     1      17.791  50.548  16.444  1.00  0.00     0.116 C 
HETATM    9  C6  UNL     1      18.527  49.504  15.605  1.00  0.00     0.257 C 
HETATM   10  N2  UNL     1      19.796  49.165  16.202  1.00  0.00    -0.073 N 
HETATM   11  C7  UNL     1      20.159  49.988  17.312  1.00  0.00     0.233 C 
ATOM     12  H22 UNL     1      19.815  48.181  16.467  1.00  0.00     0.277 HD
ATOM     13  H21 UNL     1      20.535  49.169  15.499  1.00  0.00     0.277 HD
HETATM   14  C8  UNL     1      19.149  50.062  18.403  1.00  0.00     0.041 C 
BRANCH   8  15
HETATM   15  N1  UNL     1      16.596  51.010  15.903  1.00  0.00    -0.387 N 
ATOM     16  H1  UNL     1      15.753  50.448  16.021  1.00  0.00     0.156 HD
BRANCH  15  17
HETATM   17  C4  UNL     1      16.507  52.211  15.204  1.00  0.00     0.240 C 
BRANCH  17  18
HETATM   18  C3  UNL     1      15.409  53.041  15.774  1.00  0.00     0.057 C 
HETATM   19  C2  UNL     1      14.516  53.678  15.062  1.00  0.00     0.039 C 
HETATM   20  C1  UNL     1      14.482  53.654  13.575  1.00  0.00     0.076 C 
BRANCH  19  21
HETATM   21  O1  UNL     1      13.541  54.419  15.752  1.00  0.00    -0.366 OA
ATOM     22  H1  UNL     1      13.722  55.327  15.967  1.00  0.00     0.217 HD
ENDBRANCH  19  21
ENDBRANCH  17  18
BRANCH  17  23
HETATM   23  O2  UNL     1      17.648  53.041  15.263  1.00  0.00    -0.374 OA
ATOM     24  H2  UNL     1      18.204  52.736  14.556  1.00  0.00     0.212 HD
ENDBRANCH  17  23
ENDBRANCH  15  17
ENDBRANCH   8  15
ENDBRANCH   1   7
TORSDOF 6
ENDMDL
MODEL 4
REMARK VINA RESULT: -6.357754221      2.963      5.471
REMARK  6 active torsions:
REMARK  status: ('A' for Active; 'I' for Inactive)
REMARK    1  A    between atoms: C2_2  and  O1_3 
REMARK    2  A    between atoms: C3_5  and  C4_6 
REMARK    3  A    between atoms: C4_6  and  O2_7 
REMARK    4  A    between atoms: C4_6  and  N1_9 
REMARK    5  A    between atoms: N1_9  and  C5_11 
REMARK    6  A    between atoms: C9_18  and  C10_19 
ROOT
HETATM    1  C10 UNL     1      17.445  50.155  18.579  1.00  0.00     0.108 C 
HETATM    2  N3  UNL     1      18.792  50.519  18.895  1.00  0.00    -0.086 NA
HETATM    3  N4  UNL     1      16.535  50.394  19.446  1.00  0.00    -0.285 N 
ATOM      4  H4  UNL     1      15.569  50.140  19.235  1.00  0.00     0.179 HD
HETATM    5  C11 UNL     1      16.828  50.994  20.675  1.00  0.00     0.182 C 
HETATM    6  N5  UNL     1      17.079  51.483  21.703  1.00  0.00    -0.172 NA
ENDROOT
BRANCH   1   7
HETATM    7  C9  UNL     1      17.237  49.531  17.267  1.00  0.00     0.076 C 
HETATM    8  C5  UNL     1      17.764  50.310  16.095  1.00  0.00     0.116 C 
HETATM    9  C6  UNL     1      17.251  49.581  14.853  1.00  0.00     0.257 C 
HETATM   10  N2  UNL     1      17.612  48.185  14.889  1.00  0.00    -0.073 N 
HETATM   11  C7  UNL     1      18.501  47.838  15.951  1.00  0.00     0.233 C 
ATOM     12  H22 UNL     1      16.777  47.600  14.917  1.00  0.00     0.277 HD
ATOM     13  H21 UNL     1      17.998  47.892  13.991  1.00  0.00     0.277 HD
HETATM   14  C8  UNL     1      18.042  48.222  17.313  1.00  0.00     0.041 C 
BRANCH   8  15
HETATM   15  N1  UNL     1      17.545  51.683  16.110  1.00  0.00    -0.387 N 
ATOM     16  H1  UNL     1      17.968  52.240  16.853  1.00  0.00     0.156 HD
BRANCH  15  17
HETATM   17  C4  UNL     1      16.770  52.326  15.148  1.00  0.00     0.240 C 
BRANCH  17  18
HETATM   18  C3  UNL     1      15.663  53.068  15.814  1.00  0.00     0.057 C 
HETATM   19  C2  UNL     1      14.670  53.639  15.184  1.00  0.00     0.039 C 
HETATM   20  C1  UNL     1      14.516  53.618  13.704  1.00  0.00     0.076 C 
BRANCH  19  21
HETATM   21  O1  UNL     1      13.702  54.303  15.958  1.00  0.00    -0.366 OA
ATOM     22  H1  UNL     1      13.834  55.219  16.170  1.00  0.00     0.217 HD
ENDBRANCH  19  21
ENDBRANCH  17  18
BRANCH  17  23
HETATM   23  O2  UNL     1      17.436  53.300  14.372  1.00  0.00    -0.374 OA
ATOM     24  H2  UNL     1      18.279  52.910  14.172  1.00  0.00     0.212 HD
ENDBRANCH  17  23
ENDBRANCH  15  17
ENDBRANCH   8  15
ENDBRANCH   1   7
TORSDOF 6
ENDMDL
MODEL 5
REMARK VINA RESULT: -6.345618247      2.028      2.623
REMARK  6 active torsions:
REMARK  status: ('A' for Active; 'I' for Inactive)
REMARK    1  A    between atoms: C2_2  and  O1_3 
REMARK    2  A    between atoms: C3_5  and  C4_6 
REMARK    3  A    between atoms: C4_6  and  O2_7 
REMARK    4  A    between atoms: C4_6  and  N1_9 
REMARK    5  A    between atoms: N1_9  and  C5_11 
REMARK    6  A    between atoms: C9_18  and  C10_19 
ROOT
HETATM    1  C10 UNL     1      17.155  51.246  15.817  1.00  0.00     0.108 C 
HETATM    2  N3  UNL     1      17.893  52.471  15.764  1.00  0.00    -0.086 NA
HETATM    3  N4  UNL     1      15.883  51.302  15.694  1.00  0.00    -0.285 N 
ATOM      4  H4  UNL     1      15.342  50.437  15.730  1.00  0.00     0.179 HD
HETATM    5  C11 UNL     1      15.212  52.517  15.512  1.00  0.00     0.182 C 
HETATM    6  N5  UNL     1      14.657  53.532  15.374  1.00  0.00    -0.172 NA
ENDROOT
BRANCH   1   7
HETATM    7  C9  UNL     1      17.945  50.025  16.011  1.00  0.00     0.076 C 
HETATM    8  C5  UNL     1      17.882  49.432  17.390  1.00  0.00     0.116 C 
HETATM    9  C6  UNL     1      18.930  48.319  17.408  1.00  0.00     0.257 C 
HETATM   10  N2  UNL     1      18.717  47.395  16.320  1.00  0.00    -0.073 N 
HETATM   11  C7  UNL     1      17.503  47.611  15.598  1.00  0.00     0.233 C 
ATOM     12  H22 UNL     1      19.515  47.400  15.686  1.00  0.00     0.277 HD
ATOM     13  H21 UNL     1      18.767  46.432  16.654  1.00  0.00     0.277 HD
HETATM   14  C8  UNL     1      17.318  48.988  15.066  1.00  0.00     0.041 C 
BRANCH   8  15
HETATM   15  N1  UNL     1      17.946  50.324  18.456  1.00  0.00    -0.387 N 
ATOM     16  H1  UNL     1      18.676  51.036  18.456  1.00  0.00     0.156 HD
BRANCH  15  17
HETATM   17  C4  UNL     1      17.051  50.280  19.522  1.00  0.00     0.240 C 
BRANCH  17  18
HETATM   18  C3  UNL     1      15.885  51.161  19.231  1.00  0.00     0.057 C 
HETATM   19  C2  UNL     1      15.434  52.083  20.041  1.00  0.00     0.039 C 
HETATM   20  C1  UNL     1      16.036  52.374  21.370  1.00  0.00     0.076 C 
BRANCH  19  21
HETATM   21  O1  UNL     1      14.323  52.833  19.619  1.00  0.00    -0.366 OA
ATOM     22  H1  UNL     1      14.463  53.587  19.059  1.00  0.00     0.217 HD
ENDBRANCH  19  21
ENDBRANCH  17  18
BRANCH  17  23
HETATM   23  O2  UNL     1      16.482  49.016  19.794  1.00  0.00    -0.374 OA
ATOM     24  H2  UNL     1      16.530  48.549  18.969  1.00  0.00     0.212 HD
ENDBRANCH  17  23
ENDBRANCH  15  17
ENDBRANCH   8  15
ENDBRANCH   1   7
TORSDOF 6
ENDMDL
