MODEL 1
REMARK VINA RESULT: -2.969806230      0.000      0.000
REMARK  0 active torsions:
REMARK  status: ('A' for Active; 'I' for Inactive)
ROOT
HETATM    1  C1  UNL     1      33.779  20.474  60.390  1.00  0.00     0.104 A 
HETATM    2  C2  UNL     1      33.022  19.356  60.193  1.00  0.00     0.085 A 
HETATM    3  S1  UNL     1      34.259  18.772  59.236  1.00  0.00    -0.026 SA
HETATM    4  N1  UNL     1      34.911  20.231  59.669  1.00  0.00    -0.337 N 
ATOM      5  H1  UNL     1      35.780  20.730  59.479  1.00  0.00     0.173 HD
ENDROOT
TORSDOF 0
ENDMDL
MODEL 2
REMARK VINA RESULT: -2.856312522      1.324      1.521
REMARK  0 active torsions:
REMARK  status: ('A' for Active; 'I' for Inactive)
ROOT
HETATM    1  C1  UNL     1      33.821  20.366  60.436  1.00  0.00     0.104 A 
HETATM    2  C2  UNL     1      34.963  19.938  59.823  1.00  0.00     0.085 A 
HETATM    3  S1  UNL     1      34.099  18.607  59.303  1.00  0.00    -0.026 SA
HETATM    4  N1  UNL     1      32.910  19.394  60.144  1.00  0.00    -0.337 N 
ATOM      5  H1  UNL     1      31.926  19.226  60.353  1.00  0.00     0.173 HD
ENDROOT
TORSDOF 0
ENDMDL
MODEL 3
REMARK VINA RESULT: -2.842457124      1.382      1.538
REMARK  0 active torsions:
REMARK  status: ('A' for Active; 'I' for Inactive)
ROOT
HETATM    1  C1  UNL     1      34.245  18.727  59.157  1.00  0.00     0.104 A 
HETATM    2  C2  UNL     1      33.205  18.918  60.020  1.00  0.00     0.085 A 
HETATM    3  S1  UNL     1      33.872  20.405  60.383  1.00  0.00    -0.026 SA
HETATM    4  N1  UNL     1      34.980  19.871  59.275  1.00  0.00    -0.337 N 
ATOM      5  H1  UNL     1      35.837  20.237  58.861  1.00  0.00     0.173 HD
ENDROOT
TORSDOF 0
ENDMDL
MODEL 4
REMARK VINA RESULT: -2.831467987      1.179      1.519
REMARK  0 active torsions:
REMARK  status: ('A' for Active; 'I' for Inactive)
ROOT
HETATM    1  C1  UNL     1      33.011  19.429  60.042  1.00  0.00     0.104 A 
HETATM    2  C2  UNL     1      33.796  20.458  60.473  1.00  0.00     0.085 A 
HETATM    3  S1  UNL     1      35.080  19.699  59.721  1.00  0.00    -0.026 SA
HETATM    4  N1  UNL     1      33.874  18.623  59.360  1.00  0.00    -0.337 N 
ATOM      5  H1  UNL     1      33.808  17.742  58.851  1.00  0.00     0.173 HD
ENDROOT
TORSDOF 0
ENDMDL
MODEL 5
REMARK VINA RESULT: -2.793076074      2.211      2.376
REMARK  0 active torsions:
REMARK  status: ('A' for Active; 'I' for Inactive)
ROOT
HETATM    1  C1  UNL     1      35.304  17.351  59.135  1.00  0.00     0.104 A 
HETATM    2  C2  UNL     1      33.984  17.349  59.482  1.00  0.00     0.085 A 
HETATM    3  S1  UNL     1      34.043  19.017  59.437  1.00  0.00    -0.026 SA
HETATM    4  N1  UNL     1      35.611  18.676  59.030  1.00  0.00    -0.337 N 
ATOM      5  H1  UNL     1      36.443  19.219  58.802  1.00  0.00     0.173 HD
ENDROOT
TORSDOF 0
ENDMDL
