MODEL 1
REMARK VINA RESULT: -6.155785552      0.000      0.000
REMARK  2 active torsions:
REMARK  status: ('A' for Active; 'I' for Inactive)
REMARK    1  A    between atoms: N1_1  and  N2_4 
REMARK       I    between atoms: N2_4  and  C1_6 
REMARK       I    between atoms: C1_6  and  N3_8 
REMARK    2  A    between atoms: C7_15  and  C8_16 
ROOT
HETATM    1  N2  UNL     1      15.580   2.853  16.539  1.00  0.00    -0.258 N 
ATOM      2  H2  UNL     1      15.246   3.797  16.734  1.00  0.00     0.191 HD
HETATM    3  C1  UNL     1      16.282   2.596  15.335  1.00  0.00     0.337 C 
HETATM    4  O1  UNL     1      16.689   1.433  15.103  1.00  0.00    -0.245 OA
HETATM    5  N3  UNL     1      16.521   3.629  14.411  1.00  0.00    -0.321 N 
HETATM    6  C2  UNL     1      16.085   5.013  14.601  1.00  0.00     0.148 C 
HETATM    7  C3  UNL     1      17.140   5.737  13.810  1.00  0.00     0.027 C 
HETATM    8  C4  UNL     1      16.970   7.208  13.653  1.00  0.00     0.032 C 
HETATM    9  C5  UNL     1      18.485   7.321  13.494  1.00  0.00     0.076 C 
HETATM   10  S1  UNL     1      18.733   5.879  14.595  1.00  0.00    -0.157 SA
HETATM   11  C6  UNL     1      17.179   4.919  12.558  1.00  0.00     0.053 C 
HETATM   12  C7  UNL     1      17.228   3.521  13.131  1.00  0.00     0.155 C 
ENDROOT
BRANCH  12  13
HETATM   13  C8  UNL     1      16.558   2.525  12.209  1.00  0.00     0.376 C 
HETATM   14  F1  UNL     1      15.719   3.139  11.321  1.00  0.00    -0.212 F 
HETATM   15  F2  UNL     1      17.590   1.887  11.524  1.00  0.00    -0.212 F 
ENDBRANCH  12  13
BRANCH   1  16
HETATM   16  N1  UNL     1      15.335   1.831  17.469  1.00  0.00    -0.341 N 
ATOM     17  H12 UNL     1      15.649   0.887  17.245  1.00  0.00     0.177 HD
ATOM     18  H11 UNL     1      14.856   2.021  18.349  1.00  0.00     0.177 HD
ENDBRANCH   1  16
TORSDOF 2
ENDMDL
MODEL 2
REMARK VINA RESULT: -5.778415003      3.109      4.443
REMARK  2 active torsions:
REMARK  status: ('A' for Active; 'I' for Inactive)
REMARK    1  A    between atoms: N1_1  and  N2_4 
REMARK       I    between atoms: N2_4  and  C1_6 
REMARK       I    between atoms: C1_6  and  N3_8 
REMARK    2  A    between atoms: C7_15  and  C8_16 
ROOT
HETATM    1  N2  UNL     1      17.746   6.535  11.106  1.00  0.00    -0.258 N 
ATOM      2  H2  UNL     1      18.264   6.802  11.943  1.00  0.00     0.191 HD
HETATM    3  C1  UNL     1      17.083   5.283  11.064  1.00  0.00     0.337 C 
HETATM    4  O1  UNL     1      16.449   4.963  10.030  1.00  0.00    -0.245 OA
HETATM    5  N3  UNL     1      17.132   4.410  12.165  1.00  0.00    -0.321 N 
HETATM    6  C2  UNL     1      17.845   4.703  13.409  1.00  0.00     0.148 C 
HETATM    7  C3  UNL     1      17.024   3.902  14.383  1.00  0.00     0.027 C 
HETATM    8  C4  UNL     1      17.519   3.840  15.786  1.00  0.00     0.032 C 
HETATM    9  C5  UNL     1      16.077   3.610  16.236  1.00  0.00     0.076 C 
HETATM   10  S1  UNL     1      15.453   4.610  14.835  1.00  0.00    -0.157 SA
HETATM   11  C6  UNL     1      16.888   2.604  13.650  1.00  0.00     0.053 C 
HETATM   12  C7  UNL     1      16.501   3.091  12.273  1.00  0.00     0.155 C 
ENDROOT
BRANCH  12  13
HETATM   13  C8  UNL     1      16.996   2.149  11.197  1.00  0.00     0.376 C 
HETATM   14  F1  UNL     1      17.490   0.988  11.725  1.00  0.00    -0.212 F 
HETATM   15  F2  UNL     1      15.890   1.873  10.395  1.00  0.00    -0.212 F 
ENDBRANCH  12  13
BRANCH   1  16
HETATM   16  N1  UNL     1      17.704   7.416  10.013  1.00  0.00    -0.341 N 
ATOM     17  H12 UNL     1      16.856   7.961   9.862  1.00  0.00     0.177 HD
ATOM     18  H11 UNL     1      18.499   7.511   9.381  1.00  0.00     0.177 HD
ENDBRANCH   1  16
TORSDOF 2
ENDMDL
MODEL 3
REMARK VINA RESULT: -5.735759702      3.015      3.612
REMARK  2 active torsions:
REMARK  status: ('A' for Active; 'I' for Inactive)
REMARK    1  A    between atoms: N1_1  and  N2_4 
REMARK       I    between atoms: N2_4  and  C1_6 
REMARK       I    between atoms: C1_6  and  N3_8 
REMARK    2  A    between atoms: C7_15  and  C8_16 
ROOT
HETATM    1  N2  UNL     1      16.063   2.956  16.500  1.00  0.00    -0.258 N 
ATOM      2  H2  UNL     1      17.017   2.723  16.221  1.00  0.00     0.191 HD
HETATM    3  C1  UNL     1      15.362   3.972  15.804  1.00  0.00     0.337 C 
HETATM    4  O1  UNL     1      14.190   4.253  16.153  1.00  0.00    -0.245 OA
HETATM    5  N3  UNL     1      15.968   4.657  14.735  1.00  0.00    -0.321 N 
HETATM    6  C2  UNL     1      17.326   4.393  14.261  1.00  0.00     0.148 C 
HETATM    7  C3  UNL     1      17.187   4.790  12.816  1.00  0.00     0.027 C 
HETATM    8  C4  UNL     1      18.429   4.781  11.995  1.00  0.00     0.032 C 
HETATM    9  C5  UNL     1      17.558   4.542  10.763  1.00  0.00     0.076 C 
HETATM   10  S1  UNL     1      16.338   3.623  11.772  1.00  0.00    -0.157 SA
HETATM   11  C6  UNL     1      16.462   6.094  12.941  1.00  0.00     0.053 C 
HETATM   12  C7  UNL     1      15.375   5.724  13.923  1.00  0.00     0.155 C 
ENDROOT
BRANCH  12  13
HETATM   13  C8  UNL     1      14.974   6.911  14.772  1.00  0.00     0.376 C 
HETATM   14  F1  UNL     1      16.061   7.627  15.192  1.00  0.00    -0.212 F 
HETATM   15  F2  UNL     1      14.168   7.706  13.959  1.00  0.00    -0.212 F 
ENDBRANCH  12  13
BRANCH   1  16
HETATM   16  N1  UNL     1      15.469   2.266  17.568  1.00  0.00    -0.341 N 
ATOM     17  H12 UNL     1      15.858   1.362  17.837  1.00  0.00     0.177 HD
ATOM     18  H11 UNL     1      14.668   2.653  18.066  1.00  0.00     0.177 HD
ENDBRANCH   1  16
TORSDOF 2
ENDMDL
MODEL 4
REMARK VINA RESULT: -5.548122219      3.095      4.682
REMARK  2 active torsions:
REMARK  status: ('A' for Active; 'I' for Inactive)
REMARK    1  A    between atoms: N1_1  and  N2_4 
REMARK       I    between atoms: N2_4  and  C1_6 
REMARK       I    between atoms: C1_6  and  N3_8 
REMARK    2  A    between atoms: C7_15  and  C8_16 
ROOT
HETATM    1  N2  UNL     1      16.374   6.849  12.536  1.00  0.00    -0.258 N 
ATOM      2  H2  UNL     1      15.895   6.562  11.682  1.00  0.00     0.191 HD
HETATM    3  C1  UNL     1      16.916   5.863  13.397  1.00  0.00     0.337 C 
HETATM    4  O1  UNL     1      17.503   6.225  14.445  1.00  0.00    -0.245 OA
HETATM    5  N3  UNL     1      16.801   4.497  13.084  1.00  0.00    -0.321 N 
HETATM    6  C2  UNL     1      16.136   3.987  11.884  1.00  0.00     0.148 C 
HETATM    7  C3  UNL     1      16.892   2.701  11.685  1.00  0.00     0.027 C 
HETATM    8  C4  UNL     1      16.413   1.802  10.599  1.00  0.00     0.032 C 
HETATM    9  C5  UNL     1      17.833   1.248  10.494  1.00  0.00     0.076 C 
HETATM   10  S1  UNL     1      18.528   2.864  11.001  1.00  0.00    -0.157 SA
HETATM   11  C6  UNL     1      16.895   2.147  13.076  1.00  0.00     0.053 C 
HETATM   12  C7  UNL     1      17.307   3.366  13.869  1.00  0.00     0.155 C 
ENDROOT
BRANCH  12  13
HETATM   13  C8  UNL     1      16.710   3.345  15.259  1.00  0.00     0.376 C 
HETATM   14  F1  UNL     1      16.126   2.142  15.544  1.00  0.00    -0.212 F 
HETATM   15  F2  UNL     1      17.773   3.574  16.132  1.00  0.00    -0.212 F 
ENDBRANCH  12  13
BRANCH   1  16
HETATM   16  N1  UNL     1      16.483   8.216  12.838  1.00  0.00    -0.341 N 
ATOM     17  H12 UNL     1      17.172   8.771  12.331  1.00  0.00     0.177 HD
ATOM     18  H11 UNL     1      15.890   8.648  13.546  1.00  0.00     0.177 HD
ENDBRANCH   1  16
TORSDOF 2
ENDMDL
MODEL 5
REMARK VINA RESULT: -5.469052676      2.912      3.736
REMARK  2 active torsions:
REMARK  status: ('A' for Active; 'I' for Inactive)
REMARK    1  A    between atoms: N1_1  and  N2_4 
REMARK       I    between atoms: N2_4  and  C1_6 
REMARK       I    between atoms: C1_6  and  N3_8 
REMARK    2  A    between atoms: C7_15  and  C8_16 
ROOT
HETATM    1  N2  UNL     1      18.535   2.772  11.873  1.00  0.00    -0.258 N 
ATOM      2  H2  UNL     1      19.319   3.416  11.766  1.00  0.00     0.191 HD
HETATM    3  C1  UNL     1      17.404   3.170  12.628  1.00  0.00     0.337 C 
HETATM    4  O1  UNL     1      16.444   2.373  12.755  1.00  0.00    -0.245 OA
HETATM    5  N3  UNL     1      17.354   4.442  13.227  1.00  0.00    -0.321 N 
HETATM    6  C2  UNL     1      18.426   5.433  13.130  1.00  0.00     0.148 C 
HETATM    7  C3  UNL     1      17.628   6.702  13.261  1.00  0.00     0.027 C 
HETATM    8  C4  UNL     1      18.399   7.975  13.336  1.00  0.00     0.032 C 
HETATM    9  C5  UNL     1      17.181   8.693  12.756  1.00  0.00     0.076 C 
HETATM   10  S1  UNL     1      16.714   7.194  11.814  1.00  0.00    -0.157 SA
HETATM   11  C6  UNL     1      16.745   6.372  14.423  1.00  0.00     0.053 C 
HETATM   12  C7  UNL     1      16.261   4.994  14.033  1.00  0.00     0.155 C 
ENDROOT
BRANCH  12  13
HETATM   13  C8  UNL     1      15.984   4.143  15.252  1.00  0.00     0.376 C 
HETATM   14  F1  UNL     1      17.090   4.018  16.048  1.00  0.00    -0.212 F 
HETATM   15  F2  UNL     1      14.970   4.796  15.951  1.00  0.00    -0.212 F 
ENDBRANCH  12  13
BRANCH   1  16
HETATM   16  N1  UNL     1      18.595   1.506  11.269  1.00  0.00    -0.341 N 
ATOM     17  H12 UNL     1      17.764   0.916  11.296  1.00  0.00     0.177 HD
ATOM     18  H11 UNL     1      19.448   1.179  10.814  1.00  0.00     0.177 HD
ENDBRANCH   1  16
TORSDOF 2
ENDMDL
