MODEL 1
REMARK VINA RESULT: -6.648093521      0.000      0.000
REMARK  4 active torsions:
REMARK  status: ('A' for Active; 'I' for Inactive)
REMARK    1  A    between atoms: C2_2  and  N1_4 
REMARK       I    between atoms: N1_4  and  C3_6 
REMARK    2  A    between atoms: C3_6  and  O2_8 
REMARK    3  A    between atoms: O2_8  and  C4_9 
REMARK    4  A    between atoms: C10_16  and  O3_17 
ROOT
HETATM    1  C4  UNL     1      17.271   3.176  13.273  1.00  0.00     0.147 C 
HETATM    2  C5  UNL     1      16.340   4.352  13.018  1.00  0.00     0.048 C 
HETATM    3  C6  UNL     1      17.612   5.193  13.194  1.00  0.00     0.020 C 
HETATM    4  C7  UNL     1      18.255   4.006  12.462  1.00  0.00     0.058 C 
HETATM    5  C8  UNL     1      17.625   4.112  11.113  1.00  0.00     0.132 C 
HETATM    6  C9  UNL     1      18.168   5.237  10.282  1.00  0.00     0.055 C 
HETATM    7  F1  UNL     1      17.710   2.954  10.374  1.00  0.00    -0.240 F 
HETATM    8  C10 UNL     1      16.166   4.394  11.529  1.00  0.00     0.164 C 
ENDROOT
BRANCH   1   9
HETATM    9  O2  UNL     1      17.586   3.104  14.639  1.00  0.00    -0.298 OA
BRANCH   9  10
HETATM   10  C3  UNL     1      16.639   2.661  15.535  1.00  0.00     0.362 C 
HETATM   11  N1  UNL     1      16.069   3.476  16.545  1.00  0.00    -0.320 N 
ATOM     12  H1  UNL     1      16.363   4.449  16.632  1.00  0.00     0.166 HD
HETATM   13  O1  UNL     1      16.267   1.448  15.434  1.00  0.00    -0.238 OA
BRANCH  11  14
HETATM   14  C2  UNL     1      15.089   2.953  17.443  1.00  0.00     0.179 C 
HETATM   15  C1  UNL     1      15.005   3.741  18.734  1.00  0.00     0.049 C 
HETATM   16 CL1  UNL     1      13.459   3.020  16.703  1.00  0.00    -0.103 Cl
ENDBRANCH  11  14
ENDBRANCH   9  10
ENDBRANCH   1   9
BRANCH   8  17
HETATM   17  O3  UNL     1      15.323   3.410  11.049  1.00  0.00    -0.392 OA
ATOM     18  H3  UNL     1      14.850   3.669  10.267  1.00  0.00     0.210 HD
ENDBRANCH   8  17
TORSDOF 4
ENDMDL
MODEL 2
REMARK VINA RESULT: -6.353892980      1.570      1.877
REMARK  4 active torsions:
REMARK  status: ('A' for Active; 'I' for Inactive)
REMARK    1  A    between atoms: C2_2  and  N1_4 
REMARK       I    between atoms: N1_4  and  C3_6 
REMARK    2  A    between atoms: C3_6  and  O2_8 
REMARK    3  A    between atoms: O2_8  and  C4_9 
REMARK    4  A    between atoms: C10_16  and  O3_17 
ROOT
HETATM    1  C4  UNL     1      17.058   3.284  13.091  1.00  0.00     0.147 C 
HETATM    2  C5  UNL     1      17.229   4.192  11.881  1.00  0.00     0.048 C 
HETATM    3  C6  UNL     1      18.638   3.585  11.825  1.00  0.00     0.020 C 
HETATM    4  C7  UNL     1      17.891   2.318  12.262  1.00  0.00     0.058 C 
HETATM    5  C8  UNL     1      17.048   2.039  11.062  1.00  0.00     0.132 C 
HETATM    6  C9  UNL     1      17.819   1.483   9.901  1.00  0.00     0.055 C 
HETATM    7  F1  UNL     1      15.989   1.197  11.316  1.00  0.00    -0.240 F 
HETATM    8  C10 UNL     1      16.553   3.469  10.755  1.00  0.00     0.164 C 
ENDROOT
BRANCH   1   9
HETATM    9  O2  UNL     1      17.746   3.820  14.191  1.00  0.00    -0.298 OA
BRANCH   9  10
HETATM   10  C3  UNL     1      17.269   3.604  15.465  1.00  0.00     0.362 C 
HETATM   11  N1  UNL     1      15.926   3.838  15.853  1.00  0.00    -0.320 N 
ATOM     12  H1  UNL     1      15.258   4.187  15.166  1.00  0.00     0.166 HD
HETATM   13  O1  UNL     1      18.097   3.170  16.328  1.00  0.00    -0.238 OA
BRANCH  11  14
HETATM   14  C2  UNL     1      15.497   3.593  17.193  1.00  0.00     0.179 C 
HETATM   15  C1  UNL     1      14.179   4.266  17.513  1.00  0.00     0.049 C 
HETATM   16 CL1  UNL     1      15.247   1.839  17.462  1.00  0.00    -0.103 Cl
ENDBRANCH  11  14
ENDBRANCH   9  10
ENDBRANCH   1   9
BRANCH   8  17
HETATM   17  O3  UNL     1      15.175   3.531  10.814  1.00  0.00    -0.392 OA
ATOM     18  H3  UNL     1      14.758   2.678  10.777  1.00  0.00     0.210 HD
ENDBRANCH   8  17
TORSDOF 4
ENDMDL
MODEL 3
REMARK VINA RESULT: -6.319040267      3.229      5.754
REMARK  4 active torsions:
REMARK  status: ('A' for Active; 'I' for Inactive)
REMARK    1  A    between atoms: C2_2  and  N1_4 
REMARK       I    between atoms: N1_4  and  C3_6 
REMARK    2  A    between atoms: C3_6  and  O2_8 
REMARK    3  A    between atoms: O2_8  and  C4_9 
REMARK    4  A    between atoms: C10_16  and  O3_17 
ROOT
HETATM    1  C4  UNL     1      15.622   3.646  14.498  1.00  0.00     0.147 C 
HETATM    2  C5  UNL     1      16.748   3.260  15.447  1.00  0.00     0.048 C 
HETATM    3  C6  UNL     1      16.630   4.713  15.925  1.00  0.00     0.020 C 
HETATM    4  C7  UNL     1      15.134   4.457  15.690  1.00  0.00     0.058 C 
HETATM    5  C8  UNL     1      14.839   3.435  16.736  1.00  0.00     0.132 C 
HETATM    6  C9  UNL     1      14.776   3.997  18.126  1.00  0.00     0.055 C 
HETATM    7  F1  UNL     1      13.678   2.731  16.506  1.00  0.00    -0.240 F 
HETATM    8  C10 UNL     1      16.075   2.527  16.568  1.00  0.00     0.164 C 
ENDROOT
BRANCH   1   9
HETATM    9  O2  UNL     1      16.129   4.432  13.451  1.00  0.00    -0.298 OA
BRANCH   9  10
HETATM   10  C3  UNL     1      16.617   3.824  12.316  1.00  0.00     0.362 C 
HETATM   11  N1  UNL     1      17.948   3.353  12.187  1.00  0.00    -0.320 N 
ATOM     12  H1  UNL     1      18.598   3.460  12.965  1.00  0.00     0.166 HD
HETATM   13  O1  UNL     1      15.813   3.686  11.340  1.00  0.00    -0.238 OA
BRANCH  11  14
HETATM   14  C2  UNL     1      18.391   2.730  10.979  1.00  0.00     0.179 C 
HETATM   15  C1  UNL     1      19.879   2.894  10.753  1.00  0.00     0.049 C 
HETATM   16 CL1  UNL     1      18.079   0.966  11.032  1.00  0.00    -0.103 Cl
ENDBRANCH  11  14
ENDBRANCH   9  10
ENDBRANCH   1   9
BRANCH   8  17
HETATM   17  O3  UNL     1      15.696   1.242  16.233  1.00  0.00    -0.392 OA
ATOM     18  H3  UNL     1      15.120   0.840  16.873  1.00  0.00     0.210 HD
ENDBRANCH   8  17
TORSDOF 4
ENDMDL
MODEL 4
REMARK VINA RESULT: -6.216022443      1.405      1.821
REMARK  4 active torsions:
REMARK  status: ('A' for Active; 'I' for Inactive)
REMARK    1  A    between atoms: C2_2  and  N1_4 
REMARK       I    between atoms: N1_4  and  C3_6 
REMARK    2  A    between atoms: C3_6  and  O2_8 
REMARK    3  A    between atoms: O2_8  and  C4_9 
REMARK    4  A    between atoms: C10_16  and  O3_17 
ROOT
HETATM    1  C4  UNL     1      17.016   3.931  13.136  1.00  0.00     0.147 C 
HETATM    2  C5  UNL     1      18.025   4.218  12.034  1.00  0.00     0.048 C 
HETATM    3  C6  UNL     1      18.392   2.737  12.203  1.00  0.00     0.020 C 
HETATM    4  C7  UNL     1      16.879   2.596  12.421  1.00  0.00     0.058 C 
HETATM    5  C8  UNL     1      16.348   2.952  11.072  1.00  0.00     0.132 C 
HETATM    6  C9  UNL     1      16.550   1.879  10.043  1.00  0.00     0.055 C 
HETATM    7  F1  UNL     1      15.015   3.295  11.078  1.00  0.00    -0.240 F 
HETATM    8  C10 UNL     1      17.231   4.180  10.763  1.00  0.00     0.164 C 
ENDROOT
BRANCH   1   9
HETATM    9  O2  UNL     1      17.674   3.842  14.374  1.00  0.00    -0.298 OA
BRANCH   9  10
HETATM   10  C3  UNL     1      17.036   3.257  15.445  1.00  0.00     0.362 C 
HETATM   11  N1  UNL     1      15.740   3.624  15.885  1.00  0.00    -0.320 N 
ATOM     12  H1  UNL     1      15.232   4.361  15.396  1.00  0.00     0.166 HD
HETATM   13  O1  UNL     1      17.663   2.337  16.061  1.00  0.00    -0.238 OA
BRANCH  11  14
HETATM   14  C2  UNL     1      15.135   2.975  17.005  1.00  0.00     0.179 C 
HETATM   15  C1  UNL     1      15.356   3.728  18.301  1.00  0.00     0.049 C 
HETATM   16 CL1  UNL     1      13.360   2.863  16.783  1.00  0.00    -0.103 Cl
ENDBRANCH  11  14
ENDBRANCH   9  10
ENDBRANCH   1   9
BRANCH   8  17
HETATM   17  O3  UNL     1      16.453   5.304  10.570  1.00  0.00    -0.392 OA
ATOM     18  H3  UNL     1      16.962   6.095  10.432  1.00  0.00     0.210 HD
ENDBRANCH   8  17
TORSDOF 4
ENDMDL
MODEL 5
REMARK VINA RESULT: -6.156195085      1.811      1.999
REMARK  4 active torsions:
REMARK  status: ('A' for Active; 'I' for Inactive)
REMARK    1  A    between atoms: C2_2  and  N1_4 
REMARK       I    between atoms: N1_4  and  C3_6 
REMARK    2  A    between atoms: C3_6  and  O2_8 
REMARK    3  A    between atoms: O2_8  and  C4_9 
REMARK    4  A    between atoms: C10_16  and  O3_17 
ROOT
HETATM    1  C4  UNL     1      17.336   4.834  13.980  1.00  0.00     0.147 C 
HETATM    2  C5  UNL     1      17.281   6.308  14.354  1.00  0.00     0.048 C 
HETATM    3  C6  UNL     1      18.784   6.280  14.046  1.00  0.00     0.020 C 
HETATM    4  C7  UNL     1      18.333   5.318  12.937  1.00  0.00     0.058 C 
HETATM    5  C8  UNL     1      17.538   6.226  12.060  1.00  0.00     0.132 C 
HETATM    6  C9  UNL     1      18.379   7.164  11.245  1.00  0.00     0.055 C 
HETATM    7  F1  UNL     1      16.688   5.561  11.206  1.00  0.00    -0.240 F 
HETATM    8  C10 UNL     1      16.745   6.997  13.136  1.00  0.00     0.164 C 
ENDROOT
BRANCH   1   9
HETATM    9  O2  UNL     1      17.923   4.098  15.022  1.00  0.00    -0.298 OA
BRANCH   9  10
HETATM   10  C3  UNL     1      17.124   3.399  15.898  1.00  0.00     0.362 C 
HETATM   11  N1  UNL     1      15.893   3.888  16.402  1.00  0.00    -0.320 N 
ATOM     12  H1  UNL     1      15.561   4.808  16.114  1.00  0.00     0.166 HD
HETATM   13  O1  UNL     1      17.531   2.250  16.263  1.00  0.00    -0.238 OA
BRANCH  11  14
HETATM   14  C2  UNL     1      15.111   3.109  17.310  1.00  0.00     0.179 C 
HETATM   15  C1  UNL     1      15.044   3.722  18.693  1.00  0.00     0.049 C 
HETATM   16 CL1  UNL     1      13.420   2.981  16.732  1.00  0.00    -0.103 Cl
ENDBRANCH  11  14
ENDBRANCH   9  10
ENDBRANCH   1   9
BRANCH   8  17
HETATM   17  O3  UNL     1      15.386   6.821  12.960  1.00  0.00    -0.392 OA
ATOM     18  H3  UNL     1      15.093   7.013  12.077  1.00  0.00     0.210 HD
ENDBRANCH   8  17
TORSDOF 4
ENDMDL
