MODEL 1
REMARK VINA RESULT: -11.813249076      0.000      0.000
REMARK  5 active torsions:
REMARK  status: ('A' for Active; 'I' for Inactive)
REMARK    1  A    between atoms: C1_1  and  C24_28 
REMARK    2  A    between atoms: C2_2  and  C3_3 
REMARK    3  A    between atoms: C6_6  and  C7_7 
REMARK    4  A    between atoms: C8_10  and  C9_11 
REMARK    5  A    between atoms: C15_17  and  C16_18 
ROOT
HETATM    1  C7  UNL     1      57.135  34.406  27.906  1.00  0.00     0.116 A 
HETATM    2  N1  UNL     1      56.293  33.533  27.335  1.00  0.00    -0.339 N 
ATOM      3  H1  UNL     1      55.585  33.000  27.842  1.00  0.00     0.167 HD
HETATM    4  C8  UNL     1      56.503  33.450  26.014  1.00  0.00     0.072 A 
HETATM    5  C15 UNL     1      57.542  34.329  25.754  1.00  0.00     0.072 A 
HETATM    6  N2  UNL     1      57.902  34.893  26.918  1.00  0.00    -0.339 N 
ATOM      7  H2  UNL     1      58.644  35.584  27.034  1.00  0.00     0.167 HD
ENDROOT
BRANCH   1   8
HETATM    8  C6  UNL     1      57.219  34.769  29.310  1.00  0.00     0.008 A 
HETATM    9  C5  UNL     1      56.110  34.692  30.107  1.00  0.00     0.016 A 
HETATM   10  C4  UNL     1      56.230  35.047  31.432  1.00  0.00     0.012 A 
HETATM   11  C3  UNL     1      57.426  35.468  31.950  1.00  0.00    -0.036 A 
HETATM   12  C23 UNL     1      58.572  35.550  31.135  1.00  0.00     0.012 A 
HETATM   13  C22 UNL     1      58.430  35.192  29.816  1.00  0.00     0.016 A 
BRANCH  11  14
HETATM   14  C2  UNL     1      57.543  35.841  33.344  1.00  0.00     0.012 C 
HETATM   15  C1  UNL     1      57.561  37.088  33.726  1.00  0.00     0.012 C 
BRANCH  15  16
HETATM   16  C24 UNL     1      57.679  37.471  35.121  1.00  0.00    -0.036 A 
HETATM   17  C25 UNL     1      58.056  38.775  35.426  1.00  0.00     0.011 A 
HETATM   18  C26 UNL     1      58.170  39.146  36.750  1.00  0.00     0.001 A 
HETATM   19  C27 UNL     1      57.913  38.235  37.736  1.00  0.00     0.000 A 
HETATM   20  C28 UNL     1      57.540  36.948  37.463  1.00  0.00     0.001 A 
HETATM   21  C29 UNL     1      57.424  36.571  36.118  1.00  0.00     0.011 A 
ENDBRANCH  15  16
ENDBRANCH  11  14
ENDBRANCH   1   8
BRANCH   4  22
HETATM   22  C9  UNL     1      55.813  32.628  25.024  1.00  0.00    -0.007 A 
HETATM   23  C10 UNL     1      56.347  31.479  24.471  1.00  0.00     0.014 A 
HETATM   24  C11 UNL     1      55.664  30.734  23.541  1.00  0.00     0.001 A 
HETATM   25  C12 UNL     1      54.409  31.100  23.116  1.00  0.00     0.000 A 
HETATM   26  C13 UNL     1      53.854  32.241  23.653  1.00  0.00     0.001 A 
HETATM   27  C14 UNL     1      54.557  32.981  24.590  1.00  0.00     0.014 A 
ENDBRANCH   4  22
BRANCH   5  28
HETATM   28  C16 UNL     1      58.168  34.622  24.449  1.00  0.00    -0.007 A 
HETATM   29  C17 UNL     1      58.741  35.853  24.230  1.00  0.00     0.014 A 
HETATM   30  C18 UNL     1      59.337  36.173  23.031  1.00  0.00     0.001 A 
HETATM   31  C19 UNL     1      59.372  35.253  22.008  1.00  0.00     0.000 A 
HETATM   32  C20 UNL     1      58.794  34.028  22.247  1.00  0.00     0.001 A 
HETATM   33  C21 UNL     1      58.198  33.698  23.437  1.00  0.00     0.014 A 
ENDBRANCH   5  28
TORSDOF 5
ENDMDL
MODEL 2
REMARK VINA RESULT: -11.772626542      0.072      1.220
REMARK  5 active torsions:
REMARK  status: ('A' for Active; 'I' for Inactive)
REMARK    1  A    between atoms: C1_1  and  C24_28 
REMARK    2  A    between atoms: C2_2  and  C3_3 
REMARK    3  A    between atoms: C6_6  and  C7_7 
REMARK    4  A    between atoms: C8_10  and  C9_11 
REMARK    5  A    between atoms: C15_17  and  C16_18 
ROOT
HETATM    1  C7  UNL     1      57.198  34.445  27.865  1.00  0.00     0.116 A 
HETATM    2  N1  UNL     1      56.339  33.576  27.314  1.00  0.00    -0.339 N 
ATOM      3  H1  UNL     1      55.631  33.057  27.835  1.00  0.00     0.167 HD
HETATM    4  C8  UNL     1      56.531  33.477  25.991  1.00  0.00     0.072 A 
HETATM    5  C15 UNL     1      57.577  34.342  25.708  1.00  0.00     0.072 A 
HETATM    6  N2  UNL     1      57.959  34.913  26.862  1.00  0.00    -0.339 N 
ATOM      7  H2  UNL     1      58.709  35.596  26.962  1.00  0.00     0.167 HD
ENDROOT
BRANCH   1   8
HETATM    8  C6  UNL     1      57.304  34.823  29.264  1.00  0.00     0.008 A 
HETATM    9  C5  UNL     1      58.499  35.251  29.770  1.00  0.00     0.016 A 
HETATM   10  C4  UNL     1      58.560  35.599  31.102  1.00  0.00     0.012 A 
HETATM   11  C3  UNL     1      57.456  35.520  31.908  1.00  0.00    -0.036 A 
HETATM   12  C23 UNL     1      56.221  35.079  31.392  1.00  0.00     0.012 A 
HETATM   13  C22 UNL     1      56.183  34.737  30.062  1.00  0.00     0.016 A 
BRANCH  11  14
HETATM   14  C2  UNL     1      57.528  35.885  33.307  1.00  0.00     0.012 C 
HETATM   15  C1  UNL     1      57.646  37.126  33.691  1.00  0.00     0.012 C 
BRANCH  15  16
HETATM   16  C24 UNL     1      57.720  37.503  35.091  1.00  0.00    -0.036 A 
HETATM   17  C25 UNL     1      57.445  36.541  36.057  1.00  0.00     0.011 A 
HETATM   18  C26 UNL     1      57.513  36.892  37.389  1.00  0.00     0.001 A 
HETATM   19  C27 UNL     1      57.847  38.171  37.739  1.00  0.00     0.000 A 
HETATM   20  C28 UNL     1      58.122  39.135  36.809  1.00  0.00     0.001 A 
HETATM   21  C29 UNL     1      58.053  38.778  35.455  1.00  0.00     0.011 A 
ENDBRANCH  15  16
ENDBRANCH  11  14
ENDBRANCH   1   8
BRANCH   4  22
HETATM   22  C9  UNL     1      55.819  32.652  25.019  1.00  0.00    -0.007 A 
HETATM   23  C10 UNL     1      56.338  31.499  24.462  1.00  0.00     0.014 A 
HETATM   24  C11 UNL     1      55.634  30.752  23.549  1.00  0.00     0.001 A 
HETATM   25  C12 UNL     1      54.374  31.120  23.146  1.00  0.00     0.000 A 
HETATM   26  C13 UNL     1      53.834  32.267  23.687  1.00  0.00     0.001 A 
HETATM   27  C14 UNL     1      54.557  33.009  24.606  1.00  0.00     0.014 A 
ENDBRANCH   4  22
BRANCH   5  28
HETATM   28  C16 UNL     1      58.189  34.613  24.393  1.00  0.00    -0.007 A 
HETATM   29  C17 UNL     1      58.775  35.835  24.154  1.00  0.00     0.014 A 
HETATM   30  C18 UNL     1      59.359  36.136  22.945  1.00  0.00     0.001 A 
HETATM   31  C19 UNL     1      59.370  35.204  21.931  1.00  0.00     0.000 A 
HETATM   32  C20 UNL     1      58.780  33.990  22.189  1.00  0.00     0.001 A 
HETATM   33  C21 UNL     1      58.195  33.680  23.390  1.00  0.00     0.014 A 
ENDBRANCH   5  28
TORSDOF 5
ENDMDL
MODEL 3
REMARK VINA RESULT: -11.733645831      0.131      3.358
REMARK  5 active torsions:
REMARK  status: ('A' for Active; 'I' for Inactive)
REMARK    1  A    between atoms: C1_1  and  C24_28 
REMARK    2  A    between atoms: C2_2  and  C3_3 
REMARK    3  A    between atoms: C6_6  and  C7_7 
REMARK    4  A    between atoms: C8_10  and  C9_11 
REMARK    5  A    between atoms: C15_17  and  C16_18 
ROOT
HETATM    1  C7  UNL     1      57.248  34.480  27.846  1.00  0.00     0.116 A 
HETATM    2  N1  UNL     1      58.010  34.945  26.846  1.00  0.00    -0.339 N 
ATOM      3  H1  UNL     1      58.755  35.632  26.961  1.00  0.00     0.167 HD
HETATM    4  C8  UNL     1      57.665  34.390  25.676  1.00  0.00     0.072 A 
HETATM    5  C15 UNL     1      56.621  33.527  25.974  1.00  0.00     0.072 A 
HETATM    6  N2  UNL     1      56.394  33.603  27.296  1.00  0.00    -0.339 N 
ATOM      7  H2  UNL     1      55.682  33.077  27.803  1.00  0.00     0.167 HD
ENDROOT
BRANCH   1   8
HETATM    8  C6  UNL     1      57.316  34.838  29.253  1.00  0.00     0.008 A 
HETATM    9  C5  UNL     1      56.187  34.807  30.024  1.00  0.00     0.016 A 
HETATM   10  C4  UNL     1      56.291  35.155  31.352  1.00  0.00     0.012 A 
HETATM   11  C3  UNL     1      57.491  35.524  31.898  1.00  0.00    -0.036 A 
HETATM   12  C23 UNL     1      58.658  35.558  31.109  1.00  0.00     0.012 A 
HETATM   13  C22 UNL     1      58.532  35.208  29.787  1.00  0.00     0.016 A 
BRANCH  11  14
HETATM   14  C2  UNL     1      57.593  35.890  33.295  1.00  0.00     0.012 C 
HETATM   15  C1  UNL     1      57.595  37.135  33.684  1.00  0.00     0.012 C 
BRANCH  15  16
HETATM   16  C24 UNL     1      57.696  37.512  35.083  1.00  0.00    -0.036 A 
HETATM   17  C25 UNL     1      57.411  36.558  36.054  1.00  0.00     0.011 A 
HETATM   18  C26 UNL     1      57.505  36.910  37.385  1.00  0.00     0.001 A 
HETATM   19  C27 UNL     1      57.875  38.181  37.728  1.00  0.00     0.000 A 
HETATM   20  C28 UNL     1      58.162  39.136  36.792  1.00  0.00     0.001 A 
HETATM   21  C29 UNL     1      58.066  38.779  35.440  1.00  0.00     0.011 A 
ENDBRANCH  15  16
ENDBRANCH  11  14
ENDBRANCH   1   8
BRANCH   4  22
HETATM   22  C9  UNL     1      58.233  34.614  24.350  1.00  0.00    -0.007 A 
HETATM   23  C10 UNL     1      58.218  33.672  23.337  1.00  0.00     0.014 A 
HETATM   24  C11 UNL     1      58.766  33.924  22.103  1.00  0.00     0.001 A 
HETATM   25  C12 UNL     1      59.356  35.132  21.816  1.00  0.00     0.000 A 
HETATM   26  C13 UNL     1      59.383  36.087  22.809  1.00  0.00     0.001 A 
HETATM   27  C14 UNL     1      58.827  35.817  24.049  1.00  0.00     0.014 A 
ENDBRANCH   4  22
BRANCH   5  28
HETATM   28  C16 UNL     1      55.872  32.664  25.041  1.00  0.00    -0.007 A 
HETATM   29  C17 UNL     1      54.592  33.011  24.672  1.00  0.00     0.014 A 
HETATM   30  C18 UNL     1      53.853  32.239  23.804  1.00  0.00     0.001 A 
HETATM   31  C19 UNL     1      54.387  31.084  23.278  1.00  0.00     0.000 A 
HETATM   32  C20 UNL     1      55.666  30.755  23.660  1.00  0.00     0.001 A 
HETATM   33  C21 UNL     1      56.412  31.516  24.523  1.00  0.00     0.014 A 
ENDBRANCH   5  28
TORSDOF 5
ENDMDL
MODEL 4
REMARK VINA RESULT: -11.694603607      0.172      3.361
REMARK  5 active torsions:
REMARK  status: ('A' for Active; 'I' for Inactive)
REMARK    1  A    between atoms: C1_1  and  C24_28 
REMARK    2  A    between atoms: C2_2  and  C3_3 
REMARK    3  A    between atoms: C6_6  and  C7_7 
REMARK    4  A    between atoms: C8_10  and  C9_11 
REMARK    5  A    between atoms: C15_17  and  C16_18 
ROOT
HETATM    1  C7  UNL     1      57.299  34.461  27.793  1.00  0.00     0.116 A 
HETATM    2  N1  UNL     1      58.057  34.919  26.788  1.00  0.00    -0.339 N 
ATOM      3  H1  UNL     1      58.812  35.597  26.898  1.00  0.00     0.167 HD
HETATM    4  C8  UNL     1      57.696  34.371  25.619  1.00  0.00     0.072 A 
HETATM    5  C15 UNL     1      56.645  33.520  25.924  1.00  0.00     0.072 A 
HETATM    6  N2  UNL     1      56.429  33.596  27.248  1.00  0.00    -0.339 N 
ATOM      7  H2  UNL     1      55.715  33.077  27.759  1.00  0.00     0.167 HD
ENDROOT
BRANCH   1   8
HETATM    8  C6  UNL     1      57.382  34.814  29.200  1.00  0.00     0.008 A 
HETATM    9  C5  UNL     1      58.574  35.213  29.738  1.00  0.00     0.016 A 
HETATM   10  C4  UNL     1      58.612  35.539  31.076  1.00  0.00     0.012 A 
HETATM   11  C3  UNL     1      57.490  35.468  31.858  1.00  0.00    -0.036 A 
HETATM   12  C23 UNL     1      56.258  35.058  31.309  1.00  0.00     0.012 A 
HETATM   13  C22 UNL     1      56.242  34.738  29.973  1.00  0.00     0.016 A 
BRANCH  11  14
HETATM   14  C2  UNL     1      57.538  35.810  33.263  1.00  0.00     0.012 C 
HETATM   15  C1  UNL     1      57.674  37.042  33.669  1.00  0.00     0.012 C 
BRANCH  15  16
HETATM   16  C24 UNL     1      57.725  37.396  35.076  1.00  0.00    -0.036 A 
HETATM   17  C25 UNL     1      58.050  38.702  35.425  1.00  0.00     0.011 A 
HETATM   18  C26 UNL     1      58.100  39.045  36.761  1.00  0.00     0.001 A 
HETATM   19  C27 UNL     1      57.831  38.104  37.715  1.00  0.00     0.000 A 
HETATM   20  C28 UNL     1      57.508  36.813  37.398  1.00  0.00     0.001 A 
HETATM   21  C29 UNL     1      57.457  36.465  36.041  1.00  0.00     0.011 A 
ENDBRANCH  15  16
ENDBRANCH  11  14
ENDBRANCH   1   8
BRANCH   4  22
HETATM   22  C9  UNL     1      58.256  34.592  24.289  1.00  0.00    -0.007 A 
HETATM   23  C10 UNL     1      58.198  33.664  23.266  1.00  0.00     0.014 A 
HETATM   24  C11 UNL     1      58.739  33.912  22.028  1.00  0.00     0.001 A 
HETATM   25  C12 UNL     1      59.367  35.102  21.749  1.00  0.00     0.000 A 
HETATM   26  C13 UNL     1      59.438  36.044  22.752  1.00  0.00     0.001 A 
HETATM   27  C14 UNL     1      58.887  35.778  23.995  1.00  0.00     0.014 A 
ENDBRANCH   4  22
BRANCH   5  28
HETATM   28  C16 UNL     1      55.877  32.669  24.995  1.00  0.00    -0.007 A 
HETATM   29  C17 UNL     1      54.597  33.030  24.641  1.00  0.00     0.014 A 
HETATM   30  C18 UNL     1      53.842  32.269  23.777  1.00  0.00     0.001 A 
HETATM   31  C19 UNL     1      54.359  31.112  23.241  1.00  0.00     0.000 A 
HETATM   32  C20 UNL     1      55.639  30.768  23.607  1.00  0.00     0.001 A 
HETATM   33  C21 UNL     1      56.400  31.518  24.466  1.00  0.00     0.014 A 
ENDBRANCH   5  28
TORSDOF 5
ENDMDL
MODEL 5
REMARK VINA RESULT: -11.602060039      0.178      3.417
REMARK  5 active torsions:
REMARK  status: ('A' for Active; 'I' for Inactive)
REMARK    1  A    between atoms: C1_1  and  C24_28 
REMARK    2  A    between atoms: C2_2  and  C3_3 
REMARK    3  A    between atoms: C6_6  and  C7_7 
REMARK    4  A    between atoms: C8_10  and  C9_11 
REMARK    5  A    between atoms: C15_17  and  C16_18 
ROOT
HETATM    1  C7  UNL     1      57.213  34.473  27.795  1.00  0.00     0.116 A 
HETATM    2  N1  UNL     1      57.992  34.922  26.801  1.00  0.00    -0.339 N 
ATOM      3  H1  UNL     1      58.756  35.588  26.924  1.00  0.00     0.167 HD
HETATM    4  C8  UNL     1      57.638  34.384  25.626  1.00  0.00     0.072 A 
HETATM    5  C15 UNL     1      56.570  33.549  25.915  1.00  0.00     0.072 A 
HETATM    6  N2  UNL     1      56.337  33.624  27.235  1.00  0.00    -0.339 N 
ATOM      7  H2  UNL     1      55.609  33.115  27.736  1.00  0.00     0.167 HD
ENDROOT
BRANCH   1   8
HETATM    8  C6  UNL     1      57.284  34.821  29.204  1.00  0.00     0.008 A 
HETATM    9  C5  UNL     1      56.163  34.755  29.984  1.00  0.00     0.016 A 
HETATM   10  C4  UNL     1      56.269  35.094  31.315  1.00  0.00     0.012 A 
HETATM   11  C3  UNL     1      57.464  35.490  31.854  1.00  0.00    -0.036 A 
HETATM   12  C23 UNL     1      58.623  35.559  31.056  1.00  0.00     0.012 A 
HETATM   13  C22 UNL     1      58.495  35.217  29.731  1.00  0.00     0.016 A 
BRANCH  11  14
HETATM   14  C2  UNL     1      57.568  35.846  33.253  1.00  0.00     0.012 C 
HETATM   15  C1  UNL     1      57.582  37.088  33.650  1.00  0.00     0.012 C 
BRANCH  15  16
HETATM   16  C24 UNL     1      57.686  37.456  35.050  1.00  0.00    -0.036 A 
HETATM   17  C25 UNL     1      57.397  36.498  36.016  1.00  0.00     0.011 A 
HETATM   18  C26 UNL     1      57.494  36.840  37.349  1.00  0.00     0.001 A 
HETATM   19  C27 UNL     1      57.870  38.107  37.700  1.00  0.00     0.000 A 
HETATM   20  C28 UNL     1      58.160  39.067  36.769  1.00  0.00     0.001 A 
HETATM   21  C29 UNL     1      58.062  38.719  35.415  1.00  0.00     0.011 A 
ENDBRANCH  15  16
ENDBRANCH  11  14
ENDBRANCH   1   8
BRANCH   4  22
HETATM   22  C9  UNL     1      58.219  34.600  24.304  1.00  0.00    -0.007 A 
HETATM   23  C10 UNL     1      58.832  35.776  23.916  1.00  0.00     0.014 A 
HETATM   24  C11 UNL     1      59.366  35.937  22.660  1.00  0.00     0.001 A 
HETATM   25  C12 UNL     1      59.314  34.930  21.727  1.00  0.00     0.000 A 
HETATM   26  C13 UNL     1      58.707  33.747  22.090  1.00  0.00     0.001 A 
HETATM   27  C14 UNL     1      58.173  33.600  23.360  1.00  0.00     0.014 A 
ENDBRANCH   4  22
BRANCH   5  28
HETATM   28  C16 UNL     1      55.801  32.713  24.972  1.00  0.00    -0.007 A 
HETATM   29  C17 UNL     1      56.343  31.536  24.508  1.00  0.00     0.014 A 
HETATM   30  C18 UNL     1      55.664  30.722  23.629  1.00  0.00     0.001 A 
HETATM   31  C19 UNL     1      54.409  31.075  23.187  1.00  0.00     0.000 A 
HETATM   32  C20 UNL     1      53.885  32.254  23.662  1.00  0.00     0.001 A 
HETATM   33  C21 UNL     1      54.551  33.072  24.538  1.00  0.00     0.014 A 
ENDBRANCH   5  28
TORSDOF 5
ENDMDL
