MODEL 1
REMARK VINA RESULT: -9.318724501      0.000      0.000
REMARK  14 active torsions:
REMARK  status: ('A' for Active; 'I' for Inactive)
REMARK    1  A    between atoms: C2_2  and  C3_3 
REMARK    2  A    between atoms: C3_3  and  C4_4 
REMARK    3  A    between atoms: C5_5  and  C6_6 
REMARK    4  A    between atoms: C6_6  and  C7_7 
REMARK    5  A    between atoms: C6_6  and  N1_10 
REMARK    6  A    between atoms: C7_7  and  O1_8 
REMARK    7  A    between atoms: N3_23  and  C16_24 
REMARK    8  A    between atoms: C16_24  and  C17_25 
REMARK    9  A    between atoms: C17_25  and  C18_26 
REMARK   10  A    between atoms: C26_37  and  C27_38 
REMARK   11  A    between atoms: C27_38  and  C28_39 
REMARK       I    between atoms: C28_39  and  N4_41 
REMARK   12  A    between atoms: N4_41  and  C29_43 
REMARK   13  A    between atoms: C29_43  and  C30_44 
REMARK   14  A    between atoms: C30_44  and  N5_45 
ROOT
HETATM    1  N1  UNL     1     -13.747  13.827  30.252  1.00  0.00    -0.362 N 
ATOM      2  H1  UNL     1     -13.905  13.763  29.246  1.00  0.00     0.162 HD
HETATM    3  C8  UNL     1     -12.568  14.023  30.554  1.00  0.00     0.172 C 
HETATM    4  N2  UNL     1     -11.714  14.117  29.472  1.00  0.00    -0.337 N 
ATOM      5  H2  UNL     1     -12.049  13.662  28.623  1.00  0.00     0.167 HD
HETATM    6  C9  UNL     1     -10.520  14.709  29.354  1.00  0.00     0.050 A 
HETATM    7  C10 UNL     1      -9.999  14.642  28.061  1.00  0.00     0.041 A 
HETATM    8  C11 UNL     1      -8.774  15.191  27.749  1.00  0.00    -0.019 A 
HETATM    9  C12 UNL     1      -8.041  15.822  28.726  1.00  0.00    -0.039 A 
HETATM   10  C13 UNL     1      -8.587  15.878  30.022  1.00  0.00     0.028 A 
HETATM   11  C14 UNL     1      -9.796  15.335  30.333  1.00  0.00     0.059 A 
HETATM   12  C15 UNL     1     -10.149  15.505  31.670  1.00  0.00     0.263 C 
HETATM   13  O2  UNL     1      -9.361  16.253  32.300  1.00  0.00    -0.267 OA
HETATM   14  N3  UNL     1     -11.187  14.993  32.361  1.00  0.00    -0.277 N 
HETATM   15  C22 UNL     1     -12.106  14.142  31.858  1.00  0.00     0.294 C 
HETATM   16  O4  UNL     1     -12.593  13.362  32.694  1.00  0.00    -0.264 OA
HETATM   17  C23 UNL     1      -6.727  16.450  28.583  1.00  0.00     0.113 C 
HETATM   18  S1  UNL     1      -6.261  16.773  26.861  1.00  0.00    -0.157 SA
HETATM   19  C24 UNL     1      -7.720  16.447  25.885  1.00  0.00     0.083 C 
HETATM   20  C25 UNL     1      -7.414  15.989  24.456  1.00  0.00     0.050 C 
HETATM   21  C26 UNL     1      -8.667  15.182  24.199  1.00  0.00     0.132 C 
HETATM   22  O6  UNL     1      -9.259  14.910  25.434  1.00  0.00    -0.374 OA
HETATM   23  C35 UNL     1      -8.271  15.104  26.391  1.00  0.00     0.169 C 
ENDROOT
BRANCH  21  24
HETATM   24  C27 UNL     1      -9.674  15.955  23.382  1.00  0.00     0.134 C 
BRANCH  24  25
HETATM   25  C28 UNL     1      -9.350  15.999  21.938  1.00  0.00     0.220 C 
HETATM   26  O5  UNL     1      -9.473  14.946  21.266  1.00  0.00    -0.274 OA
HETATM   27  N4  UNL     1      -8.909  17.184  21.301  1.00  0.00    -0.359 N 
ATOM     28  H4  UNL     1      -8.819  18.022  21.877  1.00  0.00     0.162 HD
BRANCH  27  29
HETATM   29  C29 UNL     1      -8.580  17.301  19.903  1.00  0.00     0.152 C 
BRANCH  29  30
HETATM   30  C30 UNL     1      -7.224  17.864  19.638  1.00  0.00     0.292 C 
BRANCH  30  31
HETATM   31  N5  UNL     1      -6.255  17.215  20.491  1.00  0.00     0.090 N 
HETATM   32  C31 UNL     1      -5.068  18.073  20.449  1.00  0.00     0.272 C 
HETATM   33  C32 UNL     1      -4.329  17.659  19.197  1.00  0.00     0.032 C 
HETATM   34  C33 UNL     1      -4.987  16.389  18.696  1.00  0.00     0.032 C 
HETATM   35  C34 UNL     1      -5.825  15.976  19.876  1.00  0.00     0.272 C 
ENDBRANCH  30  31
ENDBRANCH  29  30
ENDBRANCH  27  29
ENDBRANCH  24  25
ENDBRANCH  21  24
BRANCH   1  36
HETATM   36  C6  UNL     1     -14.969  13.666  31.048  1.00  0.00     0.129 C 
BRANCH  36  37
HETATM   37  C5  UNL     1     -15.682  12.499  30.466  1.00  0.00    -0.004 C 
HETATM   38  C4  UNL     1     -15.106  11.234  30.105  1.00  0.00    -0.029 C 
BRANCH  38  39
HETATM   39  C3  UNL     1     -14.504  10.275  31.027  1.00  0.00     0.026 C 
BRANCH  39  40
HETATM   40  C2  UNL     1     -12.985  10.127  30.832  1.00  0.00    -0.001 C 
HETATM   41  C1  UNL     1     -12.599   8.694  31.187  1.00  0.00     0.005 C 
ENDBRANCH  39  40
ENDBRANCH  38  39
ENDBRANCH  36  37
BRANCH  36  42
HETATM   42  C7  UNL     1     -15.661  14.952  31.198  1.00  0.00     0.193 C 
BRANCH  42  43
HETATM   43  O1  UNL     1     -15.220  15.862  32.109  1.00  0.00    -0.399 OA
ATOM     44  H1  UNL     1     -15.533  15.829  33.005  1.00  0.00     0.209 HD
ENDBRANCH  42  43
ENDBRANCH  36  42
ENDBRANCH   1  36
BRANCH  14  45
HETATM   45  C16 UNL     1     -11.324  15.391  33.746  1.00  0.00     0.138 C 
BRANCH  45  46
HETATM   46  C17 UNL     1     -10.285  14.758  34.634  1.00  0.00     0.052 C 
BRANCH  46  47
HETATM   47  C18 UNL     1     -11.014  14.089  35.783  1.00  0.00     0.123 C 
HETATM   48  C19 UNL     1     -11.179  12.612  35.595  1.00  0.00     0.034 C 
HETATM   49  C20 UNL     1     -12.386  12.283  36.452  1.00  0.00     0.029 C 
HETATM   50  C21 UNL     1     -12.958  13.654  36.711  1.00  0.00     0.168 C 
HETATM   51  O3  UNL     1     -12.323  14.544  35.867  1.00  0.00    -0.386 OA
ENDBRANCH  46  47
ENDBRANCH  45  46
ENDBRANCH  14  45
TORSDOF 14
ENDMDL
MODEL 2
REMARK VINA RESULT: -9.194965020      2.961     12.809
REMARK  14 active torsions:
REMARK  status: ('A' for Active; 'I' for Inactive)
REMARK    1  A    between atoms: C2_2  and  C3_3 
REMARK    2  A    between atoms: C3_3  and  C4_4 
REMARK    3  A    between atoms: C5_5  and  C6_6 
REMARK    4  A    between atoms: C6_6  and  C7_7 
REMARK    5  A    between atoms: C6_6  and  N1_10 
REMARK    6  A    between atoms: C7_7  and  O1_8 
REMARK    7  A    between atoms: N3_23  and  C16_24 
REMARK    8  A    between atoms: C16_24  and  C17_25 
REMARK    9  A    between atoms: C17_25  and  C18_26 
REMARK   10  A    between atoms: C26_37  and  C27_38 
REMARK   11  A    between atoms: C27_38  and  C28_39 
REMARK       I    between atoms: C28_39  and  N4_41 
REMARK   12  A    between atoms: N4_41  and  C29_43 
REMARK   13  A    between atoms: C29_43  and  C30_44 
REMARK   14  A    between atoms: C30_44  and  N5_45 
ROOT
HETATM    1  N1  UNL     1      -5.240  18.696  24.504  1.00  0.00    -0.362 N 
ATOM      2  H1  UNL     1      -5.079  18.789  25.506  1.00  0.00     0.162 HD
HETATM    3  C8  UNL     1      -6.025  17.791  24.212  1.00  0.00     0.172 C 
HETATM    4  N2  UNL     1      -6.519  17.098  25.301  1.00  0.00    -0.337 N 
ATOM      5  H2  UNL     1      -5.935  17.142  26.136  1.00  0.00     0.167 HD
HETATM    6  C9  UNL     1      -7.639  16.380  25.440  1.00  0.00     0.050 A 
HETATM    7  C10 UNL     1      -7.818  15.887  26.734  1.00  0.00     0.041 A 
HETATM    8  C11 UNL     1      -8.913  15.118  27.066  1.00  0.00    -0.019 A 
HETATM    9  C12 UNL     1      -9.856  14.826  26.110  1.00  0.00    -0.039 A 
HETATM   10  C13 UNL     1      -9.655  15.335  24.812  1.00  0.00     0.028 A 
HETATM   11  C14 UNL     1      -8.573  16.093  24.482  1.00  0.00     0.059 A 
HETATM   12  C15 UNL     1      -8.570  16.496  23.148  1.00  0.00     0.263 C 
HETATM   13  O2  UNL     1      -9.634  16.213  22.542  1.00  0.00    -0.267 OA
HETATM   14  N3  UNL     1      -7.614  17.128  22.439  1.00  0.00    -0.277 N 
HETATM   15  C22 UNL     1      -6.398  17.469  22.914  1.00  0.00     0.294 C 
HETATM   16  O4  UNL     1      -5.499  17.492  22.055  1.00  0.00    -0.264 OA
HETATM   17  C23 UNL     1     -11.069  14.023  26.275  1.00  0.00     0.113 C 
HETATM   18  S1  UNL     1     -11.542  13.775  28.008  1.00  0.00    -0.157 SA
HETATM   19  C24 UNL     1     -10.485  14.846  28.967  1.00  0.00     0.083 C 
HETATM   20  C25 UNL     1     -10.215  14.335  30.385  1.00  0.00     0.050 C 
HETATM   21  C26 UNL     1      -8.870  14.988  30.615  1.00  0.00     0.132 C 
HETATM   22  O6  UNL     1      -8.363  15.366  29.370  1.00  0.00    -0.374 OA
HETATM   23  C35 UNL     1      -9.063  14.630  28.423  1.00  0.00     0.169 C 
ENDROOT
BRANCH  21  24
HETATM   24  C27 UNL     1      -8.992  16.242  31.447  1.00  0.00     0.134 C 
BRANCH  24  25
HETATM   25  C28 UNL     1      -9.248  15.973  32.880  1.00  0.00     0.220 C 
HETATM   26  O5  UNL     1      -8.315  15.501  33.576  1.00  0.00    -0.274 OA
HETATM   27  N4  UNL     1     -10.503  16.231  33.482  1.00  0.00    -0.359 N 
ATOM     28  H4  UNL     1     -11.240  16.613  32.888  1.00  0.00     0.162 HD
BRANCH  27  29
HETATM   29  C29 UNL     1     -10.823  15.998  34.868  1.00  0.00     0.152 C 
BRANCH  29  30
HETATM   30  C30 UNL     1     -12.001  15.111  35.084  1.00  0.00     0.292 C 
BRANCH  30  31
HETATM   31  N5  UNL     1     -11.877  13.930  34.259  1.00  0.00     0.090 N 
HETATM   32  C31 UNL     1     -13.186  13.274  34.326  1.00  0.00     0.272 C 
HETATM   33  C32 UNL     1     -13.152  12.459  35.599  1.00  0.00     0.032 C 
HETATM   34  C33 UNL     1     -11.719  12.470  36.091  1.00  0.00     0.032 C 
HETATM   35  C34 UNL     1     -10.973  12.993  34.893  1.00  0.00     0.272 C 
ENDBRANCH  30  31
ENDBRANCH  29  30
ENDBRANCH  27  29
ENDBRANCH  24  25
ENDBRANCH  21  24
BRANCH   1  36
HETATM   36  C6  UNL     1      -4.491  19.667  23.697  1.00  0.00     0.129 C 
BRANCH  36  37
HETATM   37  C5  UNL     1      -3.071  19.529  24.111  1.00  0.00    -0.004 C 
HETATM   38  C4  UNL     1      -2.406  18.318  24.506  1.00  0.00    -0.029 C 
BRANCH  38  39
HETATM   39  C3  UNL     1      -2.164  17.158  23.652  1.00  0.00     0.026 C 
BRANCH  39  40
HETATM   40  C2  UNL     1      -1.882  17.539  22.189  1.00  0.00    -0.001 C 
HETATM   41  C1  UNL     1      -2.192  16.326  21.316  1.00  0.00     0.005 C 
ENDBRANCH  39  40
ENDBRANCH  38  39
ENDBRANCH  36  37
BRANCH  36  42
HETATM   42  C7  UNL     1      -5.143  20.983  23.734  1.00  0.00     0.193 C 
BRANCH  42  43
HETATM   43  O1  UNL     1      -5.889  21.404  22.677  1.00  0.00    -0.399 OA
ATOM     44  H1  UNL     1      -5.618  22.165  22.177  1.00  0.00     0.209 HD
ENDBRANCH  42  43
ENDBRANCH  36  42
ENDBRANCH   1  36
BRANCH  14  45
HETATM   45  C16 UNL     1      -7.919  17.463  21.064  1.00  0.00     0.138 C 
BRANCH  45  46
HETATM   46  C17 UNL     1      -7.880  16.263  20.154  1.00  0.00     0.052 C 
BRANCH  46  47
HETATM   47  C18 UNL     1      -6.894  16.565  19.042  1.00  0.00     0.123 C 
HETATM   48  C19 UNL     1      -5.549  15.946  19.265  1.00  0.00     0.034 C 
HETATM   49  C20 UNL     1      -4.620  16.829  18.453  1.00  0.00     0.029 C 
HETATM   50  C21 UNL     1      -5.495  18.027  18.185  1.00  0.00     0.168 C 
HETATM   51  O3  UNL     1      -6.612  17.923  18.991  1.00  0.00    -0.386 OA
ENDBRANCH  46  47
ENDBRANCH  45  46
ENDBRANCH  14  45
TORSDOF 14
ENDMDL
MODEL 3
REMARK VINA RESULT: -9.018764934      2.729      5.435
REMARK  14 active torsions:
REMARK  status: ('A' for Active; 'I' for Inactive)
REMARK    1  A    between atoms: C2_2  and  C3_3 
REMARK    2  A    between atoms: C3_3  and  C4_4 
REMARK    3  A    between atoms: C5_5  and  C6_6 
REMARK    4  A    between atoms: C6_6  and  C7_7 
REMARK    5  A    between atoms: C6_6  and  N1_10 
REMARK    6  A    between atoms: C7_7  and  O1_8 
REMARK    7  A    between atoms: N3_23  and  C16_24 
REMARK    8  A    between atoms: C16_24  and  C17_25 
REMARK    9  A    between atoms: C17_25  and  C18_26 
REMARK   10  A    between atoms: C26_37  and  C27_38 
REMARK   11  A    between atoms: C27_38  and  C28_39 
REMARK       I    between atoms: C28_39  and  N4_41 
REMARK   12  A    between atoms: N4_41  and  C29_43 
REMARK   13  A    between atoms: C29_43  and  C30_44 
REMARK   14  A    between atoms: C30_44  and  N5_45 
ROOT
HETATM    1  N1  UNL     1      -8.859  15.910  30.819  1.00  0.00    -0.362 N 
ATOM      2  H1  UNL     1      -7.889  16.219  30.751  1.00  0.00     0.162 HD
HETATM    3  C8  UNL     1      -9.502  16.074  29.780  1.00  0.00     0.172 C 
HETATM    4  N2  UNL     1      -8.775  16.635  28.747  1.00  0.00    -0.337 N 
ATOM      5  H2  UNL     1      -7.962  17.175  29.041  1.00  0.00     0.167 HD
HETATM    6  C9  UNL     1      -8.964  16.586  27.424  1.00  0.00     0.050 A 
HETATM    7  C10 UNL     1      -7.959  17.233  26.702  1.00  0.00     0.041 A 
HETATM    8  C11 UNL     1      -7.987  17.292  25.324  1.00  0.00    -0.019 A 
HETATM    9  C12 UNL     1      -9.021  16.703  24.637  1.00  0.00    -0.039 A 
HETATM   10  C13 UNL     1     -10.022  16.056  25.387  1.00  0.00     0.028 A 
HETATM   11  C14 UNL     1      -9.997  15.997  26.747  1.00  0.00     0.059 A 
HETATM   12  C15 UNL     1     -11.080  15.307  27.288  1.00  0.00     0.263 C 
HETATM   13  O2  UNL     1     -11.792  14.742  26.420  1.00  0.00    -0.267 OA
HETATM   14  N3  UNL     1     -11.459  15.166  28.573  1.00  0.00    -0.277 N 
HETATM   15  C22 UNL     1     -10.840  15.735  29.629  1.00  0.00     0.294 C 
HETATM   16  O4  UNL     1     -11.589  15.986  30.589  1.00  0.00    -0.264 OA
HETATM   17  C23 UNL     1      -9.220  16.673  23.188  1.00  0.00     0.113 C 
HETATM   18  S1  UNL     1      -7.729  17.090  22.243  1.00  0.00    -0.157 SA
HETATM   19  C24 UNL     1      -6.395  17.147  23.426  1.00  0.00     0.083 C 
HETATM   20  C25 UNL     1      -5.263  18.101  23.032  1.00  0.00     0.050 C 
HETATM   21  C26 UNL     1      -4.749  18.434  24.415  1.00  0.00     0.132 C 
HETATM   22  O6  UNL     1      -5.738  18.077  25.334  1.00  0.00    -0.374 OA
HETATM   23  C35 UNL     1      -6.920  17.970  24.613  1.00  0.00     0.169 C 
ENDROOT
BRANCH  21  24
HETATM   24  C27 UNL     1      -3.512  17.640  24.758  1.00  0.00     0.134 C 
BRANCH  24  25
HETATM   25  C28 UNL     1      -2.568  17.503  23.626  1.00  0.00     0.220 C 
HETATM   26  O5  UNL     1      -1.836  18.480  23.336  1.00  0.00    -0.274 OA
HETATM   27  N4  UNL     1      -2.469  16.311  22.868  1.00  0.00    -0.359 N 
ATOM     28  H4  UNL     1      -3.080  15.536  23.129  1.00  0.00     0.162 HD
BRANCH  27  29
HETATM   29  C29 UNL     1      -1.574  16.105  21.757  1.00  0.00     0.152 C 
BRANCH  29  30
HETATM   30  C30 UNL     1      -2.259  15.838  20.460  1.00  0.00     0.292 C 
BRANCH  30  31
HETATM   31  N5  UNL     1      -3.238  16.870  20.207  1.00  0.00     0.090 N 
HETATM   32  C31 UNL     1      -4.454  16.157  19.805  1.00  0.00     0.272 C 
HETATM   33  C32 UNL     1      -4.277  15.883  18.329  1.00  0.00     0.032 C 
HETATM   34  C33 UNL     1      -3.073  16.681  17.873  1.00  0.00     0.032 C 
HETATM   35  C34 UNL     1      -2.855  17.620  19.029  1.00  0.00     0.272 C 
ENDBRANCH  30  31
ENDBRANCH  29  30
ENDBRANCH  27  29
ENDBRANCH  24  25
ENDBRANCH  21  24
BRANCH   1  36
HETATM   36  C6  UNL     1      -9.208  15.362  32.134  1.00  0.00     0.129 C 
BRANCH  36  37
HETATM   37  C5  UNL     1      -9.108  16.497  33.088  1.00  0.00    -0.004 C 
HETATM   38  C4  UNL     1      -9.787  16.622  34.348  1.00  0.00    -0.029 C 
BRANCH  38  39
HETATM   39  C3  UNL     1      -9.594  15.761  35.512  1.00  0.00     0.026 C 
BRANCH  39  40
HETATM   40  C2  UNL     1     -10.532  14.542  35.518  1.00  0.00    -0.001 C 
HETATM   41  C1  UNL     1     -11.951  15.035  35.251  1.00  0.00     0.005 C 
ENDBRANCH  39  40
ENDBRANCH  38  39
ENDBRANCH  36  37
BRANCH  36  42
HETATM   42  C7  UNL     1      -8.469  14.119  32.389  1.00  0.00     0.193 C 
BRANCH  42  43
HETATM   43  O1  UNL     1      -8.193  13.267  31.364  1.00  0.00    -0.399 OA
ATOM     44  H1  UNL     1      -8.253  12.328  31.497  1.00  0.00     0.209 HD
ENDBRANCH  42  43
ENDBRANCH  36  42
ENDBRANCH   1  36
BRANCH  14  45
HETATM   45  C16 UNL     1     -12.618  14.340  28.837  1.00  0.00     0.138 C 
BRANCH  45  46
HETATM   46  C17 UNL     1     -12.254  13.006  29.435  1.00  0.00     0.052 C 
BRANCH  46  47
HETATM   47  C18 UNL     1     -13.273  12.698  30.516  1.00  0.00     0.123 C 
HETATM   48  C19 UNL     1     -14.544  13.475  30.365  1.00  0.00     0.034 C 
HETATM   49  C20 UNL     1     -15.104  13.503  31.774  1.00  0.00     0.029 C 
HETATM   50  C21 UNL     1     -13.912  13.065  32.585  1.00  0.00     0.168 C 
HETATM   51  O3  UNL     1     -12.804  13.096  31.760  1.00  0.00    -0.386 OA
ENDBRANCH  46  47
ENDBRANCH  45  46
ENDBRANCH  14  45
TORSDOF 14
ENDMDL
MODEL 4
REMARK VINA RESULT: -9.001249621      2.811     11.695
REMARK  14 active torsions:
REMARK  status: ('A' for Active; 'I' for Inactive)
REMARK    1  A    between atoms: C2_2  and  C3_3 
REMARK    2  A    between atoms: C3_3  and  C4_4 
REMARK    3  A    between atoms: C5_5  and  C6_6 
REMARK    4  A    between atoms: C6_6  and  C7_7 
REMARK    5  A    between atoms: C6_6  and  N1_10 
REMARK    6  A    between atoms: C7_7  and  O1_8 
REMARK    7  A    between atoms: N3_23  and  C16_24 
REMARK    8  A    between atoms: C16_24  and  C17_25 
REMARK    9  A    between atoms: C17_25  and  C18_26 
REMARK   10  A    between atoms: C26_37  and  C27_38 
REMARK   11  A    between atoms: C27_38  and  C28_39 
REMARK       I    between atoms: C28_39  and  N4_41 
REMARK   12  A    between atoms: N4_41  and  C29_43 
REMARK   13  A    between atoms: C29_43  and  C30_44 
REMARK   14  A    between atoms: C30_44  and  N5_45 
ROOT
HETATM    1  N1  UNL     1      -9.349  15.638  23.900  1.00  0.00    -0.362 N 
ATOM      2  H1  UNL     1     -10.075  14.925  23.961  1.00  0.00     0.162 HD
HETATM    3  C8  UNL     1      -9.207  16.288  24.938  1.00  0.00     0.172 C 
HETATM    4  N2  UNL     1     -10.057  15.912  25.960  1.00  0.00    -0.337 N 
ATOM      5  H2  UNL     1     -10.910  15.444  25.656  1.00  0.00     0.167 HD
HETATM    6  C9  UNL     1      -9.943  16.062  27.285  1.00  0.00     0.050 A 
HETATM    7  C10 UNL     1     -10.995  15.480  27.995  1.00  0.00     0.041 A 
HETATM    8  C11 UNL     1     -11.053  15.538  29.371  1.00  0.00    -0.019 A 
HETATM    9  C12 UNL     1     -10.059  16.180  30.069  1.00  0.00    -0.039 A 
HETATM   10  C13 UNL     1      -9.009  16.759  29.332  1.00  0.00     0.028 A 
HETATM   11  C14 UNL     1      -8.949  16.704  27.973  1.00  0.00     0.059 A 
HETATM   12  C15 UNL     1      -7.826  17.337  27.444  1.00  0.00     0.263 C 
HETATM   13  O2  UNL     1      -7.006  17.706  28.322  1.00  0.00    -0.267 OA
HETATM   14  N3  UNL     1      -7.506  17.599  26.162  1.00  0.00    -0.277 N 
HETATM   15  C22 UNL     1      -8.284  17.313  25.097  1.00  0.00     0.294 C 
HETATM   16  O4  UNL     1      -8.143  18.088  24.135  1.00  0.00    -0.264 OA
HETATM   17  C23 UNL     1      -9.960  16.350  31.520  1.00  0.00     0.113 C 
HETATM   18  S1  UNL     1     -11.037  15.230  32.455  1.00  0.00    -0.157 SA
HETATM   19  C24 UNL     1     -11.695  14.071  31.268  1.00  0.00     0.083 C 
HETATM   20  C25 UNL     1     -13.073  13.519  31.646  1.00  0.00     0.050 C 
HETATM   21  C26 UNL     1     -13.588  13.213  30.257  1.00  0.00     0.132 C 
HETATM   22  O6  UNL     1     -12.798  13.916  29.345  1.00  0.00    -0.374 OA
HETATM   23  C35 UNL     1     -12.161  14.916  30.070  1.00  0.00     0.169 C 
ENDROOT
BRANCH  21  24
HETATM   24  C27 UNL     1     -13.459  11.747  29.922  1.00  0.00     0.134 C 
BRANCH  24  25
HETATM   25  C28 UNL     1     -13.825  10.853  31.045  1.00  0.00     0.220 C 
HETATM   26  O5  UNL     1     -15.041  10.690  31.307  1.00  0.00    -0.274 OA
HETATM   27  N4  UNL     1     -12.849  10.184  31.823  1.00  0.00    -0.359 N 
ATOM     28  H4  UNL     1     -11.870  10.339  31.583  1.00  0.00     0.162 HD
BRANCH  27  29
HETATM   29  C29 UNL     1     -13.131   9.299  32.925  1.00  0.00     0.152 C 
BRANCH  29  30
HETATM   30  C30 UNL     1     -12.568   9.749  34.230  1.00  0.00     0.292 C 
BRANCH  30  31
HETATM   31  N5  UNL     1     -13.106  11.047  34.569  1.00  0.00     0.090 N 
HETATM   32  C31 UNL     1     -11.939  11.887  34.850  1.00  0.00     0.272 C 
HETATM   33  C32 UNL     1     -11.582  11.595  36.289  1.00  0.00     0.032 C 
HETATM   34  C33 UNL     1     -12.724  10.785  36.871  1.00  0.00     0.032 C 
HETATM   35  C34 UNL     1     -13.803  10.964  35.836  1.00  0.00     0.272 C 
ENDBRANCH  30  31
ENDBRANCH  29  30
ENDBRANCH  27  29
ENDBRANCH  24  25
ENDBRANCH  21  24
BRANCH   1  36
HETATM   36  C6  UNL     1      -8.682  15.685  22.593  1.00  0.00     0.129 C 
BRANCH  36  37
HETATM   37  C5  UNL     1      -9.691  16.217  21.641  1.00  0.00    -0.004 C 
HETATM   38  C4  UNL     1      -9.429  16.852  20.378  1.00  0.00    -0.029 C 
BRANCH  38  39
HETATM   39  C3  UNL     1      -8.815  16.218  19.214  1.00  0.00     0.026 C 
BRANCH  39  40
HETATM   40  C2  UNL     1      -7.281  16.336  19.206  1.00  0.00    -0.001 C 
HETATM   41  C1  UNL     1      -6.920  17.811  19.363  1.00  0.00     0.005 C 
ENDBRANCH  39  40
ENDBRANCH  38  39
ENDBRANCH  36  37
BRANCH  36  42
HETATM   42  C7  UNL     1      -8.005  14.412  22.312  1.00  0.00     0.193 C 
BRANCH  42  43
HETATM   43  O1  UNL     1      -7.377  13.738  23.314  1.00  0.00    -0.399 OA
ATOM     44  H1  UNL     1      -7.770  13.694  24.178  1.00  0.00     0.209 HD
ENDBRANCH  42  43
ENDBRANCH  36  42
ENDBRANCH   1  36
BRANCH  14  45
HETATM   45  C16 UNL     1      -6.231  18.237  25.913  1.00  0.00     0.138 C 
BRANCH  45  46
HETATM   46  C17 UNL     1      -5.219  17.294  25.318  1.00  0.00     0.052 C 
BRANCH  46  47
HETATM   47  C18 UNL     1      -4.458  18.055  24.249  1.00  0.00     0.123 C 
HETATM   48  C19 UNL     1      -4.557  19.541  24.403  1.00  0.00     0.034 C 
HETATM   49  C20 UNL     1      -4.303  20.055  22.998  1.00  0.00     0.029 C 
HETATM   50  C21 UNL     1      -4.459  18.797  22.182  1.00  0.00     0.168 C 
HETATM   51  O3  UNL     1      -5.012  17.829  22.997  1.00  0.00    -0.386 OA
ENDBRANCH  46  47
ENDBRANCH  45  46
ENDBRANCH  14  45
TORSDOF 14
ENDMDL
MODEL 5
REMARK VINA RESULT: -8.960342294      3.117     12.650
REMARK  14 active torsions:
REMARK  status: ('A' for Active; 'I' for Inactive)
REMARK    1  A    between atoms: C2_2  and  C3_3 
REMARK    2  A    between atoms: C3_3  and  C4_4 
REMARK    3  A    between atoms: C5_5  and  C6_6 
REMARK    4  A    between atoms: C6_6  and  C7_7 
REMARK    5  A    between atoms: C6_6  and  N1_10 
REMARK    6  A    between atoms: C7_7  and  O1_8 
REMARK    7  A    between atoms: N3_23  and  C16_24 
REMARK    8  A    between atoms: C16_24  and  C17_25 
REMARK    9  A    between atoms: C17_25  and  C18_26 
REMARK   10  A    between atoms: C26_37  and  C27_38 
REMARK   11  A    between atoms: C27_38  and  C28_39 
REMARK       I    between atoms: C28_39  and  N4_41 
REMARK   12  A    between atoms: N4_41  and  C29_43 
REMARK   13  A    between atoms: C29_43  and  C30_44 
REMARK   14  A    between atoms: C30_44  and  N5_45 
ROOT
HETATM    1  N1  UNL     1      -5.200  18.059  25.220  1.00  0.00    -0.362 N 
ATOM      2  H1  UNL     1      -5.003  18.091  26.220  1.00  0.00     0.162 HD
HETATM    3  C8  UNL     1      -6.146  17.325  24.927  1.00  0.00     0.172 C 
HETATM    4  N2  UNL     1      -6.739  16.707  26.012  1.00  0.00    -0.337 N 
ATOM      5  H2  UNL     1      -6.140  16.617  26.832  1.00  0.00     0.167 HD
HETATM    6  C9  UNL     1      -7.971  16.208  26.162  1.00  0.00     0.050 A 
HETATM    7  C10 UNL     1      -8.213  15.720  27.448  1.00  0.00     0.041 A 
HETATM    8  C11 UNL     1      -9.426  15.162  27.790  1.00  0.00    -0.019 A 
HETATM    9  C12 UNL     1     -10.427  15.078  26.852  1.00  0.00    -0.039 A 
HETATM   10  C13 UNL     1     -10.160  15.577  25.562  1.00  0.00     0.028 A 
HETATM   11  C14 UNL     1      -8.963  16.128  25.222  1.00  0.00     0.059 A 
HETATM   12  C15 UNL     1      -8.912  16.561  23.898  1.00  0.00     0.263 C 
HETATM   13  O2  UNL     1     -10.022  16.499  23.314  1.00  0.00    -0.267 OA
HETATM   14  N3  UNL     1      -7.869  17.022  23.180  1.00  0.00    -0.277 N 
HETATM   15  C22 UNL     1      -6.601  17.116  23.632  1.00  0.00     0.294 C 
HETATM   16  O4  UNL     1      -5.732  16.994  22.751  1.00  0.00    -0.264 OA
HETATM   17  C23 UNL     1     -11.765  14.513  27.029  1.00  0.00     0.113 C 
HETATM   18  S1  UNL     1     -12.241  14.309  28.767  1.00  0.00    -0.157 SA
HETATM   19  C24 UNL     1     -10.981  15.135  29.724  1.00  0.00     0.083 C 
HETATM   20  C25 UNL     1     -10.782  14.542  31.122  1.00  0.00     0.050 C 
HETATM   21  C26 UNL     1      -9.334  14.925  31.332  1.00  0.00     0.132 C 
HETATM   22  O6  UNL     1      -8.791  15.237  30.084  1.00  0.00    -0.374 OA
HETATM   23  C35 UNL     1      -9.637  14.672  29.138  1.00  0.00     0.169 C 
ENDROOT
BRANCH  21  24
HETATM   24  C27 UNL     1      -9.201  16.156  32.197  1.00  0.00     0.134 C 
BRANCH  24  25
HETATM   25  C28 UNL     1      -9.816  16.003  33.535  1.00  0.00     0.220 C 
HETATM   26  O5  UNL     1     -10.534  16.935  33.973  1.00  0.00    -0.274 OA
HETATM   27  N4  UNL     1      -9.620  14.845  34.327  1.00  0.00    -0.359 N 
ATOM     28  H4  UNL     1      -9.029  14.107  33.942  1.00  0.00     0.162 HD
BRANCH  27  29
HETATM   29  C29 UNL     1     -10.188  14.627  35.632  1.00  0.00     0.152 C 
BRANCH  29  30
HETATM   30  C30 UNL     1     -11.542  14.003  35.615  1.00  0.00     0.292 C 
BRANCH  30  31
HETATM   31  N5  UNL     1     -11.592  12.983  34.592  1.00  0.00     0.090 N 
HETATM   32  C31 UNL     1     -12.868  13.194  33.901  1.00  0.00     0.272 C 
HETATM   33  C32 UNL     1     -13.896  12.477  34.747  1.00  0.00     0.032 C 
HETATM   34  C33 UNL     1     -13.132  11.654  35.765  1.00  0.00     0.032 C 
HETATM   35  C34 UNL     1     -11.731  11.683  35.214  1.00  0.00     0.272 C 
ENDBRANCH  30  31
ENDBRANCH  29  30
ENDBRANCH  27  29
ENDBRANCH  24  25
ENDBRANCH  21  24
BRANCH   1  36
HETATM   36  C6  UNL     1      -4.299  18.894  24.418  1.00  0.00     0.129 C 
BRANCH  36  37
HETATM   37  C5  UNL     1      -2.939  18.328  24.612  1.00  0.00    -0.004 C 
HETATM   38  C4  UNL     1      -2.429  17.108  24.048  1.00  0.00    -0.029 C 
BRANCH  38  39
HETATM   39  C3  UNL     1      -2.225  16.845  22.626  1.00  0.00     0.026 C 
BRANCH  39  40
HETATM   40  C2  UNL     1      -1.351  15.606  22.365  1.00  0.00    -0.001 C 
HETATM   41  C1  UNL     1      -1.067  14.936  23.706  1.00  0.00     0.005 C 
ENDBRANCH  39  40
ENDBRANCH  38  39
ENDBRANCH  36  37
BRANCH  36  42
HETATM   42  C7  UNL     1      -4.546  20.319  24.678  1.00  0.00     0.193 C 
BRANCH  42  43
HETATM   43  O1  UNL     1      -3.680  21.258  24.210  1.00  0.00    -0.399 OA
ATOM     44  H1  UNL     1      -3.984  22.140  24.034  1.00  0.00     0.209 HD
ENDBRANCH  42  43
ENDBRANCH  36  42
ENDBRANCH   1  36
BRANCH  14  45
HETATM   45  C16 UNL     1      -8.134  17.447  21.822  1.00  0.00     0.138 C 
BRANCH  45  46
HETATM   46  C17 UNL     1      -8.284  16.288  20.872  1.00  0.00     0.052 C 
BRANCH  46  47
HETATM   47  C18 UNL     1      -7.449  16.594  19.643  1.00  0.00     0.123 C 
HETATM   48  C19 UNL     1      -6.124  15.898  19.644  1.00  0.00     0.034 C 
HETATM   49  C20 UNL     1      -5.270  16.772  18.744  1.00  0.00     0.029 C 
HETATM   50  C21 UNL     1      -6.105  18.024  18.655  1.00  0.00     0.168 C 
HETATM   51  O3  UNL     1      -7.101  17.937  19.608  1.00  0.00    -0.386 OA
ENDBRANCH  46  47
ENDBRANCH  45  46
ENDBRANCH  14  45
TORSDOF 14
ENDMDL
