MODEL 1
REMARK VINA RESULT: -7.970697729      0.000      0.000
REMARK  13 active torsions:
REMARK  status: ('A' for Active; 'I' for Inactive)
REMARK    1  A    between atoms: C2_2  and  C3_3 
REMARK    2  A    between atoms: C3_3  and  C4_4 
REMARK    3  A    between atoms: C4_4  and  N1_5 
REMARK    4  A    between atoms: N1_5  and  C5_6 
REMARK    5  A    between atoms: N1_5  and  C13_15 
REMARK    6  A    between atoms: C5_6  and  C6_7 
REMARK    7  A    between atoms: C9_10  and  S1_11 
REMARK    8  A    between atoms: C13_15  and  C14_16 
REMARK    9  A    between atoms: C21_24  and  N2_25 
REMARK       I    between atoms: N3_28  and  C24_29 
REMARK   10  A    between atoms: C24_29  and  C25_31 
REMARK   11  A    between atoms: C25_31  and  C26_32 
REMARK   12  A    between atoms: C26_32  and  C27_33 
REMARK   13  A    between atoms: C27_33  and  N4_34 
ROOT
HETATM    1  C14 UNL     1      63.221  82.327  63.667  1.00  0.00     0.002 A 
HETATM    2  C15 UNL     1      64.516  82.394  63.253  1.00  0.00     0.016 A 
HETATM    3  C16 UNL     1      65.179  81.222  62.959  1.00  0.00     0.021 A 
HETATM    4  C17 UNL     1      64.507  79.996  63.090  1.00  0.00     0.017 A 
HETATM    5  S2  UNL     1      64.961  78.372  62.836  1.00  0.00    -0.101 SA
HETATM    6  C18 UNL     1      63.505  77.611  63.255  1.00  0.00     0.051 A 
HETATM    7  C19 UNL     1      62.684  78.653  63.589  1.00  0.00     0.022 A 
HETATM    8  C20 UNL     1      63.201  79.904  63.505  1.00  0.00     0.009 A 
HETATM    9  C21 UNL     1      62.540  81.105  63.802  1.00  0.00     0.053 A 
ENDROOT
BRANCH   1  10
HETATM   10  C13 UNL     1      62.458  83.555  63.928  1.00  0.00     0.073 C 
BRANCH  10  11
HETATM   11  N1  UNL     1      62.481  84.485  62.877  1.00  0.00    -0.288 NA
BRANCH  11  12
HETATM   12  C4  UNL     1      62.857  85.821  63.223  1.00  0.00     0.095 C 
BRANCH  12  13
HETATM   13  C3  UNL     1      64.319  86.033  62.982  1.00  0.00     0.014 C 
BRANCH  13  14
HETATM   14  C2  UNL     1      64.612  87.326  62.258  1.00  0.00    -0.003 C 
HETATM   15  C1  UNL     1      63.443  87.863  61.496  1.00  0.00     0.005 C 
ENDBRANCH  13  14
ENDBRANCH  12  13
ENDBRANCH  11  12
BRANCH  11  16
HETATM   16  C5  UNL     1      61.345  84.410  61.993  1.00  0.00     0.133 C 
BRANCH  16  17
HETATM   17  C6  UNL     1      61.612  84.834  60.599  1.00  0.00    -0.045 A 
HETATM   18  C7  UNL     1      60.970  85.869  59.956  1.00  0.00     0.010 A 
HETATM   19  C8  UNL     1      61.271  86.216  58.638  1.00  0.00     0.019 A 
HETATM   20  C9  UNL     1      62.225  85.540  57.912  1.00  0.00    -0.000 A 
HETATM   21  C11 UNL     1      62.874  84.503  58.546  1.00  0.00     0.019 A 
HETATM   22  C12 UNL     1      62.578  84.161  59.846  1.00  0.00     0.010 A 
BRANCH  20  23
HETATM   23  S1  UNL     1      62.608  85.986  56.212  1.00  0.00    -0.134 SA
HETATM   24  C10 UNL     1      61.390  85.349  55.063  1.00  0.00     0.095 C 
ENDBRANCH  20  23
ENDBRANCH  16  17
ENDBRANCH  11  16
ENDBRANCH  10  11
ENDBRANCH   1  10
BRANCH   9  25
HETATM   25  N2  UNL     1      61.212  81.127  64.250  1.00  0.00    -0.376 N 
HETATM   26  C22 UNL     1      60.768  81.082  65.598  1.00  0.00     0.143 C 
HETATM   27  C23 UNL     1      59.300  80.749  65.723  1.00  0.00     0.145 C 
HETATM   28  N3  UNL     1      59.015  79.735  64.740  1.00  0.00    -0.349 N 
HETATM   29  C24 UNL     1      58.607  78.439  65.153  1.00  0.00     0.219 C 
HETATM   30  C28 UNL     1      59.168  80.090  63.349  1.00  0.00     0.145 C 
HETATM   31  O1  UNL     1      58.492  78.148  66.381  1.00  0.00    -0.273 OA
HETATM   32  C29 UNL     1      60.193  81.225  63.202  1.00  0.00     0.143 C 
BRANCH  29  33
HETATM   33  C25 UNL     1      58.319  77.414  64.138  1.00  0.00     0.105 C 
BRANCH  33  34
HETATM   34  C26 UNL     1      56.901  77.037  63.957  1.00  0.00     0.036 C 
BRANCH  34  35
HETATM   35  C27 UNL     1      55.966  78.039  63.395  1.00  0.00     0.230 C 
BRANCH  35  36
HETATM   36  N4  UNL     1      55.917  78.144  61.969  1.00  0.00    -0.079 N 
ATOM     37  H43 UNL     1      56.848  78.353  61.609  1.00  0.00     0.274 HD
ATOM     38  H42 UNL     1      55.762  77.221  61.564  1.00  0.00     0.274 HD
ATOM     39  H41 UNL     1      55.243  78.805  61.581  1.00  0.00     0.274 HD
ENDBRANCH  35  36
ENDBRANCH  34  35
ENDBRANCH  33  34
ENDBRANCH  29  33
ENDBRANCH   9  25
TORSDOF 13
ENDMDL
MODEL 2
REMARK VINA RESULT: -7.900593596      2.794      4.659
REMARK  13 active torsions:
REMARK  status: ('A' for Active; 'I' for Inactive)
REMARK    1  A    between atoms: C2_2  and  C3_3 
REMARK    2  A    between atoms: C3_3  and  C4_4 
REMARK    3  A    between atoms: C4_4  and  N1_5 
REMARK    4  A    between atoms: N1_5  and  C5_6 
REMARK    5  A    between atoms: N1_5  and  C13_15 
REMARK    6  A    between atoms: C5_6  and  C6_7 
REMARK    7  A    between atoms: C9_10  and  S1_11 
REMARK    8  A    between atoms: C13_15  and  C14_16 
REMARK    9  A    between atoms: C21_24  and  N2_25 
REMARK       I    between atoms: N3_28  and  C24_29 
REMARK   10  A    between atoms: C24_29  and  C25_31 
REMARK   11  A    between atoms: C25_31  and  C26_32 
REMARK   12  A    between atoms: C26_32  and  C27_33 
REMARK   13  A    between atoms: C27_33  and  N4_34 
ROOT
HETATM    1  C14 UNL     1      60.296  82.988  63.807  1.00  0.00     0.002 A 
HETATM    2  C15 UNL     1      58.949  82.885  63.637  1.00  0.00     0.016 A 
HETATM    3  C16 UNL     1      58.393  81.632  63.496  1.00  0.00     0.021 A 
HETATM    4  C17 UNL     1      59.222  80.500  63.533  1.00  0.00     0.017 A 
HETATM    5  S2  UNL     1      58.933  78.825  63.397  1.00  0.00    -0.101 SA
HETATM    6  C18 UNL     1      60.523  78.257  63.557  1.00  0.00     0.051 A 
HETATM    7  C19 UNL     1      61.256  79.401  63.716  1.00  0.00     0.022 A 
HETATM    8  C20 UNL     1      60.582  80.578  63.705  1.00  0.00     0.009 A 
HETATM    9  C21 UNL     1      61.134  81.861  63.845  1.00  0.00     0.053 A 
ENDROOT
BRANCH   1  10
HETATM   10  C13 UNL     1      60.922  84.299  64.026  1.00  0.00     0.073 C 
BRANCH  10  11
HETATM   11  N1  UNL     1      61.482  84.871  62.873  1.00  0.00    -0.288 NA
BRANCH  11  12
HETATM   12  C4  UNL     1      62.218  86.083  63.063  1.00  0.00     0.095 C 
BRANCH  12  13
HETATM   13  C3  UNL     1      63.689  85.821  62.977  1.00  0.00     0.014 C 
BRANCH  13  14
HETATM   14  C2  UNL     1      64.440  86.923  62.267  1.00  0.00    -0.003 C 
HETATM   15  C1  UNL     1      63.555  87.847  61.493  1.00  0.00     0.005 C 
ENDBRANCH  13  14
ENDBRANCH  12  13
ENDBRANCH  11  12
BRANCH  11  16
HETATM   16  C5  UNL     1      60.597  84.900  61.736  1.00  0.00     0.133 C 
BRANCH  16  17
HETATM   17  C6  UNL     1      61.276  85.012  60.424  1.00  0.00    -0.045 A 
HETATM   18  C7  UNL     1      62.182  84.103  59.927  1.00  0.00     0.010 A 
HETATM   19  C8  UNL     1      62.787  84.272  58.680  1.00  0.00     0.019 A 
HETATM   20  C9  UNL     1      62.508  85.358  57.883  1.00  0.00    -0.000 A 
HETATM   21  C11 UNL     1      61.602  86.275  58.369  1.00  0.00     0.019 A 
HETATM   22  C12 UNL     1      61.005  86.108  59.599  1.00  0.00     0.010 A 
BRANCH  20  23
HETATM   23  S1  UNL     1      63.291  85.577  56.278  1.00  0.00    -0.134 SA
HETATM   24  C10 UNL     1      64.800  84.621  56.134  1.00  0.00     0.095 C 
ENDBRANCH  20  23
ENDBRANCH  16  17
ENDBRANCH  11  16
ENDBRANCH  10  11
ENDBRANCH   1  10
BRANCH   9  25
HETATM   25  N2  UNL     1      62.513  82.058  64.008  1.00  0.00    -0.376 N 
HETATM   26  C22 UNL     1      63.482  82.181  62.978  1.00  0.00     0.143 C 
HETATM   27  C23 UNL     1      64.897  82.012  63.478  1.00  0.00     0.145 C 
HETATM   28  N3  UNL     1      64.874  80.949  64.450  1.00  0.00    -0.349 N 
HETATM   29  C24 UNL     1      65.583  79.744  64.202  1.00  0.00     0.219 C 
HETATM   30  C28 UNL     1      64.107  81.159  65.655  1.00  0.00     0.145 C 
HETATM   31  O1  UNL     1      66.239  79.578  63.130  1.00  0.00    -0.273 OA
HETATM   32  C29 UNL     1      62.975  82.166  65.393  1.00  0.00     0.143 C 
BRANCH  29  33
HETATM   33  C25 UNL     1      65.551  78.666  65.202  1.00  0.00     0.105 C 
BRANCH  33  34
HETATM   34  C26 UNL     1      64.740  77.476  64.870  1.00  0.00     0.036 C 
BRANCH  34  35
HETATM   35  C27 UNL     1      65.398  76.334  64.194  1.00  0.00     0.230 C 
BRANCH  35  36
HETATM   36  N4  UNL     1      65.491  76.398  62.767  1.00  0.00    -0.079 N 
ATOM     37  H43 UNL     1      64.763  75.817  62.350  1.00  0.00     0.274 HD
ATOM     38  H42 UNL     1      65.198  77.322  62.447  1.00  0.00     0.274 HD
ATOM     39  H41 UNL     1      66.394  76.164  62.356  1.00  0.00     0.274 HD
ENDBRANCH  35  36
ENDBRANCH  34  35
ENDBRANCH  33  34
ENDBRANCH  29  33
ENDBRANCH   9  25
TORSDOF 13
ENDMDL
MODEL 3
REMARK VINA RESULT: -7.829610278      1.972      3.180
REMARK  13 active torsions:
REMARK  status: ('A' for Active; 'I' for Inactive)
REMARK    1  A    between atoms: C2_2  and  C3_3 
REMARK    2  A    between atoms: C3_3  and  C4_4 
REMARK    3  A    between atoms: C4_4  and  N1_5 
REMARK    4  A    between atoms: N1_5  and  C5_6 
REMARK    5  A    between atoms: N1_5  and  C13_15 
REMARK    6  A    between atoms: C5_6  and  C6_7 
REMARK    7  A    between atoms: C9_10  and  S1_11 
REMARK    8  A    between atoms: C13_15  and  C14_16 
REMARK    9  A    between atoms: C21_24  and  N2_25 
REMARK       I    between atoms: N3_28  and  C24_29 
REMARK   10  A    between atoms: C24_29  and  C25_31 
REMARK   11  A    between atoms: C25_31  and  C26_32 
REMARK   12  A    between atoms: C26_32  and  C27_33 
REMARK   13  A    between atoms: C27_33  and  N4_34 
ROOT
HETATM    1  C14 UNL     1      62.206  81.856  63.316  1.00  0.00     0.002 A 
HETATM    2  C15 UNL     1      63.171  82.784  63.069  1.00  0.00     0.016 A 
HETATM    3  C16 UNL     1      64.477  82.363  62.936  1.00  0.00     0.021 A 
HETATM    4  C17 UNL     1      64.778  80.997  63.056  1.00  0.00     0.017 A 
HETATM    5  S2  UNL     1      66.225  80.099  62.964  1.00  0.00    -0.101 SA
HETATM    6  C18 UNL     1      65.602  78.546  63.239  1.00  0.00     0.051 A 
HETATM    7  C19 UNL     1      64.261  78.763  63.399  1.00  0.00     0.022 A 
HETATM    8  C20 UNL     1      63.823  80.042  63.304  1.00  0.00     0.009 A 
HETATM    9  C21 UNL     1      62.498  80.486  63.438  1.00  0.00     0.053 A 
ENDROOT
BRANCH   1  10
HETATM   10  C13 UNL     1      60.794  82.252  63.400  1.00  0.00     0.073 C 
BRANCH  10  11
HETATM   11  N1  UNL     1      60.579  83.496  64.014  1.00  0.00    -0.288 NA
BRANCH  11  12
HETATM   12  C4  UNL     1      60.142  83.462  65.375  1.00  0.00     0.095 C 
BRANCH  12  13
HETATM   13  C3  UNL     1      61.273  83.788  66.298  1.00  0.00     0.014 C 
BRANCH  13  14
HETATM   14  C2  UNL     1      61.695  82.613  67.148  1.00  0.00    -0.003 C 
HETATM   15  C1  UNL     1      63.075  82.122  66.846  1.00  0.00     0.005 C 
ENDBRANCH  13  14
ENDBRANCH  12  13
ENDBRANCH  11  12
BRANCH  11  16
HETATM   16  C5  UNL     1      59.866  84.445  63.197  1.00  0.00     0.133 C 
BRANCH  16  17
HETATM   17  C6  UNL     1      60.700  85.163  62.205  1.00  0.00    -0.045 A 
HETATM   18  C7  UNL     1      61.625  86.135  62.513  1.00  0.00     0.010 A 
HETATM   19  C8  UNL     1      62.380  86.773  61.527  1.00  0.00     0.019 A 
HETATM   20  C9  UNL     1      62.235  86.464  60.194  1.00  0.00    -0.000 A 
HETATM   21  C11 UNL     1      61.313  85.492  59.873  1.00  0.00     0.019 A 
HETATM   22  C12 UNL     1      60.570  84.862  60.846  1.00  0.00     0.010 A 
BRANCH  20  23
HETATM   23  S1  UNL     1      63.204  87.290  58.924  1.00  0.00    -0.134 SA
HETATM   24  C10 UNL     1      63.916  86.127  57.761  1.00  0.00     0.095 C 
ENDBRANCH  20  23
ENDBRANCH  16  17
ENDBRANCH  11  16
ENDBRANCH  10  11
ENDBRANCH   1  10
BRANCH   9  25
HETATM   25  N2  UNL     1      61.446  79.600  63.710  1.00  0.00    -0.376 N 
HETATM   26  C22 UNL     1      60.733  78.811  62.769  1.00  0.00     0.143 C 
HETATM   27  C23 UNL     1      59.441  78.261  63.322  1.00  0.00     0.145 C 
HETATM   28  N3  UNL     1      58.849  79.303  64.122  1.00  0.00    -0.349 N 
HETATM   29  C24 UNL     1      57.606  79.873  63.739  1.00  0.00     0.219 C 
HETATM   30  C28 UNL     1      59.568  79.735  65.297  1.00  0.00     0.145 C 
HETATM   31  O1  UNL     1      57.000  79.485  62.696  1.00  0.00    -0.273 OA
HETATM   32  C29 UNL     1      61.073  79.478  65.121  1.00  0.00     0.143 C 
BRANCH  29  33
HETATM   33  C25 UNL     1      57.014  80.937  64.564  1.00  0.00     0.105 C 
BRANCH  33  34
HETATM   34  C26 UNL     1      55.679  80.667  65.140  1.00  0.00     0.036 C 
BRANCH  34  35
HETATM   35  C27 UNL     1      55.410  79.326  65.709  1.00  0.00     0.230 C 
BRANCH  35  36
HETATM   36  N4  UNL     1      54.766  78.380  64.850  1.00  0.00    -0.079 N 
ATOM     37  H43 UNL     1      55.424  78.061  64.139  1.00  0.00     0.274 HD
ATOM     38  H42 UNL     1      54.604  77.511  65.358  1.00  0.00     0.274 HD
ATOM     39  H41 UNL     1      53.899  78.682  64.404  1.00  0.00     0.274 HD
ENDBRANCH  35  36
ENDBRANCH  34  35
ENDBRANCH  33  34
ENDBRANCH  29  33
ENDBRANCH   9  25
TORSDOF 13
ENDMDL
MODEL 4
REMARK VINA RESULT: -7.662503023      1.720      2.461
REMARK  13 active torsions:
REMARK  status: ('A' for Active; 'I' for Inactive)
REMARK    1  A    between atoms: C2_2  and  C3_3 
REMARK    2  A    between atoms: C3_3  and  C4_4 
REMARK    3  A    between atoms: C4_4  and  N1_5 
REMARK    4  A    between atoms: N1_5  and  C5_6 
REMARK    5  A    between atoms: N1_5  and  C13_15 
REMARK    6  A    between atoms: C5_6  and  C6_7 
REMARK    7  A    between atoms: C9_10  and  S1_11 
REMARK    8  A    between atoms: C13_15  and  C14_16 
REMARK    9  A    between atoms: C21_24  and  N2_25 
REMARK       I    between atoms: N3_28  and  C24_29 
REMARK   10  A    between atoms: C24_29  and  C25_31 
REMARK   11  A    between atoms: C25_31  and  C26_32 
REMARK   12  A    between atoms: C26_32  and  C27_33 
REMARK   13  A    between atoms: C27_33  and  N4_34 
ROOT
HETATM    1  C14 UNL     1      62.952  81.111  63.274  1.00  0.00     0.002 A 
HETATM    2  C15 UNL     1      64.078  81.856  63.102  1.00  0.00     0.016 A 
HETATM    3  C16 UNL     1      65.305  81.233  63.185  1.00  0.00     0.021 A 
HETATM    4  C17 UNL     1      65.362  79.853  63.440  1.00  0.00     0.017 A 
HETATM    5  S2  UNL     1      66.644  78.742  63.616  1.00  0.00    -0.101 SA
HETATM    6  C18 UNL     1      65.747  77.332  63.908  1.00  0.00     0.051 A 
HETATM    7  C19 UNL     1      64.450  77.763  63.861  1.00  0.00     0.022 A 
HETATM    8  C20 UNL     1      64.241  79.081  63.616  1.00  0.00     0.009 A 
HETATM    9  C21 UNL     1      63.000  79.730  63.531  1.00  0.00     0.053 A 
ENDROOT
BRANCH   1  10
HETATM   10  C13 UNL     1      61.624  81.723  63.130  1.00  0.00     0.073 C 
BRANCH  10  11
HETATM   11  N1  UNL     1      61.617  83.121  63.251  1.00  0.00    -0.288 NA
BRANCH  11  12
HETATM   12  C4  UNL     1      61.608  83.640  64.585  1.00  0.00     0.095 C 
BRANCH  12  13
HETATM   13  C3  UNL     1      62.180  85.022  64.613  1.00  0.00     0.014 C 
BRANCH  13  14
HETATM   14  C2  UNL     1      63.687  85.037  64.520  1.00  0.00    -0.003 C 
HETATM   15  C1  UNL     1      64.204  85.695  63.281  1.00  0.00     0.005 C 
ENDBRANCH  13  14
ENDBRANCH  12  13
ENDBRANCH  11  12
BRANCH  11  16
HETATM   16  C5  UNL     1      60.700  83.789  62.362  1.00  0.00     0.133 C 
BRANCH  16  17
HETATM   17  C6  UNL     1      61.336  84.473  61.212  1.00  0.00    -0.045 A 
HETATM   18  C7  UNL     1      62.110  83.851  60.258  1.00  0.00     0.010 A 
HETATM   19  C8  UNL     1      62.682  84.557  59.198  1.00  0.00     0.019 A 
HETATM   20  C9  UNL     1      62.503  85.914  59.054  1.00  0.00    -0.000 A 
HETATM   21  C11 UNL     1      61.730  86.547  60.002  1.00  0.00     0.019 A 
HETATM   22  C12 UNL     1      61.165  85.850  61.047  1.00  0.00     0.010 A 
BRANCH  20  23
HETATM   23  S1  UNL     1      63.244  86.824  57.691  1.00  0.00    -0.134 SA
HETATM   24  C10 UNL     1      62.550  86.345  56.110  1.00  0.00     0.095 C 
ENDBRANCH  20  23
ENDBRANCH  16  17
ENDBRANCH  11  16
ENDBRANCH  10  11
ENDBRANCH   1  10
BRANCH   9  25
HETATM   25  N2  UNL     1      61.792  79.042  63.712  1.00  0.00    -0.376 N 
HETATM   26  C22 UNL     1      61.017  78.403  62.708  1.00  0.00     0.143 C 
HETATM   27  C23 UNL     1      59.613  78.085  63.162  1.00  0.00     0.145 C 
HETATM   28  N3  UNL     1      59.161  79.206  63.945  1.00  0.00    -0.349 N 
HETATM   29  C24 UNL     1      58.067  79.993  63.496  1.00  0.00     0.219 C 
HETATM   30  C28 UNL     1      59.862  79.490  65.175  1.00  0.00     0.145 C 
HETATM   31  O1  UNL     1      57.476  79.730  62.406  1.00  0.00    -0.273 OA
HETATM   32  C29 UNL     1      61.306  78.972  65.092  1.00  0.00     0.143 C 
BRANCH  29  33
HETATM   33  C25 UNL     1      57.616  81.135  64.305  1.00  0.00     0.105 C 
BRANCH  33  34
HETATM   34  C26 UNL     1      56.224  81.091  64.800  1.00  0.00     0.036 C 
BRANCH  34  35
HETATM   35  C27 UNL     1      55.689  79.804  65.302  1.00  0.00     0.230 C 
BRANCH  35  36
HETATM   36  N4  UNL     1      55.004  78.979  64.355  1.00  0.00    -0.079 N 
ATOM     37  H43 UNL     1      54.385  79.555  63.784  1.00  0.00     0.274 HD
ATOM     38  H42 UNL     1      55.662  78.653  63.647  1.00  0.00     0.274 HD
ATOM     39  H41 UNL     1      54.485  78.185  64.730  1.00  0.00     0.274 HD
ENDBRANCH  35  36
ENDBRANCH  34  35
ENDBRANCH  33  34
ENDBRANCH  29  33
ENDBRANCH   9  25
TORSDOF 13
ENDMDL
MODEL 5
REMARK VINA RESULT: -7.614128226      2.826      4.987
REMARK  13 active torsions:
REMARK  status: ('A' for Active; 'I' for Inactive)
REMARK    1  A    between atoms: C2_2  and  C3_3 
REMARK    2  A    between atoms: C3_3  and  C4_4 
REMARK    3  A    between atoms: C4_4  and  N1_5 
REMARK    4  A    between atoms: N1_5  and  C5_6 
REMARK    5  A    between atoms: N1_5  and  C13_15 
REMARK    6  A    between atoms: C5_6  and  C6_7 
REMARK    7  A    between atoms: C9_10  and  S1_11 
REMARK    8  A    between atoms: C13_15  and  C14_16 
REMARK    9  A    between atoms: C21_24  and  N2_25 
REMARK       I    between atoms: N3_28  and  C24_29 
REMARK   10  A    between atoms: C24_29  and  C25_31 
REMARK   11  A    between atoms: C25_31  and  C26_32 
REMARK   12  A    between atoms: C26_32  and  C27_33 
REMARK   13  A    between atoms: C27_33  and  N4_34 
ROOT
HETATM    1  C14 UNL     1      61.043  83.384  63.972  1.00  0.00     0.002 A 
HETATM    2  C15 UNL     1      59.739  83.756  63.851  1.00  0.00     0.016 A 
HETATM    3  C16 UNL     1      58.791  82.783  63.619  1.00  0.00     0.021 A 
HETATM    4  C17 UNL     1      59.190  81.441  63.514  1.00  0.00     0.017 A 
HETATM    5  S2  UNL     1      58.351  79.982  63.234  1.00  0.00    -0.101 SA
HETATM    6  C18 UNL     1      59.658  78.902  63.272  1.00  0.00     0.051 A 
HETATM    7  C19 UNL     1      60.736  79.712  63.504  1.00  0.00     0.022 A 
HETATM    8  C20 UNL     1      60.499  81.041  63.633  1.00  0.00     0.009 A 
HETATM    9  C21 UNL     1      61.452  82.043  63.868  1.00  0.00     0.053 A 
ENDROOT
BRANCH   1  10
HETATM   10  C13 UNL     1      62.076  84.380  64.285  1.00  0.00     0.073 C 
BRANCH  10  11
HETATM   11  N1  UNL     1      62.672  84.967  63.158  1.00  0.00    -0.288 NA
BRANCH  11  12
HETATM   12  C4  UNL     1      64.087  85.168  63.224  1.00  0.00     0.095 C 
BRANCH  12  13
HETATM   13  C3  UNL     1      64.585  84.934  64.615  1.00  0.00     0.014 C 
BRANCH  13  14
HETATM   14  C2  UNL     1      65.898  84.187  64.651  1.00  0.00    -0.003 C 
HETATM   15  C1  UNL     1      66.167  83.514  65.958  1.00  0.00     0.005 C 
ENDBRANCH  13  14
ENDBRANCH  12  13
ENDBRANCH  11  12
BRANCH  11  16
HETATM   16  C5  UNL     1      61.948  86.093  62.623  1.00  0.00     0.133 C 
BRANCH  16  17
HETATM   17  C6  UNL     1      62.029  86.241  61.151  1.00  0.00    -0.045 A 
HETATM   18  C7  UNL     1      61.183  85.631  60.252  1.00  0.00     0.010 A 
HETATM   19  C8  UNL     1      61.316  85.814  58.875  1.00  0.00     0.019 A 
HETATM   20  C9  UNL     1      62.302  86.613  58.344  1.00  0.00    -0.000 A 
HETATM   21  C11 UNL     1      63.154  87.230  59.233  1.00  0.00     0.019 A 
HETATM   22  C12 UNL     1      63.023  87.050  60.592  1.00  0.00     0.010 A 
BRANCH  20  23
HETATM   23  S1  UNL     1      62.475  86.844  56.568  1.00  0.00    -0.134 SA
HETATM   24  C10 UNL     1      61.385  85.763  55.643  1.00  0.00     0.095 C 
ENDBRANCH  20  23
ENDBRANCH  16  17
ENDBRANCH  11  16
ENDBRANCH  10  11
ENDBRANCH   1  10
BRANCH   9  25
HETATM   25  N2  UNL     1      62.818  81.750  63.988  1.00  0.00    -0.376 N 
HETATM   26  C22 UNL     1      63.768  81.678  62.935  1.00  0.00     0.143 C 
HETATM   27  C23 UNL     1      65.047  80.987  63.345  1.00  0.00     0.145 C 
HETATM   28  N3  UNL     1      64.674  79.875  64.181  1.00  0.00    -0.349 N 
HETATM   29  C24 UNL     1      64.938  78.545  63.755  1.00  0.00     0.219 C 
HETATM   30  C28 UNL     1      64.026  80.169  65.437  1.00  0.00     0.145 C 
HETATM   31  O1  UNL     1      65.496  78.313  62.641  1.00  0.00    -0.273 OA
HETATM   32  C29 UNL     1      63.296  81.518  65.352  1.00  0.00     0.143 C 
BRANCH  29  33
HETATM   33  C25 UNL     1      64.551  77.419  64.618  1.00  0.00     0.105 C 
BRANCH  33  34
HETATM   34  C26 UNL     1      65.261  76.141  64.401  1.00  0.00     0.036 C 
BRANCH  34  35
HETATM   35  C27 UNL     1      66.652  76.008  64.892  1.00  0.00     0.230 C 
BRANCH  35  36
HETATM   36  N4  UNL     1      67.694  76.328  63.965  1.00  0.00    -0.079 N 
ATOM     37  H43 UNL     1      68.169  75.473  63.675  1.00  0.00     0.274 HD
ATOM     38  H42 UNL     1      67.285  76.624  63.079  1.00  0.00     0.274 HD
ATOM     39  H41 UNL     1      68.383  77.016  64.270  1.00  0.00     0.274 HD
ENDBRANCH  35  36
ENDBRANCH  34  35
ENDBRANCH  33  34
ENDBRANCH  29  33
ENDBRANCH   9  25
TORSDOF 13
ENDMDL
