MODEL 1
REMARK VINA RESULT: -6.413897892      0.000      0.000
REMARK  4 active torsions:
REMARK  status: ('A' for Active; 'I' for Inactive)
REMARK    1  A    between atoms: C5_5  and  N1_6 
REMARK    2  A    between atoms: C5_5  and  C7_11 
REMARK       I    between atoms: N1_6  and  C6_8 
REMARK    3  A    between atoms: N4_14  and  S1_15 
REMARK    4  A    between atoms: S1_15  and  N5_16 
ROOT
HETATM    1  C1  UNL     1       3.252  18.963  26.477  1.00  0.00     0.033 C 
HETATM    2  C2  UNL     1       2.937  18.542  25.035  1.00  0.00     0.096 C 
HETATM    3  C3  UNL     1       3.397  17.104  24.925  1.00  0.00     0.030 C 
HETATM    4  C4  UNL     1       4.814  17.266  24.449  1.00  0.00     0.067 C 
HETATM    5  C5  UNL     1       4.719  18.442  23.509  1.00  0.00     0.200 C 
HETATM    6  N4  UNL     1       3.691  19.242  24.085  1.00  0.00    -0.253 N 
ENDROOT
BRANCH   5   7
HETATM    7  N1  UNL     1       5.942  19.235  23.536  1.00  0.00    -0.310 N 
HETATM    8  C6  UNL     1       7.236  18.695  23.400  1.00  0.00     0.331 C 
HETATM    9  N2  UNL     1       8.371  19.533  23.432  1.00  0.00    -0.040 NA
HETATM   10  O1  UNL     1       7.375  17.464  23.250  1.00  0.00    -0.251 OA
ATOM     11  H1  UNL     1       5.855  20.244  23.660  1.00  0.00     0.166 HD
ENDBRANCH   5   7
BRANCH   5  12
HETATM   12  C7  UNL     1       4.456  17.969  22.155  1.00  0.00     0.281 C 
HETATM   13  N3  UNL     1       4.955  18.615  20.998  1.00  0.00    -0.058 NA
HETATM   14  O2  UNL     1       3.758  16.946  21.980  1.00  0.00    -0.272 OA
ENDBRANCH   5  12
BRANCH   6  15
HETATM   15  S1  UNL     1       3.031  20.481  23.207  1.00  0.00     0.317 S 
HETATM   16  O3  UNL     1       1.938  21.150  24.000  1.00  0.00    -0.183 OA
HETATM   17  O4  UNL     1       3.971  21.538  22.713  1.00  0.00    -0.183 OA
BRANCH  15  18
HETATM   18  N5  UNL     1       2.250  19.851  21.773  1.00  0.00    -0.311 N 
ATOM     19  H52 UNL     1       1.977  18.876  21.651  1.00  0.00     0.170 HD
ATOM     20  H51 UNL     1       2.115  20.598  21.092  1.00  0.00     0.170 HD
ENDBRANCH  15  18
ENDBRANCH   6  15
TORSDOF 4
ENDMDL
MODEL 2
REMARK VINA RESULT: -6.061133140      0.882      1.067
REMARK  4 active torsions:
REMARK  status: ('A' for Active; 'I' for Inactive)
REMARK    1  A    between atoms: C5_5  and  N1_6 
REMARK    2  A    between atoms: C5_5  and  C7_11 
REMARK       I    between atoms: N1_6  and  C6_8 
REMARK    3  A    between atoms: N4_14  and  S1_15 
REMARK    4  A    between atoms: S1_15  and  N5_16 
ROOT
HETATM    1  C1  UNL     1       3.055  18.979  26.338  1.00  0.00     0.033 C 
HETATM    2  C2  UNL     1       2.842  18.496  24.896  1.00  0.00     0.096 C 
HETATM    3  C3  UNL     1       3.343  17.068  24.871  1.00  0.00     0.030 C 
HETATM    4  C4  UNL     1       4.784  17.251  24.477  1.00  0.00     0.067 C 
HETATM    5  C5  UNL     1       4.719  18.389  23.489  1.00  0.00     0.200 C 
HETATM    6  N4  UNL     1       3.637  19.182  23.969  1.00  0.00    -0.253 N 
ENDROOT
BRANCH   5   7
HETATM    7  N1  UNL     1       5.918  19.215  23.561  1.00  0.00    -0.310 N 
HETATM    8  C6  UNL     1       7.227  18.724  23.386  1.00  0.00     0.331 C 
HETATM    9  N2  UNL     1       8.336  19.592  23.467  1.00  0.00    -0.040 NA
HETATM   10  O1  UNL     1       7.401  17.509  23.158  1.00  0.00    -0.251 OA
ATOM     11  H1  UNL     1       5.801  20.211  23.750  1.00  0.00     0.166 HD
ENDBRANCH   5   7
BRANCH   5  12
HETATM   12  C7  UNL     1       4.553  17.859  22.140  1.00  0.00     0.281 C 
HETATM   13  N3  UNL     1       4.931  18.572  20.977  1.00  0.00    -0.058 NA
HETATM   14  O2  UNL     1       4.056  16.724  21.976  1.00  0.00    -0.272 OA
ENDBRANCH   5  12
BRANCH   6  15
HETATM   15  S1  UNL     1       3.003  20.369  23.005  1.00  0.00     0.317 S 
HETATM   16  O3  UNL     1       4.061  21.395  22.688  1.00  0.00    -0.183 OA
HETATM   17  O4  UNL     1       2.368  19.933  21.720  1.00  0.00    -0.183 OA
BRANCH  15  18
HETATM   18  N5  UNL     1       1.753  21.239  23.867  1.00  0.00    -0.311 N 
ATOM     19  H52 UNL     1       1.926  21.849  24.665  1.00  0.00     0.170 HD
ATOM     20  H51 UNL     1       0.842  21.042  23.453  1.00  0.00     0.170 HD
ENDBRANCH  15  18
ENDBRANCH   6  15
TORSDOF 4
ENDMDL
MODEL 3
REMARK VINA RESULT: -6.027968653      2.105      4.383
REMARK  4 active torsions:
REMARK  status: ('A' for Active; 'I' for Inactive)
REMARK    1  A    between atoms: C5_5  and  N1_6 
REMARK    2  A    between atoms: C5_5  and  C7_11 
REMARK       I    between atoms: N1_6  and  C6_8 
REMARK    3  A    between atoms: N4_14  and  S1_15 
REMARK    4  A    between atoms: S1_15  and  N5_16 
ROOT
HETATM    1  C1  UNL     1       2.684  17.093  25.488  1.00  0.00     0.033 C 
HETATM    2  C2  UNL     1       3.603  18.277  25.159  1.00  0.00     0.096 C 
HETATM    3  C3  UNL     1       2.835  19.513  25.579  1.00  0.00     0.030 C 
HETATM    4  C4  UNL     1       2.107  19.872  24.313  1.00  0.00     0.067 C 
HETATM    5  C5  UNL     1       3.116  19.542  23.241  1.00  0.00     0.200 C 
HETATM    6  N4  UNL     1       3.824  18.431  23.785  1.00  0.00    -0.253 N 
ENDROOT
BRANCH   5   7
HETATM    7  N1  UNL     1       2.459  19.075  22.027  1.00  0.00    -0.310 N 
HETATM    8  C6  UNL     1       1.162  18.524  21.993  1.00  0.00     0.331 C 
HETATM    9  N2  UNL     1       0.594  18.099  20.773  1.00  0.00    -0.040 NA
HETATM   10  O1  UNL     1       0.515  18.413  23.054  1.00  0.00    -0.251 OA
ATOM     11  H1  UNL     1       2.969  19.152  21.147  1.00  0.00     0.166 HD
ENDBRANCH   5   7
BRANCH   5  12
HETATM   12  C7  UNL     1       3.929  20.718  22.953  1.00  0.00     0.281 C 
HETATM   13  N3  UNL     1       3.768  21.504  21.787  1.00  0.00    -0.058 NA
HETATM   14  O2  UNL     1       4.818  21.070  23.759  1.00  0.00    -0.272 OA
ENDBRANCH   5  12
BRANCH   6  15
HETATM   15  S1  UNL     1       5.240  17.940  23.081  1.00  0.00     0.317 S 
HETATM   16  O3  UNL     1       5.413  16.453  23.253  1.00  0.00    -0.183 OA
HETATM   17  O4  UNL     1       5.429  18.275  21.633  1.00  0.00    -0.183 OA
BRANCH  15  18
HETATM   18  N5  UNL     1       6.603  18.667  23.904  1.00  0.00    -0.311 N 
ATOM     19  H52 UNL     1       7.530  18.245  23.961  1.00  0.00     0.170 HD
ATOM     20  H51 UNL     1       6.329  19.561  24.312  1.00  0.00     0.170 HD
ENDBRANCH  15  18
ENDBRANCH   6  15
TORSDOF 4
ENDMDL
MODEL 4
REMARK VINA RESULT: -5.833477010      2.376      4.149
REMARK  4 active torsions:
REMARK  status: ('A' for Active; 'I' for Inactive)
REMARK    1  A    between atoms: C5_5  and  N1_6 
REMARK    2  A    between atoms: C5_5  and  C7_11 
REMARK       I    between atoms: N1_6  and  C6_8 
REMARK    3  A    between atoms: N4_14  and  S1_15 
REMARK    4  A    between atoms: S1_15  and  N5_16 
ROOT
HETATM    1  C1  UNL     1       4.260  20.867  21.228  1.00  0.00     0.033 C 
HETATM    2  C2  UNL     1       4.655  19.397  21.426  1.00  0.00     0.096 C 
HETATM    3  C3  UNL     1       3.356  18.659  21.668  1.00  0.00     0.030 C 
HETATM    4  C4  UNL     1       3.241  18.713  23.167  1.00  0.00     0.067 C 
HETATM    5  C5  UNL     1       4.672  18.554  23.618  1.00  0.00     0.200 C 
HETATM    6  N4  UNL     1       5.417  19.189  22.583  1.00  0.00    -0.253 N 
ENDROOT
BRANCH   5   7
HETATM    7  N1  UNL     1       4.922  19.303  24.843  1.00  0.00    -0.310 N 
HETATM    8  C6  UNL     1       4.031  19.351  25.934  1.00  0.00     0.331 C 
HETATM    9  N2  UNL     1       4.350  20.097  27.089  1.00  0.00    -0.040 NA
HETATM   10  O1  UNL     1       2.952  18.726  25.874  1.00  0.00    -0.251 OA
ATOM     11  H1  UNL     1       5.796  19.824  24.916  1.00  0.00     0.166 HD
ENDBRANCH   5   7
BRANCH   5  12
HETATM   12  C7  UNL     1       4.969  17.141  23.822  1.00  0.00     0.281 C 
HETATM   13  N3  UNL     1       5.604  16.643  24.985  1.00  0.00    -0.058 NA
HETATM   14  O2  UNL     1       4.657  16.308  22.943  1.00  0.00    -0.272 OA
ENDBRANCH   5  12
BRANCH   6  15
HETATM   15  S1  UNL     1       7.057  18.973  22.505  1.00  0.00     0.317 S 
HETATM   16  O3  UNL     1       7.590  19.532  21.212  1.00  0.00    -0.183 OA
HETATM   17  O4  UNL     1       7.869  19.532  23.634  1.00  0.00    -0.183 OA
BRANCH  15  18
HETATM   18  N5  UNL     1       7.435  17.265  22.467  1.00  0.00    -0.311 N 
ATOM     19  H52 UNL     1       7.072  16.613  21.772  1.00  0.00     0.170 HD
ATOM     20  H51 UNL     1       8.064  17.028  23.234  1.00  0.00     0.170 HD
ENDBRANCH  15  18
ENDBRANCH   6  15
TORSDOF 4
ENDMDL
MODEL 5
REMARK VINA RESULT: -5.670478751      2.431      4.582
REMARK  4 active torsions:
REMARK  status: ('A' for Active; 'I' for Inactive)
REMARK    1  A    between atoms: C5_5  and  N1_6 
REMARK    2  A    between atoms: C5_5  and  C7_11 
REMARK       I    between atoms: N1_6  and  C6_8 
REMARK    3  A    between atoms: N4_14  and  S1_15 
REMARK    4  A    between atoms: S1_15  and  N5_16 
ROOT
HETATM    1  C1  UNL     1       2.513  17.621  24.932  1.00  0.00     0.033 C 
HETATM    2  C2  UNL     1       3.269  18.849  24.407  1.00  0.00     0.096 C 
HETATM    3  C3  UNL     1       2.385  20.035  24.727  1.00  0.00     0.030 C 
HETATM    4  C4  UNL     1       1.556  20.151  23.478  1.00  0.00     0.067 C 
HETATM    5  C5  UNL     1       2.540  19.803  22.389  1.00  0.00     0.200 C 
HETATM    6  N4  UNL     1       3.400  18.853  23.013  1.00  0.00    -0.253 N 
ENDROOT
BRANCH   5   7
HETATM    7  N1  UNL     1       1.880  19.120  21.284  1.00  0.00    -0.310 N 
HETATM    8  C6  UNL     1       0.659  18.426  21.401  1.00  0.00     0.331 C 
HETATM    9  N2  UNL     1       0.083  17.793  20.279  1.00  0.00    -0.040 NA
HETATM   10  O1  UNL     1       0.087  18.374  22.509  1.00  0.00    -0.251 OA
ATOM     11  H1  UNL     1       2.330  19.145  20.368  1.00  0.00     0.166 HD
ENDBRANCH   5   7
BRANCH   5  12
HETATM   12  C7  UNL     1       3.194  21.016  21.912  1.00  0.00     0.281 C 
HETATM   13  N3  UNL     1       3.172  21.426  20.557  1.00  0.00    -0.058 NA
HETATM   14  O2  UNL     1       3.811  21.747  22.718  1.00  0.00    -0.272 OA
ENDBRANCH   5  12
BRANCH   6  15
HETATM   15  S1  UNL     1       4.826  18.437  22.281  1.00  0.00     0.317 S 
HETATM   16  O3  UNL     1       4.671  18.493  20.783  1.00  0.00    -0.183 OA
HETATM   17  O4  UNL     1       6.040  19.228  22.661  1.00  0.00    -0.183 OA
BRANCH  15  18
HETATM   18  N5  UNL     1       5.225  16.773  22.648  1.00  0.00    -0.311 N 
ATOM     19  H52 UNL     1       4.604  16.129  23.137  1.00  0.00     0.170 HD
ATOM     20  H51 UNL     1       6.159  16.553  22.302  1.00  0.00     0.170 HD
ENDBRANCH  15  18
ENDBRANCH   6  15
TORSDOF 4
ENDMDL
