MODEL 1
REMARK VINA RESULT: -6.680791046      0.000      0.000
REMARK  6 active torsions:
REMARK  status: ('A' for Active; 'I' for Inactive)
REMARK    1  A    between atoms: C2_2  and  N1_3 
REMARK    2  A    between atoms: C2_2  and  N2_7 
REMARK    3  A    between atoms: C3_8  and  N3_9 
REMARK    4  A    between atoms: C5_16  and  N6_17 
REMARK    5  A    between atoms: C6_22  and  N8_23 
REMARK    6  A    between atoms: N9_25  and  N10_27 
ROOT
HETATM    1  N2  UNL     1       1.218  11.761  23.928  1.00  0.00    -0.279 N 
HETATM    2  C3  UNL     1       1.235  10.818  22.955  1.00  0.00     0.197 A 
HETATM    3  C4  UNL     1       2.123   9.808  23.302  1.00  0.00     0.174 A 
HETATM    4  N4  UNL     1       2.642  10.143  24.482  1.00  0.00    -0.229 N 
HETATM    5  N5  UNL     1       3.551   9.481  25.220  1.00  0.00    -0.124 N 
ATOM      6  H5  UNL     1       3.934   8.594  24.892  1.00  0.00     0.206 HD
HETATM    7  C5  UNL     1       3.946   9.999  26.388  1.00  0.00     0.692 A 
HETATM    8  N7  UNL     1       3.450  11.151  26.815  1.00  0.00    -0.170 N 
ATOM      9  H7  UNL     1       3.763  11.534  27.708  1.00  0.00     0.186 HD
HETATM   10  C6  UNL     1       2.528  11.834  26.078  1.00  0.00     0.183 A 
HETATM   11  C7  UNL     1       2.113  11.310  24.874  1.00  0.00     0.179 A 
ENDROOT
BRANCH  10  12
HETATM   12  N8  UNL     1       2.038  13.059  26.571  1.00  0.00    -0.268 N 
HETATM   13  N9  UNL     1       1.053  13.187  27.352  1.00  0.00    -0.248 N 
ATOM     14  H9  UNL     1       0.791  14.128  27.642  1.00  0.00     0.207 HD
ATOM     15  H8  UNL     1       2.515  13.909  26.273  1.00  0.00     0.190 HD
BRANCH  13  16
HETATM   16  N10 UNL     1       0.301  12.116  27.844  1.00  0.00    -0.331 N 
ATOM     17 2H10 UNL     1       0.796  11.239  28.005  1.00  0.00     0.178 HD
ATOM     18 1H10 UNL     1      -0.697  12.166  28.047  1.00  0.00     0.178 HD
ENDBRANCH  13  16
ENDBRANCH  10  12
BRANCH   7  19
HETATM   19  N6  UNL     1       4.826   9.321  27.066  1.00  0.00    -0.233 N 
ATOM     20  H62 UNL     1       5.184   8.419  26.753  1.00  0.00     0.174 HD
ATOM     21  H61 UNL     1       5.151   9.731  27.941  1.00  0.00     0.174 HD
ENDBRANCH   7  19
BRANCH   1  22
HETATM   22  C2  UNL     1       0.421  12.966  23.963  1.00  0.00     0.287 C 
HETATM   23  C1  UNL     1       0.476  13.774  22.693  1.00  0.00     0.063 C 
BRANCH  22  24
HETATM   24  N1  UNL     1      -0.950  12.568  24.331  1.00  0.00    -0.058 N 
ATOM     25  H13 UNL     1      -1.619  13.296  24.082  1.00  0.00     0.276 HD
ATOM     26  H12 UNL     1      -1.286  11.819  23.726  1.00  0.00     0.276 HD
ATOM     27  H11 UNL     1      -1.039  12.311  25.314  1.00  0.00     0.276 HD
ENDBRANCH  22  24
ENDBRANCH   1  22
BRANCH   2  28
HETATM   28  N3  UNL     1       0.525  10.770  21.730  1.00  0.00    -0.096 N 
HETATM   29  O1  UNL     1       1.047  10.786  20.634  1.00  0.00    -0.530 OA
HETATM   30  O2  UNL     1      -0.861  10.685  21.722  1.00  0.00    -0.530 OA
ENDBRANCH   2  28
TORSDOF 6
ENDMDL
MODEL 2
REMARK VINA RESULT: -6.632160438      1.861      3.000
REMARK  6 active torsions:
REMARK  status: ('A' for Active; 'I' for Inactive)
REMARK    1  A    between atoms: C2_2  and  N1_3 
REMARK    2  A    between atoms: C2_2  and  N2_7 
REMARK    3  A    between atoms: C3_8  and  N3_9 
REMARK    4  A    between atoms: C5_16  and  N6_17 
REMARK    5  A    between atoms: C6_22  and  N8_23 
REMARK    6  A    between atoms: N9_25  and  N10_27 
ROOT
HETATM    1  N2  UNL     1       0.977  11.774  24.159  1.00  0.00    -0.279 N 
HETATM    2  C3  UNL     1       1.763  10.672  24.228  1.00  0.00     0.197 A 
HETATM    3  C4  UNL     1       2.208  10.499  25.532  1.00  0.00     0.174 A 
HETATM    4  N4  UNL     1       1.693  11.497  26.248  1.00  0.00    -0.229 N 
HETATM    5  N5  UNL     1       1.844  11.757  27.559  1.00  0.00    -0.124 N 
ATOM      6  H5  UNL     1       2.415  11.147  28.143  1.00  0.00     0.206 HD
HETATM    7  C5  UNL     1       1.237  12.825  28.087  1.00  0.00     0.692 A 
HETATM    8  N7  UNL     1       0.496  13.620  27.329  1.00  0.00    -0.170 N 
ATOM      9  H7  UNL     1       0.041  14.432  27.747  1.00  0.00     0.186 HD
HETATM   10  C6  UNL     1       0.332  13.370  25.999  1.00  0.00     0.183 A 
HETATM   11  C7  UNL     1       0.953  12.272  25.445  1.00  0.00     0.179 A 
ENDROOT
BRANCH  10  12
HETATM   12  N8  UNL     1      -0.458  14.250  25.235  1.00  0.00    -0.268 N 
HETATM   13  N9  UNL     1      -1.714  14.182  25.116  1.00  0.00    -0.248 N 
ATOM     14  H9  UNL     1      -2.178  14.879  24.534  1.00  0.00     0.207 HD
ATOM     15  H8  UNL     1       0.022  15.000  24.739  1.00  0.00     0.190 HD
BRANCH  13  16
HETATM   16  N10 UNL     1      -2.507  13.211  25.734  1.00  0.00    -0.331 N 
ATOM     17 2H10 UNL     1      -2.179  12.246  25.684  1.00  0.00     0.178 HD
ATOM     18 1H10 UNL     1      -3.379  13.413  26.222  1.00  0.00     0.178 HD
ENDBRANCH  13  16
ENDBRANCH  10  12
BRANCH   7  19
HETATM   19  N6  UNL     1       1.413  13.034  29.359  1.00  0.00    -0.233 N 
ATOM     20  H62 UNL     1       2.328  13.238  29.761  1.00  0.00     0.174 HD
ATOM     21  H61 UNL     1       0.587  12.985  29.955  1.00  0.00     0.174 HD
ENDBRANCH   7  19
BRANCH   1  22
HETATM   22  C2  UNL     1       0.304  12.297  22.993  1.00  0.00     0.287 C 
HETATM   23  C1  UNL     1       1.237  12.739  21.895  1.00  0.00     0.063 C 
BRANCH  22  24
HETATM   24  N1  UNL     1      -0.657  11.271  22.550  1.00  0.00    -0.058 N 
ATOM     25  H13 UNL     1      -0.660  11.189  21.533  1.00  0.00     0.276 HD
ATOM     26  H12 UNL     1      -0.329  10.336  22.792  1.00  0.00     0.276 HD
ATOM     27  H11 UNL     1      -1.600  11.430  22.906  1.00  0.00     0.276 HD
ENDBRANCH  22  24
ENDBRANCH   1  22
BRANCH   2  28
HETATM   28  N3  UNL     1       2.155   9.777  23.203  1.00  0.00    -0.096 N 
HETATM   29  O1  UNL     1       3.304   9.464  22.968  1.00  0.00    -0.530 OA
HETATM   30  O2  UNL     1       1.202   9.176  22.390  1.00  0.00    -0.530 OA
ENDBRANCH   2  28
TORSDOF 6
ENDMDL
MODEL 3
REMARK VINA RESULT: -6.368811579      3.023      5.602
REMARK  6 active torsions:
REMARK  status: ('A' for Active; 'I' for Inactive)
REMARK    1  A    between atoms: C2_2  and  N1_3 
REMARK    2  A    between atoms: C2_2  and  N2_7 
REMARK    3  A    between atoms: C3_8  and  N3_9 
REMARK    4  A    between atoms: C5_16  and  N6_17 
REMARK    5  A    between atoms: C6_22  and  N8_23 
REMARK    6  A    between atoms: N9_25  and  N10_27 
ROOT
HETATM    1  N2  UNL     1       2.112  10.898  26.226  1.00  0.00    -0.279 N 
HETATM    2  C3  UNL     1       1.495  11.570  27.228  1.00  0.00     0.197 A 
HETATM    3  C4  UNL     1       0.751  12.616  26.697  1.00  0.00     0.174 A 
HETATM    4  N4  UNL     1       0.922  12.576  25.377  1.00  0.00    -0.229 N 
HETATM    5  N5  UNL     1       0.406  13.388  24.437  1.00  0.00    -0.124 N 
ATOM      6  H5  UNL     1      -0.209  14.157  24.700  1.00  0.00     0.206 HD
HETATM    7  C5  UNL     1       0.710  13.174  23.151  1.00  0.00     0.692 A 
HETATM    8  N7  UNL     1       1.510  12.176  22.807  1.00  0.00    -0.170 N 
ATOM      9  H7  UNL     1       1.733  12.028  21.822  1.00  0.00     0.186 HD
HETATM   10  C6  UNL     1       2.041  11.344  23.747  1.00  0.00     0.183 A 
HETATM   11  C7  UNL     1       1.734  11.555  25.074  1.00  0.00     0.179 A 
ENDROOT
BRANCH  10  12
HETATM   12  N8  UNL     1       2.893  10.304  23.331  1.00  0.00    -0.268 N 
HETATM   13  N9  UNL     1       2.537   9.302  22.649  1.00  0.00    -0.248 N 
ATOM     14  H9  UNL     1       3.247   8.611  22.406  1.00  0.00     0.207 HD
ATOM     15  H8  UNL     1       3.874  10.364  23.601  1.00  0.00     0.190 HD
BRANCH  13  16
HETATM   16  N10 UNL     1       1.230   9.081  22.206  1.00  0.00    -0.331 N 
ATOM     17 2H10 UNL     1       0.703   8.341  22.671  1.00  0.00     0.178 HD
ATOM     18 1H10 UNL     1       0.784   9.611  21.457  1.00  0.00     0.178 HD
ENDBRANCH  13  16
ENDBRANCH  10  12
BRANCH   7  19
HETATM   19  N6  UNL     1       0.186  13.986  22.279  1.00  0.00    -0.233 N 
ATOM     20  H62 UNL     1      -0.488  14.707  22.536  1.00  0.00     0.174 HD
ATOM     21  H61 UNL     1       0.478  13.873  21.309  1.00  0.00     0.174 HD
ENDBRANCH   7  19
BRANCH   1  22
HETATM   22  C2  UNL     1       2.967   9.740  26.347  1.00  0.00     0.287 C 
HETATM   23  C1  UNL     1       4.360  10.054  26.828  1.00  0.00     0.063 C 
BRANCH  22  24
HETATM   24  N1  UNL     1       2.267   8.773  27.212  1.00  0.00    -0.058 N 
ATOM     25  H13 UNL     1       2.912   8.344  27.875  1.00  0.00     0.276 HD
ATOM     26  H12 UNL     1       1.648   9.251  27.867  1.00  0.00     0.276 HD
ATOM     27  H11 UNL     1       1.760   8.063  26.684  1.00  0.00     0.276 HD
ENDBRANCH  22  24
ENDBRANCH   1  22
BRANCH   2  28
HETATM   28  N3  UNL     1       1.541  11.350  28.626  1.00  0.00    -0.096 N 
HETATM   29  O1  UNL     1       2.116  12.071  29.416  1.00  0.00    -0.530 OA
HETATM   30  O2  UNL     1       0.891  10.259  29.189  1.00  0.00    -0.530 OA
ENDBRANCH   2  28
TORSDOF 6
ENDMDL
MODEL 4
REMARK VINA RESULT: -6.339327801      2.652      4.623
REMARK  6 active torsions:
REMARK  status: ('A' for Active; 'I' for Inactive)
REMARK    1  A    between atoms: C2_2  and  N1_3 
REMARK    2  A    between atoms: C2_2  and  N2_7 
REMARK    3  A    between atoms: C3_8  and  N3_9 
REMARK    4  A    between atoms: C5_16  and  N6_17 
REMARK    5  A    between atoms: C6_22  and  N8_23 
REMARK    6  A    between atoms: N9_25  and  N10_27 
ROOT
HETATM    1  N2  UNL     1       2.043  11.548  25.439  1.00  0.00    -0.279 N 
HETATM    2  C3  UNL     1       2.686  10.356  25.377  1.00  0.00     0.197 A 
HETATM    3  C4  UNL     1       2.561   9.827  24.099  1.00  0.00     0.174 A 
HETATM    4  N4  UNL     1       1.842  10.697  23.392  1.00  0.00    -0.229 N 
HETATM    5  N5  UNL     1       1.456  10.621  22.106  1.00  0.00    -0.124 N 
ATOM      6  H5  UNL     1       1.717   9.817  21.536  1.00  0.00     0.206 HD
HETATM    7  C5  UNL     1       0.726  11.613  21.584  1.00  0.00     0.692 A 
HETATM    8  N7  UNL     1       0.385  12.658  22.323  1.00  0.00    -0.170 N 
ATOM      9  H7  UNL     1      -0.173  13.406  21.910  1.00  0.00     0.186 HD
HETATM   10  C6  UNL     1       0.769  12.750  23.628  1.00  0.00     0.183 A 
HETATM   11  C7  UNL     1       1.522  11.735  24.176  1.00  0.00     0.179 A 
ENDROOT
BRANCH  10  12
HETATM   12  N8  UNL     1       0.374  13.877  24.374  1.00  0.00    -0.268 N 
HETATM   13  N9  UNL     1      -0.654  13.941  25.106  1.00  0.00    -0.248 N 
ATOM     14  H9  UNL     1      -0.837  14.814  25.600  1.00  0.00     0.207 HD
ATOM     15  H8  UNL     1       0.964  14.707  24.319  1.00  0.00     0.190 HD
BRANCH  13  16
HETATM   16  N10 UNL     1      -1.557  12.888  25.280  1.00  0.00    -0.331 N 
ATOM     17 2H10 UNL     1      -1.840  12.676  26.237  1.00  0.00     0.178 HD
ATOM     18 1H10 UNL     1      -1.940  12.333  24.516  1.00  0.00     0.178 HD
ENDBRANCH  13  16
ENDBRANCH  10  12
BRANCH   7  19
HETATM   19  N6  UNL     1       0.378  11.494  20.336  1.00  0.00    -0.233 N 
ATOM     20  H62 UNL     1       1.054  11.329  19.590  1.00  0.00     0.174 HD
ATOM     21  H61 UNL     1      -0.617  11.575  20.124  1.00  0.00     0.174 HD
ENDBRANCH   7  19
BRANCH   1  22
HETATM   22  C2  UNL     1       1.944  12.429  26.579  1.00  0.00     0.287 C 
HETATM   23  C1  UNL     1       1.403  11.767  27.820  1.00  0.00     0.063 C 
BRANCH  22  24
HETATM   24  N1  UNL     1       3.275  13.027  26.782  1.00  0.00    -0.058 N 
ATOM     25  H13 UNL     1       3.291  13.998  26.469  1.00  0.00     0.276 HD
ATOM     26  H12 UNL     1       3.464  13.170  27.775  1.00  0.00     0.276 HD
ATOM     27  H11 UNL     1       4.023  12.490  26.343  1.00  0.00     0.276 HD
ENDBRANCH  22  24
ENDBRANCH   1  22
BRANCH   2  28
HETATM   28  N3  UNL     1       3.386   9.654  26.388  1.00  0.00    -0.096 N 
HETATM   29  O1  UNL     1       2.942   8.700  26.994  1.00  0.00    -0.530 OA
HETATM   30  O2  UNL     1       4.676  10.029  26.742  1.00  0.00    -0.530 OA
ENDBRANCH   2  28
TORSDOF 6
ENDMDL
MODEL 5
REMARK VINA RESULT: -6.138948080      3.112      4.616
REMARK  6 active torsions:
REMARK  status: ('A' for Active; 'I' for Inactive)
REMARK    1  A    between atoms: C2_2  and  N1_3 
REMARK    2  A    between atoms: C2_2  and  N2_7 
REMARK    3  A    between atoms: C3_8  and  N3_9 
REMARK    4  A    between atoms: C5_16  and  N6_17 
REMARK    5  A    between atoms: C6_22  and  N8_23 
REMARK    6  A    between atoms: N9_25  and  N10_27 
ROOT
HETATM    1  N2  UNL     1       0.478  12.433  26.130  1.00  0.00    -0.279 N 
HETATM    2  C3  UNL     1       1.178  11.980  27.199  1.00  0.00     0.197 A 
HETATM    3  C4  UNL     1       2.068  10.996  26.788  1.00  0.00     0.174 A 
HETATM    4  N4  UNL     1       1.904  10.855  25.474  1.00  0.00    -0.229 N 
HETATM    5  N5  UNL     1       2.538  10.020  24.632  1.00  0.00    -0.124 N 
ATOM      6  H5  UNL     1       3.256   9.384  24.979  1.00  0.00     0.206 HD
HETATM    7  C5  UNL     1       2.217  10.033  23.334  1.00  0.00     0.692 A 
HETATM    8  N7  UNL     1       1.284  10.858  22.881  1.00  0.00    -0.170 N 
ATOM      9  H7  UNL     1       1.049  10.855  21.887  1.00  0.00     0.186 HD
HETATM   10  C6  UNL     1       0.632  11.711  23.721  1.00  0.00     0.183 A 
HETATM   11  C7  UNL     1       0.955  11.706  25.061  1.00  0.00     0.179 A 
ENDROOT
BRANCH  10  12
HETATM   12  N8  UNL     1      -0.358  12.561  23.193  1.00  0.00    -0.268 N 
HETATM   13  N9  UNL     1      -0.178  13.767  22.859  1.00  0.00    -0.248 N 
ATOM     14  H9  UNL     1      -0.974  14.284  22.486  1.00  0.00     0.207 HD
ATOM     15  H8  UNL     1      -1.293  12.173  23.069  1.00  0.00     0.190 HD
BRANCH  13  16
HETATM   16  N10 UNL     1       1.044  14.435  22.971  1.00  0.00    -0.331 N 
ATOM     17 2H10 UNL     1       1.011  15.410  23.271  1.00  0.00     0.178 HD
ATOM     18 1H10 UNL     1       1.948  14.008  22.772  1.00  0.00     0.178 HD
ENDBRANCH  13  16
ENDBRANCH  10  12
BRANCH   7  19
HETATM   19  N6  UNL     1       2.858   9.208  22.559  1.00  0.00    -0.233 N 
ATOM     20  H62 UNL     1       3.750   9.444  22.124  1.00  0.00     0.174 HD
ATOM     21  H61 UNL     1       2.429   8.297  22.397  1.00  0.00     0.174 HD
ENDBRANCH   7  19
BRANCH   1  22
HETATM   22  C2  UNL     1      -0.536  13.463  26.121  1.00  0.00     0.287 C 
HETATM   23  C1  UNL     1      -1.929  12.952  26.383  1.00  0.00     0.063 C 
BRANCH  22  24
HETATM   24  N1  UNL     1      -0.113  14.495  27.084  1.00  0.00    -0.058 N 
ATOM     25  H13 UNL     1       0.853  14.346  27.378  1.00  0.00     0.276 HD
ATOM     26  H12 UNL     1      -0.010  15.400  26.626  1.00  0.00     0.276 HD
ATOM     27  H11 UNL     1      -0.733  14.563  27.891  1.00  0.00     0.276 HD
ENDBRANCH  22  24
ENDBRANCH   1  22
BRANCH   2  28
HETATM   28  N3  UNL     1       1.090  12.356  28.561  1.00  0.00    -0.096 N 
HETATM   29  O1  UNL     1       1.938  12.991  29.154  1.00  0.00    -0.530 OA
HETATM   30  O2  UNL     1      -0.025  12.013  29.316  1.00  0.00    -0.530 OA
ENDBRANCH   2  28
TORSDOF 6
ENDMDL
