MODEL 1
REMARK VINA RESULT: -5.339252604      0.000      0.000
REMARK  6 active torsions:
REMARK  status: ('A' for Active; 'I' for Inactive)
REMARK    1  A    between atoms: S1_2  and  O4_5 
REMARK    2  A    between atoms: O4_5  and  C1_6 
REMARK    3  A    between atoms: C1_6  and  C2_7 
REMARK    4  A    between atoms: C3_10  and  O5_11 
REMARK    5  A    between atoms: C4_13  and  O6_14 
REMARK    6  A    between atoms: C5_16  and  O7_17 
ROOT
HETATM    1  C2  UNL     1       0.788  11.685  24.292  1.00  0.00     0.115 C 
HETATM    2  S2  UNL     1       2.150  10.562  23.889  1.00  0.00    -0.085 SA
HETATM    3  S3  UNL     1       1.315   9.496  22.188  1.00  0.00    -0.062 SA
HETATM    4  C3  UNL     1       0.682  10.952  21.234  1.00  0.00     0.221 C 
HETATM    5  C4  UNL     1       1.245  12.180  21.841  1.00  0.00     0.187 C 
HETATM    6  C5  UNL     1       0.675  12.690  23.119  1.00  0.00     0.166 C 
ENDROOT
BRANCH   1   7
HETATM    7  C1  UNL     1       1.279  12.492  25.579  1.00  0.00     0.211 C 
BRANCH   7   8
HETATM    8  O4  UNL     1       0.174  12.184  26.418  1.00  0.00    -0.256 OA
BRANCH   8   9
HETATM    9  S1  UNL     1      -0.968  13.293  26.505  1.00  0.00     0.251 S 
HETATM   10  O1  UNL     1      -2.057  12.669  25.495  1.00  0.00    -0.572 OA
HETATM   11  O2  UNL     1      -0.570  14.568  25.809  1.00  0.00    -0.572 OA
HETATM   12  O3  UNL     1      -1.715  13.506  27.895  1.00  0.00    -0.572 OA
ENDBRANCH   8   9
ENDBRANCH   7   8
ENDBRANCH   1   7
BRANCH   6  13
HETATM   13  O7  UNL     1      -0.615  13.191  23.067  1.00  0.00    -0.392 OA
ATOM     14  H7  UNL     1      -0.589  14.096  22.780  1.00  0.00     0.210 HD
ENDBRANCH   6  13
BRANCH   5  15
HETATM   15  O6  UNL     1       1.073  13.212  20.916  1.00  0.00    -0.390 OA
ATOM     16  H6  UNL     1       1.537  13.969  21.252  1.00  0.00     0.210 HD
ENDBRANCH   5  15
BRANCH   4  17
HETATM   17  O5  UNL     1      -0.661  10.904  21.072  1.00  0.00    -0.382 OA
ATOM     18  H5  UNL     1      -0.904  10.536  20.231  1.00  0.00     0.211 HD
ENDBRANCH   4  17
TORSDOF 6
ENDMDL
MODEL 2
REMARK VINA RESULT: -5.282493353      1.851      5.072
REMARK  6 active torsions:
REMARK  status: ('A' for Active; 'I' for Inactive)
REMARK    1  A    between atoms: S1_2  and  O4_5 
REMARK    2  A    between atoms: O4_5  and  C1_6 
REMARK    3  A    between atoms: C1_6  and  C2_7 
REMARK    4  A    between atoms: C3_10  and  O5_11 
REMARK    5  A    between atoms: C4_13  and  O6_14 
REMARK    6  A    between atoms: C5_16  and  O7_17 
ROOT
HETATM    1  C2  UNL     1       1.677  12.195  24.937  1.00  0.00     0.115 C 
HETATM    2  S2  UNL     1       1.848  11.106  26.373  1.00  0.00    -0.085 SA
HETATM    3  S3  UNL     1       1.431  12.494  27.994  1.00  0.00    -0.062 SA
HETATM    4  C3  UNL     1      -0.097  13.277  27.300  1.00  0.00     0.221 C 
HETATM    5  C4  UNL     1      -0.544  12.467  26.143  1.00  0.00     0.187 C 
HETATM    6  C5  UNL     1       0.180  12.583  24.847  1.00  0.00     0.166 C 
ENDROOT
BRANCH   1   7
HETATM    7  C1  UNL     1       2.018  11.278  23.675  1.00  0.00     0.211 C 
BRANCH   7   8
HETATM    8  O4  UNL     1       0.701  11.199  23.148  1.00  0.00    -0.256 OA
BRANCH   8   9
HETATM    9  S1  UNL     1       0.578  11.259  21.560  1.00  0.00     0.251 S 
HETATM   10  O1  UNL     1       0.802  12.835  21.311  1.00  0.00    -0.572 OA
HETATM   11  O2  UNL     1      -0.841  11.055  21.097  1.00  0.00    -0.572 OA
HETATM   12  O3  UNL     1       1.672  10.505  20.684  1.00  0.00    -0.572 OA
ENDBRANCH   8   9
ENDBRANCH   7   8
ENDBRANCH   1   7
BRANCH   6  13
HETATM   13  O7  UNL     1       0.059  13.787  24.174  1.00  0.00    -0.392 OA
ATOM     14  H7  UNL     1      -0.393  13.643  23.351  1.00  0.00     0.210 HD
ENDBRANCH   6  13
BRANCH   5  15
HETATM   15  O6  UNL     1      -1.863  12.835  25.870  1.00  0.00    -0.390 OA
ATOM     16  H6  UNL     1      -1.867  13.245  25.012  1.00  0.00     0.210 HD
ENDBRANCH   5  15
BRANCH   4  17
HETATM   17  O5  UNL     1       0.064  14.606  27.097  1.00  0.00    -0.382 OA
ATOM     18  H5  UNL     1      -0.243  14.873  26.238  1.00  0.00     0.211 HD
ENDBRANCH   4  17
TORSDOF 6
ENDMDL
MODEL 3
REMARK VINA RESULT: -5.255505611      3.024      4.127
REMARK  6 active torsions:
REMARK  status: ('A' for Active; 'I' for Inactive)
REMARK    1  A    between atoms: S1_2  and  O4_5 
REMARK    2  A    between atoms: O4_5  and  C1_6 
REMARK    3  A    between atoms: C1_6  and  C2_7 
REMARK    4  A    between atoms: C3_10  and  O5_11 
REMARK    5  A    between atoms: C4_13  and  O6_14 
REMARK    6  A    between atoms: C5_16  and  O7_17 
ROOT
HETATM    1  C2  UNL     1       2.040  11.004  23.335  1.00  0.00     0.115 C 
HETATM    2  S2  UNL     1       1.119  11.977  24.552  1.00  0.00    -0.085 SA
HETATM    3  S3  UNL     1       0.564  13.709  23.360  1.00  0.00    -0.062 SA
HETATM    4  C3  UNL     1      -0.063  12.822  21.860  1.00  0.00     0.221 C 
HETATM    5  C4  UNL     1      -0.202  11.387  22.199  1.00  0.00     0.187 C 
HETATM    6  C5  UNL     1       1.017  10.533  22.272  1.00  0.00     0.166 C 
ENDROOT
BRANCH   1   7
HETATM    7  C1  UNL     1       2.546   9.715  24.128  1.00  0.00     0.211 C 
BRANCH   7   8
HETATM    8  O4  UNL     1       2.205  10.161  25.434  1.00  0.00    -0.256 OA
BRANCH   8   9
HETATM    9  S1  UNL     1       3.087   9.575  26.626  1.00  0.00     0.251 S 
HETATM   10  O1  UNL     1       2.885  10.730  27.731  1.00  0.00    -0.572 OA
HETATM   11  O2  UNL     1       4.561   9.661  26.330  1.00  0.00    -0.572 OA
HETATM   12  O3  UNL     1       2.631   8.212  27.311  1.00  0.00    -0.572 OA
ENDBRANCH   8   9
ENDBRANCH   7   8
ENDBRANCH   1   7
BRANCH   6  13
HETATM   13  O7  UNL     1       1.675  10.287  21.080  1.00  0.00    -0.392 OA
ATOM     14  H7  UNL     1       1.239  10.756  20.378  1.00  0.00     0.210 HD
ENDBRANCH   6  13
BRANCH   5  15
HETATM   15  O6  UNL     1      -1.006  10.809  21.215  1.00  0.00    -0.390 OA
ATOM     16  H6  UNL     1      -0.988   9.869  21.355  1.00  0.00     0.210 HD
ENDBRANCH   5  15
BRANCH   4  17
HETATM   17  O5  UNL     1       0.658  13.128  20.755  1.00  0.00    -0.382 OA
ATOM     18  H5  UNL     1       1.042  12.355  20.358  1.00  0.00     0.211 HD
ENDBRANCH   4  17
TORSDOF 6
ENDMDL
MODEL 4
REMARK VINA RESULT: -5.202850013      1.314      1.911
REMARK  6 active torsions:
REMARK  status: ('A' for Active; 'I' for Inactive)
REMARK    1  A    between atoms: S1_2  and  O4_5 
REMARK    2  A    between atoms: O4_5  and  C1_6 
REMARK    3  A    between atoms: C1_6  and  C2_7 
REMARK    4  A    between atoms: C3_10  and  O5_11 
REMARK    5  A    between atoms: C4_13  and  O6_14 
REMARK    6  A    between atoms: C5_16  and  O7_17 
ROOT
HETATM    1  C2  UNL     1       1.493  11.269  24.621  1.00  0.00     0.115 C 
HETATM    2  S2  UNL     1       2.650  10.120  23.834  1.00  0.00    -0.085 SA
HETATM    3  S3  UNL     1       1.403   9.302  22.251  1.00  0.00    -0.062 SA
HETATM    4  C3  UNL     1       0.711  10.890  21.597  1.00  0.00     0.221 C 
HETATM    5  C4  UNL     1       1.484  12.007  22.189  1.00  0.00     0.187 C 
HETATM    6  C5  UNL     1       1.227  12.404  23.602  1.00  0.00     0.166 C 
ENDROOT
BRANCH   1   7
HETATM    7  C1  UNL     1       2.299  11.897  25.848  1.00  0.00     0.211 C 
BRANCH   7   8
HETATM    8  O4  UNL     1       1.406  11.492  26.877  1.00  0.00    -0.256 OA
BRANCH   8   9
HETATM    9  S1  UNL     1       0.611  12.660  27.614  1.00  0.00     0.251 S 
HETATM   10  O1  UNL     1       1.692  13.089  28.729  1.00  0.00    -0.572 OA
HETATM   11  O2  UNL     1      -0.526  12.130  28.447  1.00  0.00    -0.572 OA
HETATM   12  O3  UNL     1       0.266  13.980  26.792  1.00  0.00    -0.572 OA
ENDBRANCH   8   9
ENDBRANCH   7   8
ENDBRANCH   1   7
BRANCH   6  13
HETATM   13  O7  UNL     1      -0.001  12.983  23.871  1.00  0.00    -0.392 OA
ATOM     14  H7  UNL     1      -0.619  12.307  24.121  1.00  0.00     0.210 HD
ENDBRANCH   6  13
BRANCH   5  15
HETATM   15  O6  UNL     1       1.212  13.144  21.425  1.00  0.00    -0.390 OA
ATOM     16  H6  UNL     1       1.887  13.782  21.624  1.00  0.00     0.210 HD
ENDBRANCH   5  15
BRANCH   4  17
HETATM   17  O5  UNL     1      -0.637  10.941  21.718  1.00  0.00    -0.382 OA
ATOM     18  H5  UNL     1      -0.905  11.213  22.588  1.00  0.00     0.211 HD
ENDBRANCH   4  17
TORSDOF 6
ENDMDL
MODEL 5
REMARK VINA RESULT: -5.127205012      1.339      1.661
REMARK  6 active torsions:
REMARK  status: ('A' for Active; 'I' for Inactive)
REMARK    1  A    between atoms: S1_2  and  O4_5 
REMARK    2  A    between atoms: O4_5  and  C1_6 
REMARK    3  A    between atoms: C1_6  and  C2_7 
REMARK    4  A    between atoms: C3_10  and  O5_11 
REMARK    5  A    between atoms: C4_13  and  O6_14 
REMARK    6  A    between atoms: C5_16  and  O7_17 
ROOT
HETATM    1  C2  UNL     1       1.425  11.308  24.609  1.00  0.00     0.115 C 
HETATM    2  S2  UNL     1       2.621  10.181  23.849  1.00  0.00    -0.085 SA
HETATM    3  S3  UNL     1       1.424   9.330  22.245  1.00  0.00    -0.062 SA
HETATM    4  C3  UNL     1       0.710  10.902  21.572  1.00  0.00     0.221 C 
HETATM    5  C4  UNL     1       1.447  12.037  22.174  1.00  0.00     0.187 C 
HETATM    6  C5  UNL     1       1.155  12.433  23.580  1.00  0.00     0.166 C 
ENDROOT
BRANCH   1   7
HETATM    7  C1  UNL     1       2.193  11.957  25.849  1.00  0.00     0.211 C 
BRANCH   7   8
HETATM    8  O4  UNL     1       1.343  11.455  26.871  1.00  0.00    -0.256 OA
BRANCH   8   9
HETATM    9  S1  UNL     1       0.729  12.540  27.865  1.00  0.00     0.251 S 
HETATM   10  O1  UNL     1       0.513  13.774  26.852  1.00  0.00    -0.572 OA
HETATM   11  O2  UNL     1       1.762  13.078  28.820  1.00  0.00    -0.572 OA
HETATM   12  O3  UNL     1      -0.690  12.247  28.526  1.00  0.00    -0.572 OA
ENDBRANCH   8   9
ENDBRANCH   7   8
ENDBRANCH   1   7
BRANCH   6  13
HETATM   13  O7  UNL     1      -0.091  12.987  23.823  1.00  0.00    -0.392 OA
ATOM     14  H7  UNL     1      -0.658  12.329  24.208  1.00  0.00     0.210 HD
ENDBRANCH   6  13
BRANCH   5  15
HETATM   15  O6  UNL     1       1.166  13.165  21.401  1.00  0.00    -0.390 OA
ATOM     16  H6  UNL     1       0.967  12.859  20.523  1.00  0.00     0.210 HD
ENDBRANCH   5  15
BRANCH   4  17
HETATM   17  O5  UNL     1      -0.640  10.923  21.666  1.00  0.00    -0.382 OA
ATOM     18  H5  UNL     1      -0.932  11.257  22.507  1.00  0.00     0.211 HD
ENDBRANCH   4  17
TORSDOF 6
ENDMDL
