MODEL 1
REMARK VINA RESULT: -6.142246226      0.000      0.000
REMARK  2 active torsions:
REMARK  status: ('A' for Active; 'I' for Inactive)
REMARK    1  A    between atoms: N1_1  and  N2_4 
REMARK    2  A    between atoms: N2_4  and  C1_6 
ROOT
HETATM    1  C1  UNL     1      39.411   2.868  41.444  1.00  0.00     0.702 A 
HETATM    2  N3  UNL     1      38.930   2.621  40.219  1.00  0.00    -0.140 N 
ATOM      3  H3  UNL     1      39.571   2.549  39.429  1.00  0.00     0.189 HD
HETATM    4  C2  UNL     1      37.603   2.466  40.018  1.00  0.00     0.340 A 
HETATM    5  O1  UNL     1      37.130   2.232  38.866  1.00  0.00    -0.246 OA
HETATM    6  N4  UNL     1      36.747   2.558  41.049  1.00  0.00    -0.284 N 
ATOM      7  H4  UNL     1      35.744   2.442  40.903  1.00  0.00     0.173 HD
HETATM    8  C3  UNL     1      37.233   2.804  42.270  1.00  0.00     0.194 A 
HETATM    9  S1  UNL     1      36.210   2.919  43.533  1.00  0.00    -0.040 SA
HETATM   10  N5  UNL     1      38.568   2.962  42.482  1.00  0.00    -0.164 N 
ATOM     11  H5  UNL     1      38.923   3.151  43.420  1.00  0.00     0.186 HD
ENDROOT
BRANCH   1  12
HETATM   12  N2  UNL     1      40.669   3.016  41.636  1.00  0.00    -0.138 N 
ATOM     13  H2  UNL     1      40.990   3.764  42.249  1.00  0.00     0.205 HD
BRANCH  12  14
HETATM   14  N1  UNL     1      41.611   2.189  41.036  1.00  0.00    -0.331 N 
ATOM     15  H12 UNL     1      41.940   1.380  41.563  1.00  0.00     0.177 HD
ATOM     16  H11 UNL     1      41.974   2.368  40.100  1.00  0.00     0.177 HD
ENDBRANCH  12  14
ENDBRANCH   1  12
TORSDOF 2
ENDMDL
MODEL 2
REMARK VINA RESULT: -5.825577306      1.854      3.217
REMARK  2 active torsions:
REMARK  status: ('A' for Active; 'I' for Inactive)
REMARK    1  A    between atoms: N1_1  and  N2_4 
REMARK    2  A    between atoms: N2_4  and  C1_6 
ROOT
HETATM    1  C1  UNL     1      37.595   2.474  40.100  1.00  0.00     0.702 A 
HETATM    2  N3  UNL     1      38.909   2.664  40.280  1.00  0.00    -0.140 N 
ATOM      3  H3  UNL     1      39.541   2.605  39.481  1.00  0.00     0.189 HD
HETATM    4  C2  UNL     1      39.406   2.932  41.507  1.00  0.00     0.340 A 
HETATM    5  O1  UNL     1      40.645   3.115  41.695  1.00  0.00    -0.246 OA
HETATM    6  N4  UNL     1      38.584   3.012  42.567  1.00  0.00    -0.284 N 
ATOM      7  H4  UNL     1      38.954   3.214  43.496  1.00  0.00     0.173 HD
HETATM    8  C3  UNL     1      37.274   2.822  42.382  1.00  0.00     0.194 A 
HETATM    9  S1  UNL     1      36.262   2.914  43.656  1.00  0.00    -0.040 SA
HETATM   10  N5  UNL     1      36.764   2.550  41.149  1.00  0.00    -0.164 N 
ATOM     11  H5  UNL     1      35.762   2.406  41.026  1.00  0.00     0.186 HD
ENDROOT
BRANCH   1  12
HETATM   12  N2  UNL     1      37.123   2.218  38.937  1.00  0.00    -0.138 N 
ATOM     13  H2  UNL     1      37.745   1.838  38.225  1.00  0.00     0.205 HD
BRANCH  12  14
HETATM   14  N1  UNL     1      35.790   2.442  38.615  1.00  0.00    -0.331 N 
ATOM     15  H12 UNL     1      35.094   2.319  39.350  1.00  0.00     0.177 HD
ATOM     16  H11 UNL     1      35.497   2.721  37.678  1.00  0.00     0.177 HD
ENDBRANCH  12  14
ENDBRANCH   1  12
TORSDOF 2
ENDMDL
MODEL 3
REMARK VINA RESULT: -5.747395022      2.499      3.800
REMARK  2 active torsions:
REMARK  status: ('A' for Active; 'I' for Inactive)
REMARK    1  A    between atoms: N1_1  and  N2_4 
REMARK    2  A    between atoms: N2_4  and  C1_6 
ROOT
HETATM    1  C1  UNL     1      37.444   2.486  40.146  1.00  0.00     0.702 A 
HETATM    2  N3  UNL     1      36.666   2.788  41.194  1.00  0.00    -0.140 N 
ATOM      3  H3  UNL     1      35.662   2.907  41.060  1.00  0.00     0.189 HD
HETATM    4  C2  UNL     1      37.198   2.936  42.427  1.00  0.00     0.340 A 
HETATM    5  O1  UNL     1      36.478   3.220  43.429  1.00  0.00    -0.246 OA
HETATM    6  N4  UNL     1      38.519   2.782  42.617  1.00  0.00    -0.284 N 
ATOM      7  H4  UNL     1      38.926   2.893  43.546  1.00  0.00     0.173 HD
HETATM    8  C3  UNL     1      39.290   2.481  41.568  1.00  0.00     0.194 A 
HETATM    9  S1  UNL     1      40.895   2.291  41.779  1.00  0.00    -0.040 SA
HETATM   10  N5  UNL     1      38.764   2.330  40.321  1.00  0.00    -0.164 N 
ATOM     11  H5  UNL     1      39.367   2.102  39.530  1.00  0.00     0.186 HD
ENDROOT
BRANCH   1  12
HETATM   12  N2  UNL     1      36.941   2.346  38.976  1.00  0.00    -0.138 N 
ATOM     13  H2  UNL     1      37.563   2.149  38.192  1.00  0.00     0.205 HD
BRANCH  12  14
HETATM   14  N1  UNL     1      35.576   2.455  38.739  1.00  0.00    -0.331 N 
ATOM     15  H12 UNL     1      35.102   1.661  38.309  1.00  0.00     0.177 HD
ATOM     16  H11 UNL     1      35.048   3.294  38.982  1.00  0.00     0.177 HD
ENDBRANCH  12  14
ENDBRANCH   1  12
TORSDOF 2
ENDMDL
MODEL 4
REMARK VINA RESULT: -5.729340060      2.237      2.672
REMARK  2 active torsions:
REMARK  status: ('A' for Active; 'I' for Inactive)
REMARK    1  A    between atoms: N1_1  and  N2_4 
REMARK    2  A    between atoms: N2_4  and  C1_6 
ROOT
HETATM    1  C1  UNL     1      39.103   2.900  42.051  1.00  0.00     0.702 A 
HETATM    2  N3  UNL     1      38.251   2.957  43.083  1.00  0.00    -0.140 N 
ATOM      3  H3  UNL     1      38.613   3.067  44.031  1.00  0.00     0.189 HD
HETATM    4  C2  UNL     1      36.918   2.871  42.883  1.00  0.00     0.340 A 
HETATM    5  O1  UNL     1      36.098   2.924  43.846  1.00  0.00    -0.246 OA
HETATM    6  N4  UNL     1      36.429   2.726  41.639  1.00  0.00    -0.284 N 
ATOM      7  H4  UNL     1      35.423   2.660  41.482  1.00  0.00     0.173 HD
HETATM    8  C3  UNL     1      37.284   2.670  40.613  1.00  0.00     0.194 A 
HETATM    9  S1  UNL     1      36.709   2.493  39.098  1.00  0.00    -0.040 SA
HETATM   10  N5  UNL     1      38.629   2.755  40.806  1.00  0.00    -0.164 N 
ATOM     11  H5  UNL     1      39.268   2.709  40.012  1.00  0.00     0.186 HD
ENDROOT
BRANCH   1  12
HETATM   12  N2  UNL     1      40.368   2.981  42.241  1.00  0.00    -0.138 N 
ATOM     13  H2  UNL     1      40.711   3.373  43.117  1.00  0.00     0.205 HD
BRANCH  12  14
HETATM   14  N1  UNL     1      41.287   2.553  41.290  1.00  0.00    -0.331 N 
ATOM     15  H12 UNL     1      41.062   1.716  40.753  1.00  0.00     0.177 HD
ATOM     16  H11 UNL     1      42.164   3.046  41.122  1.00  0.00     0.177 HD
ENDBRANCH  12  14
ENDBRANCH   1  12
TORSDOF 2
ENDMDL
MODEL 5
REMARK VINA RESULT: -5.696588869      2.129      3.302
REMARK  2 active torsions:
REMARK  status: ('A' for Active; 'I' for Inactive)
REMARK    1  A    between atoms: N1_1  and  N2_4 
REMARK    2  A    between atoms: N2_4  and  C1_6 
ROOT
HETATM    1  C1  UNL     1      37.792   2.888  42.266  1.00  0.00     0.702 A 
HETATM    2  N3  UNL     1      37.117   2.767  41.115  1.00  0.00    -0.140 N 
ATOM      3  H3  UNL     1      36.123   2.991  41.087  1.00  0.00     0.189 HD
HETATM    4  C2  UNL     1      37.740   2.350  39.991  1.00  0.00     0.340 A 
HETATM    5  O1  UNL     1      37.118   2.230  38.894  1.00  0.00    -0.246 OA
HETATM    6  N4  UNL     1      39.050   2.051  40.014  1.00  0.00    -0.284 N 
ATOM      7  H4  UNL     1      39.525   1.736  39.168  1.00  0.00     0.173 HD
HETATM    8  C3  UNL     1      39.719   2.174  41.164  1.00  0.00     0.194 A 
HETATM    9  S1  UNL     1      41.308   1.816  41.212  1.00  0.00    -0.040 SA
HETATM   10  N5  UNL     1      39.099   2.593  42.303  1.00  0.00    -0.164 N 
ATOM     11  H5  UNL     1      39.624   2.680  43.173  1.00  0.00     0.186 HD
ENDROOT
BRANCH   1  12
HETATM   12  N2  UNL     1      37.203   3.282  43.332  1.00  0.00    -0.138 N 
ATOM     13  H2  UNL     1      37.628   4.027  43.884  1.00  0.00     0.205 HD
BRANCH  12  14
HETATM   14  N1  UNL     1      36.003   2.729  43.763  1.00  0.00    -0.331 N 
ATOM     15  H12 UNL     1      35.506   3.197  44.520  1.00  0.00     0.177 HD
ATOM     16  H11 UNL     1      35.616   1.881  43.347  1.00  0.00     0.177 HD
ENDBRANCH  12  14
ENDBRANCH   1  12
TORSDOF 2
ENDMDL
