MODEL 1
REMARK VINA RESULT: -8.770312949      0.000      0.000
REMARK  4 active torsions:
REMARK  status: ('A' for Active; 'I' for Inactive)
REMARK    1  A    between atoms: C2_2  and  N1_3 
REMARK    2  A    between atoms: N2_6  and  C5_7 
REMARK    3  A    between atoms: C7_9  and  C8_10 
REMARK    4  A    between atoms: C8_10  and  C9_11 
ROOT
HETATM    1  C5  UNL     1      30.842  62.232  92.502  1.00  0.00     0.073 A 
HETATM    2  C6  UNL     1      30.126  61.553  91.519  1.00  0.00     0.045 A 
HETATM    3  C7  UNL     1      29.559  60.296  91.766  1.00  0.00     0.017 A 
HETATM    4  C15 UNL     1      29.730  59.745  93.007  1.00  0.00     0.167 A 
HETATM    5  F2  UNL     1      29.250  58.517  93.299  1.00  0.00    -0.202 F 
HETATM    6  C16 UNL     1      30.452  60.447  93.976  1.00  0.00     0.196 A 
HETATM    7  F3  UNL     1      30.587  59.847  95.194  1.00  0.00    -0.199 F 
HETATM    8  C17 UNL     1      31.014  61.683  93.749  1.00  0.00     0.184 A 
HETATM    9  F4  UNL     1      31.686  62.298  94.774  1.00  0.00    -0.200 F 
ENDROOT
BRANCH   3  10
HETATM   10  C8  UNL     1      28.761  59.605  90.716  1.00  0.00     0.092 C 
HETATM   11  C10 UNL     1      27.514  59.042  91.294  1.00  0.00     0.076 C 
HETATM   12  C11 UNL     1      27.221  57.623  90.966  1.00  0.00     0.066 C 
HETATM   13  C12 UNL     1      26.218  57.095  91.981  1.00  0.00     0.046 C 
HETATM   14  C13 UNL     1      26.539  57.507  89.605  1.00  0.00     0.046 C 
HETATM   15  O1  UNL     1      28.354  56.779  91.046  1.00  0.00    -0.312 OA
HETATM   16  C14 UNL     1      29.493  57.199  90.376  1.00  0.00     0.214 C 
HETATM   17  N3  UNL     1      30.395  56.360  89.959  1.00  0.00    -0.365 N 
HETATM   18  N4  UNL     1      29.659  58.569  90.151  1.00  0.00    -0.341 N 
ATOM     19  H32 UNL     1      30.273  55.361  90.123  1.00  0.00     0.159 HD
ATOM     20  H31 UNL     1      31.233  56.669  89.467  1.00  0.00     0.159 HD
ATOM     21  H4  UNL     1      30.439  58.872  89.568  1.00  0.00     0.164 HD
BRANCH  10  22
HETATM   22  C9  UNL     1      28.517  60.492  89.494  1.00  0.00     0.258 C 
HETATM   23  F1  UNL     1      29.311  60.307  88.437  1.00  0.00    -0.253 F 
ENDBRANCH  10  22
ENDBRANCH   3  10
BRANCH   1  24
HETATM   24  N2  UNL     1      31.422  63.474  92.190  1.00  0.00    -0.374 N 
HETATM   25  C4  UNL     1      30.605  64.459  91.441  1.00  0.00     0.153 C 
HETATM   26  C3  UNL     1      30.438  65.597  92.430  1.00  0.00     0.292 C 
HETATM   27  N1  UNL     1      31.647  66.130  92.896  1.00  0.00     0.095 N 
HETATM   28  C19 UNL     1      32.828  65.380  92.857  1.00  0.00     0.236 C 
HETATM   29  C18 UNL     1      32.742  63.939  92.459  1.00  0.00     0.158 C 
HETATM   30  C20 UNL     1      33.496  65.441  94.219  1.00  0.00     0.044 C 
BRANCH  27  31
HETATM   31  C2  UNL     1      31.787  67.478  92.380  1.00  0.00     0.268 C 
HETATM   32  C1  UNL     1      31.061  68.527  93.145  1.00  0.00     0.037 C 
ENDBRANCH  27  31
ENDBRANCH   1  24
TORSDOF 4
ENDMDL
MODEL 2
REMARK VINA RESULT: -8.767830362      2.030      2.778
REMARK  4 active torsions:
REMARK  status: ('A' for Active; 'I' for Inactive)
REMARK    1  A    between atoms: C2_2  and  N1_3 
REMARK    2  A    between atoms: N2_6  and  C5_7 
REMARK    3  A    between atoms: C7_9  and  C8_10 
REMARK    4  A    between atoms: C8_10  and  C9_11 
ROOT
HETATM    1  C5  UNL     1      31.012  63.249  93.432  1.00  0.00     0.073 A 
HETATM    2  C6  UNL     1      30.592  62.164  92.667  1.00  0.00     0.045 A 
HETATM    3  C7  UNL     1      30.168  60.970  93.264  1.00  0.00     0.017 A 
HETATM    4  C15 UNL     1      30.180  60.894  94.631  1.00  0.00     0.167 A 
HETATM    5  F2  UNL     1      29.828  59.758  95.271  1.00  0.00    -0.202 F 
HETATM    6  C16 UNL     1      30.604  61.997  95.376  1.00  0.00     0.196 A 
HETATM    7  F3  UNL     1      30.592  61.862  96.733  1.00  0.00    -0.199 F 
HETATM    8  C17 UNL     1      31.022  63.177  94.803  1.00  0.00     0.184 A 
HETATM    9  F4  UNL     1      31.400  64.209  95.625  1.00  0.00    -0.200 F 
ENDROOT
BRANCH   3  10
HETATM   10  C8  UNL     1      29.683  59.836  92.431  1.00  0.00     0.092 C 
HETATM   11  C10 UNL     1      29.897  60.117  90.989  1.00  0.00     0.076 C 
HETATM   12  C11 UNL     1      28.730  59.898  90.096  1.00  0.00     0.066 C 
HETATM   13  C12 UNL     1      28.970  60.659  88.800  1.00  0.00     0.046 C 
HETATM   14  C13 UNL     1      28.614  58.427  89.702  1.00  0.00     0.046 C 
HETATM   15  O1  UNL     1      27.512  60.385  90.628  1.00  0.00    -0.312 OA
HETATM   16  C14 UNL     1      27.202  60.004  91.924  1.00  0.00     0.214 C 
HETATM   17  N3  UNL     1      25.974  59.954  92.350  1.00  0.00    -0.365 N 
HETATM   18  N4  UNL     1      28.252  59.667  92.783  1.00  0.00    -0.341 N 
ATOM     19  H32 UNL     1      25.208  60.199  91.723  1.00  0.00     0.159 HD
ATOM     20  H31 UNL     1      25.745  59.674  93.304  1.00  0.00     0.159 HD
ATOM     21  H4  UNL     1      28.023  59.286  93.701  1.00  0.00     0.164 HD
BRANCH  10  22
HETATM   22  C9  UNL     1      30.264  58.495  92.881  1.00  0.00     0.258 C 
HETATM   23  F1  UNL     1      29.507  57.409  92.701  1.00  0.00    -0.253 F 
ENDBRANCH  10  22
ENDBRANCH   3  10
BRANCH   1  24
HETATM   24  N2  UNL     1      31.462  64.411  92.781  1.00  0.00    -0.374 N 
HETATM   25  C4  UNL     1      30.494  65.170  91.953  1.00  0.00     0.153 C 
HETATM   26  C3  UNL     1      30.373  66.493  92.683  1.00  0.00     0.292 C 
HETATM   27  N1  UNL     1      31.590  67.165  92.854  1.00  0.00     0.095 N 
HETATM   28  C19 UNL     1      32.806  66.472  92.821  1.00  0.00     0.236 C 
HETATM   29  C18 UNL     1      32.770  64.977  92.762  1.00  0.00     0.158 C 
HETATM   30  C20 UNL     1      33.631  66.864  94.033  1.00  0.00     0.044 C 
BRANCH  27  31
HETATM   31  C2  UNL     1      31.573  68.366  92.042  1.00  0.00     0.268 C 
HETATM   32  C1  UNL     1      30.420  69.276  92.282  1.00  0.00     0.037 C 
ENDBRANCH  27  31
ENDBRANCH   1  24
TORSDOF 4
ENDMDL
MODEL 3
REMARK VINA RESULT: -8.249196915      2.390      7.721
REMARK  4 active torsions:
REMARK  status: ('A' for Active; 'I' for Inactive)
REMARK    1  A    between atoms: C2_2  and  N1_3 
REMARK    2  A    between atoms: N2_6  and  C5_7 
REMARK    3  A    between atoms: C7_9  and  C8_10 
REMARK    4  A    between atoms: C8_10  and  C9_11 
ROOT
HETATM    1  C5  UNL     1      29.486  60.000  91.935  1.00  0.00     0.073 A 
HETATM    2  C6  UNL     1      29.635  61.359  91.668  1.00  0.00     0.045 A 
HETATM    3  C7  UNL     1      30.451  62.174  92.463  1.00  0.00     0.017 A 
HETATM    4  C15 UNL     1      31.101  61.598  93.523  1.00  0.00     0.167 A 
HETATM    5  F2  UNL     1      31.865  62.334  94.357  1.00  0.00    -0.202 F 
HETATM    6  C16 UNL     1      30.935  60.233  93.768  1.00  0.00     0.196 A 
HETATM    7  F3  UNL     1      31.608  59.716  94.836  1.00  0.00    -0.199 F 
HETATM    8  C17 UNL     1      30.138  59.419  92.994  1.00  0.00     0.184 A 
HETATM    9  F4  UNL     1      30.059  58.086  93.308  1.00  0.00    -0.200 F 
ENDROOT
BRANCH   3  10
HETATM   10  C8  UNL     1      30.632  63.615  92.137  1.00  0.00     0.092 C 
HETATM   11  C10 UNL     1      32.035  64.034  92.381  1.00  0.00     0.076 C 
HETATM   12  C11 UNL     1      32.222  65.273  93.179  1.00  0.00     0.066 C 
HETATM   13  C12 UNL     1      33.645  65.286  93.717  1.00  0.00     0.046 C 
HETATM   14  C13 UNL     1      32.097  66.514  92.297  1.00  0.00     0.046 C 
HETATM   15  O1  UNL     1      31.367  65.355  94.304  1.00  0.00    -0.312 OA
HETATM   16  C14 UNL     1      30.018  65.129  94.080  1.00  0.00     0.214 C 
HETATM   17  N3  UNL     1      29.100  65.626  94.854  1.00  0.00    -0.365 N 
HETATM   18  N4  UNL     1      29.654  64.341  92.984  1.00  0.00    -0.341 N 
ATOM     19  H32 UNL     1      29.366  66.201  95.654  1.00  0.00     0.159 HD
ATOM     20  H31 UNL     1      28.107  65.459  94.690  1.00  0.00     0.159 HD
ATOM     21  H4  UNL     1      28.663  64.260  92.754  1.00  0.00     0.164 HD
BRANCH  10  22
HETATM   22  C9  UNL     1      30.130  63.960  90.734  1.00  0.00     0.258 C 
HETATM   23  F1  UNL     1      29.525  65.140  90.574  1.00  0.00    -0.253 F 
ENDBRANCH  10  22
ENDBRANCH   3  10
BRANCH   1  24
HETATM   24  N2  UNL     1      28.626  59.236  91.128  1.00  0.00    -0.374 N 
HETATM   25  C4  UNL     1      29.156  58.706  89.847  1.00  0.00     0.153 C 
HETATM   26  C3  UNL     1      29.126  57.203  90.053  1.00  0.00     0.292 C 
HETATM   27  N1  UNL     1      27.861  56.696  90.374  1.00  0.00     0.095 N 
HETATM   28  C19 UNL     1      26.876  57.517  90.935  1.00  0.00     0.236 C 
HETATM   29  C18 UNL     1      27.255  58.908  91.337  1.00  0.00     0.158 C 
HETATM   30  C20 UNL     1      26.297  56.828  92.157  1.00  0.00     0.044 C 
BRANCH  27  31
HETATM   31  C2  UNL     1      27.393  55.887  89.265  1.00  0.00     0.268 C 
HETATM   32  C1  UNL     1      26.532  56.599  88.282  1.00  0.00     0.037 C 
ENDBRANCH  27  31
ENDBRANCH   1  24
TORSDOF 4
ENDMDL
MODEL 4
REMARK VINA RESULT: -8.139639843      2.434      7.514
REMARK  4 active torsions:
REMARK  status: ('A' for Active; 'I' for Inactive)
REMARK    1  A    between atoms: C2_2  and  N1_3 
REMARK    2  A    between atoms: N2_6  and  C5_7 
REMARK    3  A    between atoms: C7_9  and  C8_10 
REMARK    4  A    between atoms: C8_10  and  C9_11 
ROOT
HETATM    1  C5  UNL     1      29.769  59.970  91.594  1.00  0.00     0.073 A 
HETATM    2  C6  UNL     1      29.909  61.341  91.394  1.00  0.00     0.045 A 
HETATM    3  C7  UNL     1      30.491  62.166  92.365  1.00  0.00     0.017 A 
HETATM    4  C15 UNL     1      30.920  61.585  93.530  1.00  0.00     0.167 A 
HETATM    5  F2  UNL     1      31.447  62.326  94.527  1.00  0.00    -0.202 F 
HETATM    6  C16 UNL     1      30.768  60.208  93.705  1.00  0.00     0.196 A 
HETATM    7  F3  UNL     1      31.216  59.687  94.884  1.00  0.00    -0.199 F 
HETATM    8  C17 UNL     1      30.200  59.385  92.759  1.00  0.00     0.184 A 
HETATM    9  F4  UNL     1      30.116  58.041  93.021  1.00  0.00    -0.200 F 
ENDROOT
BRANCH   3  10
HETATM   10  C8  UNL     1      30.671  63.622  92.116  1.00  0.00     0.092 C 
HETATM   11  C10 UNL     1      32.061  64.038  92.431  1.00  0.00     0.076 C 
HETATM   12  C11 UNL     1      32.209  65.238  93.294  1.00  0.00     0.066 C 
HETATM   13  C12 UNL     1      33.612  65.234  93.883  1.00  0.00     0.046 C 
HETATM   14  C13 UNL     1      32.105  66.519  92.469  1.00  0.00     0.046 C 
HETATM   15  O1  UNL     1      31.313  65.259  94.390  1.00  0.00    -0.312 OA
HETATM   16  C14 UNL     1      29.975  65.035  94.106  1.00  0.00     0.214 C 
HETATM   17  N3  UNL     1      29.025  65.487  94.870  1.00  0.00    -0.365 N 
HETATM   18  N4  UNL     1      29.658  64.299  92.961  1.00  0.00    -0.341 N 
ATOM     19  H32 UNL     1      29.257  66.025  95.705  1.00  0.00     0.159 HD
ATOM     20  H31 UNL     1      28.040  65.322  94.661  1.00  0.00     0.159 HD
ATOM     21  H4  UNL     1      28.676  64.222  92.691  1.00  0.00     0.164 HD
BRANCH  10  22
HETATM   22  C9  UNL     1      30.218  64.031  90.714  1.00  0.00     0.258 C 
HETATM   23  F1  UNL     1      29.417  65.096  90.617  1.00  0.00    -0.253 F 
ENDBRANCH  10  22
ENDBRANCH   3  10
BRANCH   1  24
HETATM   24  N2  UNL     1      29.144  59.195  90.602  1.00  0.00    -0.374 N 
HETATM   25  C4  UNL     1      28.459  57.947  91.017  1.00  0.00     0.153 C 
HETATM   26  C3  UNL     1      27.002  58.227  90.699  1.00  0.00     0.292 C 
HETATM   27  N1  UNL     1      26.764  58.564  89.361  1.00  0.00     0.095 N 
HETATM   28  C19 UNL     1      27.786  59.076  88.553  1.00  0.00     0.236 C 
HETATM   29  C18 UNL     1      29.097  59.411  89.194  1.00  0.00     0.158 C 
HETATM   30  C20 UNL     1      27.283  60.327  87.855  1.00  0.00     0.044 C 
BRANCH  27  31
HETATM   31  C2  UNL     1      26.005  57.493  88.744  1.00  0.00     0.268 C 
HETATM   32  C1  UNL     1      26.790  56.592  87.856  1.00  0.00     0.037 C 
ENDBRANCH  27  31
ENDBRANCH   1  24
TORSDOF 4
ENDMDL
MODEL 5
REMARK VINA RESULT: -7.986464966      2.672      7.942
REMARK  4 active torsions:
REMARK  status: ('A' for Active; 'I' for Inactive)
REMARK    1  A    between atoms: C2_2  and  N1_3 
REMARK    2  A    between atoms: N2_6  and  C5_7 
REMARK    3  A    between atoms: C7_9  and  C8_10 
REMARK    4  A    between atoms: C8_10  and  C9_11 
ROOT
HETATM    1  C5  UNL     1      29.113  59.640  91.240  1.00  0.00     0.073 A 
HETATM    2  C6  UNL     1      29.957  60.370  92.073  1.00  0.00     0.045 A 
HETATM    3  C7  UNL     1      30.329  61.685  91.765  1.00  0.00     0.017 A 
HETATM    4  C15 UNL     1      29.842  62.239  90.610  1.00  0.00     0.167 A 
HETATM    5  F2  UNL     1      30.198  63.484  90.229  1.00  0.00    -0.202 F 
HETATM    6  C16 UNL     1      28.997  61.485  89.792  1.00  0.00     0.196 A 
HETATM    7  F3  UNL     1      28.543  62.090  88.657  1.00  0.00    -0.199 F 
HETATM    8  C17 UNL     1      28.621  60.193  90.083  1.00  0.00     0.184 A 
HETATM    9  F4  UNL     1      27.770  59.546  89.223  1.00  0.00    -0.200 F 
ENDROOT
BRANCH   3  10
HETATM   10  C8  UNL     1      31.197  62.465  92.689  1.00  0.00     0.092 C 
HETATM   11  C10 UNL     1      30.769  62.270  94.097  1.00  0.00     0.076 C 
HETATM   12  C11 UNL     1      30.595  63.502  94.908  1.00  0.00     0.066 C 
HETATM   13  C12 UNL     1      29.730  63.163  96.114  1.00  0.00     0.046 C 
HETATM   14  C13 UNL     1      31.932  63.978  95.472  1.00  0.00     0.046 C 
HETATM   15  O1  UNL     1      29.930  64.543  94.217  1.00  0.00    -0.312 OA
HETATM   16  C14 UNL     1      30.412  64.863  92.958  1.00  0.00     0.214 C 
HETATM   17  N3  UNL     1      30.248  66.044  92.438  1.00  0.00    -0.365 N 
HETATM   18  N4  UNL     1      31.092  63.874  92.240  1.00  0.00    -0.341 N 
ATOM     19  H32 UNL     1      29.752  66.765  92.962  1.00  0.00     0.159 HD
ATOM     20  H31 UNL     1      30.602  66.279  91.511  1.00  0.00     0.159 HD
ATOM     21  H4  UNL     1      31.539  64.136  91.361  1.00  0.00     0.164 HD
BRANCH  10  22
HETATM   22  C9  UNL     1      32.684  62.186  92.463  1.00  0.00     0.258 C 
HETATM   23  F1  UNL     1      33.425  63.184  91.974  1.00  0.00    -0.253 F 
ENDBRANCH  10  22
ENDBRANCH   3  10
BRANCH   1  24
HETATM   24  N2  UNL     1      28.801  58.312  91.578  1.00  0.00    -0.374 N 
HETATM   25  C4  UNL     1      27.498  58.045  92.236  1.00  0.00     0.153 C 
HETATM   26  C3  UNL     1      26.760  57.200  91.215  1.00  0.00     0.292 C 
HETATM   27  N1  UNL     1      27.436  56.031  90.845  1.00  0.00     0.095 N 
HETATM   28  C19 UNL     1      28.823  55.920  91.000  1.00  0.00     0.236 C 
HETATM   29  C18 UNL     1      29.590  57.137  91.415  1.00  0.00     0.158 C 
HETATM   30  C20 UNL     1      29.426  55.419  89.700  1.00  0.00     0.044 C 
BRANCH  27  31
HETATM   31  C2  UNL     1      26.694  54.890  91.347  1.00  0.00     0.268 C 
HETATM   32  C1  UNL     1      27.088  54.427  92.705  1.00  0.00     0.037 C 
ENDBRANCH  27  31
ENDBRANCH   1  24
TORSDOF 4
ENDMDL
