MODEL 1
REMARK VINA RESULT: -5.249006342      0.000      0.000
REMARK  2 active torsions:
REMARK  status: ('A' for Active; 'I' for Inactive)
REMARK    1  A    between atoms: C2_2  and  C3_3 
REMARK    2  A    between atoms: C5_5  and  C7_7 
ROOT
HETATM    1  C3  UNL     1     -14.786   3.924  21.383  1.00  0.00     0.144 C 
HETATM    2  C4  UNL     1     -13.665   3.813  22.361  1.00  0.00     0.055 C 
HETATM    3  C5  UNL     1     -14.212   4.479  23.592  1.00  0.00     0.040 C 
HETATM    4  C6  UNL     1     -13.905   3.631  24.775  1.00  0.00     0.026 C 
HETATM    5  C9  UNL     1     -15.696   4.463  23.348  1.00  0.00     0.185 C 
HETATM    6  O2  UNL     1     -15.843   4.551  21.990  1.00  0.00    -0.381 OA
ENDROOT
BRANCH   3   7
HETATM    7  C7  UNL     1     -13.641   5.829  23.687  1.00  0.00     0.133 C 
HETATM    8  C8  UNL     1     -12.351   6.261  23.140  1.00  0.00     0.091 C 
HETATM    9  O1  UNL     1     -14.301   6.669  24.278  1.00  0.00    -0.297 OA
ENDBRANCH   3   7
BRANCH   1  10
HETATM   10  C2  UNL     1     -15.137   2.556  20.918  1.00  0.00    -0.005 C 
HETATM   11  C1  UNL     1     -14.563   1.513  21.482  1.00  0.00     0.009 C 
ENDBRANCH   1  10
TORSDOF 2
ENDMDL
MODEL 2
REMARK VINA RESULT: -5.221823281      1.725      2.730
REMARK  2 active torsions:
REMARK  status: ('A' for Active; 'I' for Inactive)
REMARK    1  A    between atoms: C2_2  and  C3_3 
REMARK    2  A    between atoms: C5_5  and  C7_7 
ROOT
HETATM    1  C3  UNL     1     -14.522   3.815  23.085  1.00  0.00     0.144 C 
HETATM    2  C4  UNL     1     -15.161   5.124  23.409  1.00  0.00     0.055 C 
HETATM    3  C5  UNL     1     -14.276   5.685  24.485  1.00  0.00     0.040 C 
HETATM    4  C6  UNL     1     -13.998   7.115  24.183  1.00  0.00     0.026 C 
HETATM    5  C9  UNL     1     -13.008   4.892  24.320  1.00  0.00     0.185 C 
HETATM    6  O2  UNL     1     -13.402   3.665  23.861  1.00  0.00    -0.381 OA
ENDROOT
BRANCH   3   7
HETATM    7  C7  UNL     1     -14.934   5.487  25.783  1.00  0.00     0.133 C 
HETATM    8  C8  UNL     1     -15.236   4.198  26.410  1.00  0.00     0.091 C 
HETATM    9  O1  UNL     1     -15.261   6.491  26.397  1.00  0.00    -0.297 OA
ENDBRANCH   3   7
BRANCH   1  10
HETATM   10  C2  UNL     1     -14.203   3.798  21.632  1.00  0.00    -0.005 C 
HETATM   11  C1  UNL     1     -14.887   3.008  20.829  1.00  0.00     0.009 C 
ENDBRANCH   1  10
TORSDOF 2
ENDMDL
MODEL 3
REMARK VINA RESULT: -5.074536004      1.013      1.049
REMARK  2 active torsions:
REMARK  status: ('A' for Active; 'I' for Inactive)
REMARK    1  A    between atoms: C2_2  and  C3_3 
REMARK    2  A    between atoms: C5_5  and  C7_7 
ROOT
HETATM    1  C3  UNL     1     -15.209   4.220  22.189  1.00  0.00     0.144 C 
HETATM    2  C4  UNL     1     -13.771   4.584  22.344  1.00  0.00     0.055 C 
HETATM    3  C5  UNL     1     -13.626   4.805  23.822  1.00  0.00     0.040 C 
HETATM    4  C6  UNL     1     -12.393   4.118  24.294  1.00  0.00     0.026 C 
HETATM    5  C9  UNL     1     -14.828   4.096  24.384  1.00  0.00     0.185 C 
HETATM    6  O2  UNL     1     -15.799   4.210  23.426  1.00  0.00    -0.381 OA
ENDROOT
BRANCH   3   7
HETATM    7  C7  UNL     1     -13.614   6.250  24.081  1.00  0.00     0.133 C 
HETATM    8  C8  UNL     1     -12.667   7.219  23.523  1.00  0.00     0.091 C 
HETATM    9  O1  UNL     1     -14.474   6.686  24.832  1.00  0.00    -0.297 OA
ENDBRANCH   3   7
BRANCH   1  10
HETATM   10  C2  UNL     1     -15.286   2.892  21.521  1.00  0.00    -0.005 C 
HETATM   11  C1  UNL     1     -14.174   2.284  21.162  1.00  0.00     0.009 C 
ENDBRANCH   1  10
TORSDOF 2
ENDMDL
MODEL 4
REMARK VINA RESULT: -4.943813444      1.877      2.322
REMARK  2 active torsions:
REMARK  status: ('A' for Active; 'I' for Inactive)
REMARK    1  A    between atoms: C2_2  and  C3_3 
REMARK    2  A    between atoms: C5_5  and  C7_7 
ROOT
HETATM    1  C3  UNL     1     -14.292   2.677  21.862  1.00  0.00     0.144 C 
HETATM    2  C4  UNL     1     -14.684   3.401  23.107  1.00  0.00     0.055 C 
HETATM    3  C5  UNL     1     -13.631   4.464  23.236  1.00  0.00     0.040 C 
HETATM    4  C6  UNL     1     -14.291   5.759  23.558  1.00  0.00     0.026 C 
HETATM    5  C9  UNL     1     -13.059   4.538  21.846  1.00  0.00     0.185 C 
HETATM    6  O2  UNL     1     -13.174   3.272  21.338  1.00  0.00    -0.381 OA
ENDROOT
BRANCH   3   7
HETATM    7  C7  UNL     1     -12.662   4.043  24.255  1.00  0.00     0.133 C 
HETATM    8  C8  UNL     1     -11.247   4.423  24.310  1.00  0.00     0.091 C 
HETATM    9  O1  UNL     1     -13.071   3.305  25.138  1.00  0.00    -0.297 OA
ENDBRANCH   3   7
BRANCH   1  10
HETATM   10  C2  UNL     1     -15.441   2.715  20.918  1.00  0.00    -0.005 C 
HETATM   11  C1  UNL     1     -16.655   2.924  21.385  1.00  0.00     0.009 C 
ENDBRANCH   1  10
TORSDOF 2
ENDMDL
MODEL 5
REMARK VINA RESULT: -4.932295904      1.867      2.489
REMARK  2 active torsions:
REMARK  status: ('A' for Active; 'I' for Inactive)
REMARK    1  A    between atoms: C2_2  and  C3_3 
REMARK    2  A    between atoms: C5_5  and  C7_7 
ROOT
HETATM    1  C3  UNL     1     -13.687   5.159  22.916  1.00  0.00     0.144 C 
HETATM    2  C4  UNL     1     -13.222   4.843  24.298  1.00  0.00     0.055 C 
HETATM    3  C5  UNL     1     -14.486   4.452  25.008  1.00  0.00     0.040 C 
HETATM    4  C6  UNL     1     -14.233   3.215  25.796  1.00  0.00     0.026 C 
HETATM    5  C9  UNL     1     -15.420   4.130  23.873  1.00  0.00     0.185 C 
HETATM    6  O2  UNL     1     -15.039   4.949  22.845  1.00  0.00    -0.381 OA
ENDROOT
BRANCH   3   7
HETATM    7  C7  UNL     1     -14.927   5.582  25.836  1.00  0.00     0.133 C 
HETATM    8  C8  UNL     1     -14.984   6.986  25.421  1.00  0.00     0.091 C 
HETATM    9  O1  UNL     1     -15.278   5.328  26.978  1.00  0.00    -0.297 OA
ENDBRANCH   3   7
BRANCH   1  10
HETATM   10  C2  UNL     1     -12.935   4.299  21.962  1.00  0.00    -0.005 C 
HETATM   11  C1  UNL     1     -11.701   3.938  22.250  1.00  0.00     0.009 C 
ENDBRANCH   1  10
TORSDOF 2
ENDMDL
