MODEL 1
REMARK VINA RESULT: -5.607227140      0.000      0.000
REMARK  3 active torsions:
REMARK  status: ('A' for Active; 'I' for Inactive)
REMARK    1  A    between atoms: C2_2  and  C3_3 
REMARK    2  A    between atoms: C3_3  and  O2_5 
REMARK    3  A    between atoms: O2_5  and  C4_6 
ROOT
HETATM    1  C4  UNL     1     -14.993   4.266  23.417  1.00  0.00     0.132 C 
HETATM    2  C5  UNL     1     -13.818   3.467  22.965  1.00  0.00     0.032 C 
HETATM    3  C6  UNL     1     -13.721   3.246  21.505  1.00  0.00     0.002 C 
HETATM    4  C7  UNL     1     -15.000   3.156  20.772  1.00  0.00     0.000 C 
HETATM    5  C8  UNL     1     -16.234   3.061  21.593  1.00  0.00     0.002 C 
HETATM    6  C9  UNL     1     -16.288   3.899  22.809  1.00  0.00     0.032 C 
ENDROOT
BRANCH   1   7
HETATM    7  O2  UNL     1     -15.045   4.143  24.843  1.00  0.00    -0.313 OA
BRANCH   7   8
HETATM    8  C3  UNL     1     -15.082   5.208  25.696  1.00  0.00     0.282 C 
HETATM    9  O1  UNL     1     -15.319   4.996  26.906  1.00  0.00    -0.260 OA
BRANCH   8  10
HETATM   10  C2  UNL     1     -14.847   6.547  25.175  1.00  0.00     0.072 C 
HETATM   11  C1  UNL     1     -15.333   7.599  25.810  1.00  0.00     0.017 C 
ENDBRANCH   8  10
ENDBRANCH   7   8
ENDBRANCH   1   7
TORSDOF 3
ENDMDL
MODEL 2
REMARK VINA RESULT: -5.494825535      1.367      1.720
REMARK  3 active torsions:
REMARK  status: ('A' for Active; 'I' for Inactive)
REMARK    1  A    between atoms: C2_2  and  C3_3 
REMARK    2  A    between atoms: C3_3  and  O2_5 
REMARK    3  A    between atoms: O2_5  and  C4_6 
ROOT
HETATM    1  C4  UNL     1     -14.654   4.358  22.614  1.00  0.00     0.132 C 
HETATM    2  C5  UNL     1     -13.865   3.205  22.093  1.00  0.00     0.032 C 
HETATM    3  C6  UNL     1     -14.406   2.561  20.876  1.00  0.00     0.002 C 
HETATM    4  C7  UNL     1     -15.875   2.578  20.725  1.00  0.00     0.000 C 
HETATM    5  C8  UNL     1     -16.661   3.021  21.906  1.00  0.00     0.002 C 
HETATM    6  C9  UNL     1     -16.116   4.157  22.678  1.00  0.00     0.032 C 
ENDROOT
BRANCH   1   7
HETATM    7  O2  UNL     1     -14.124   4.662  23.910  1.00  0.00    -0.313 OA
BRANCH   7   8
HETATM    8  C3  UNL     1     -14.380   5.822  24.582  1.00  0.00     0.282 C 
HETATM    9  O1  UNL     1     -14.090   6.907  24.032  1.00  0.00    -0.260 OA
BRANCH   8  10
HETATM   10  C2  UNL     1     -14.978   5.760  25.908  1.00  0.00     0.072 C 
HETATM   11  C1  UNL     1     -15.300   4.592  26.435  1.00  0.00     0.017 C 
ENDBRANCH   8  10
ENDBRANCH   7   8
ENDBRANCH   1   7
TORSDOF 3
ENDMDL
MODEL 3
REMARK VINA RESULT: -5.477159825      0.697      1.671
REMARK  3 active torsions:
REMARK  status: ('A' for Active; 'I' for Inactive)
REMARK    1  A    between atoms: C2_2  and  C3_3 
REMARK    2  A    between atoms: C3_3  and  O2_5 
REMARK    3  A    between atoms: O2_5  and  C4_6 
ROOT
HETATM    1  C4  UNL     1     -15.007   3.851  23.423  1.00  0.00     0.132 C 
HETATM    2  C5  UNL     1     -16.204   4.033  22.554  1.00  0.00     0.032 C 
HETATM    3  C6  UNL     1     -16.335   3.068  21.439  1.00  0.00     0.002 C 
HETATM    4  C7  UNL     1     -15.073   2.563  20.861  1.00  0.00     0.000 C 
HETATM    5  C8  UNL     1     -13.824   3.243  21.291  1.00  0.00     0.002 C 
HETATM    6  C9  UNL     1     -13.730   3.622  22.716  1.00  0.00     0.032 C 
ENDROOT
BRANCH   1   7
HETATM    7  O2  UNL     1     -14.927   5.015  24.255  1.00  0.00    -0.313 OA
BRANCH   7   8
HETATM    8  C3  UNL     1     -15.058   4.987  25.614  1.00  0.00     0.282 C 
HETATM    9  O1  UNL     1     -15.156   3.877  26.182  1.00  0.00    -0.260 OA
BRANCH   8  10
HETATM   10  C2  UNL     1     -15.079   6.241  26.354  1.00  0.00     0.072 C 
HETATM   11  C1  UNL     1     -15.356   7.372  25.730  1.00  0.00     0.017 C 
ENDBRANCH   8  10
ENDBRANCH   7   8
ENDBRANCH   1   7
TORSDOF 3
ENDMDL
MODEL 4
REMARK VINA RESULT: -5.396056989      1.877      4.639
REMARK  3 active torsions:
REMARK  status: ('A' for Active; 'I' for Inactive)
REMARK    1  A    between atoms: C2_2  and  C3_3 
REMARK    2  A    between atoms: C3_3  and  O2_5 
REMARK    3  A    between atoms: O2_5  and  C4_6 
ROOT
HETATM    1  C4  UNL     1     -14.075   4.994  23.916  1.00  0.00     0.132 C 
HETATM    2  C5  UNL     1     -14.777   6.290  24.136  1.00  0.00     0.032 C 
HETATM    3  C6  UNL     1     -14.940   6.696  25.550  1.00  0.00     0.002 C 
HETATM    4  C7  UNL     1     -15.087   5.601  26.530  1.00  0.00     0.000 C 
HETATM    5  C8  UNL     1     -15.294   4.237  25.980  1.00  0.00     0.002 C 
HETATM    6  C9  UNL     1     -14.506   3.877  24.783  1.00  0.00     0.032 C 
ENDROOT
BRANCH   1   7
HETATM    7  O2  UNL     1     -14.253   4.664  22.533  1.00  0.00    -0.313 OA
BRANCH   7   8
HETATM    8  C3  UNL     1     -15.328   3.977  22.048  1.00  0.00     0.282 C 
HETATM    9  O1  UNL     1     -16.437   4.555  22.009  1.00  0.00    -0.260 OA
BRANCH   8  10
HETATM   10  C2  UNL     1     -15.152   2.604  21.596  1.00  0.00     0.072 C 
HETATM   11  C1  UNL     1     -13.961   2.182  21.212  1.00  0.00     0.017 C 
ENDBRANCH   8  10
ENDBRANCH   7   8
ENDBRANCH   1   7
TORSDOF 3
ENDMDL
MODEL 5
REMARK VINA RESULT: -5.375964270      2.292      4.726
REMARK  3 active torsions:
REMARK  status: ('A' for Active; 'I' for Inactive)
REMARK    1  A    between atoms: C2_2  and  C3_3 
REMARK    2  A    between atoms: C3_3  and  O2_5 
REMARK    3  A    between atoms: O2_5  and  C4_6 
ROOT
HETATM    1  C4  UNL     1     -13.615   4.845  22.786  1.00  0.00     0.132 C 
HETATM    2  C5  UNL     1     -13.854   6.061  23.615  1.00  0.00     0.032 C 
HETATM    3  C6  UNL     1     -12.686   6.952  23.792  1.00  0.00     0.002 C 
HETATM    4  C7  UNL     1     -11.362   6.298  23.807  1.00  0.00     0.000 C 
HETATM    5  C8  UNL     1     -11.352   4.814  23.881  1.00  0.00     0.002 C 
HETATM    6  C9  UNL     1     -12.372   4.103  23.082  1.00  0.00     0.032 C 
ENDROOT
BRANCH   1   7
HETATM    7  O2  UNL     1     -14.763   4.005  22.954  1.00  0.00    -0.313 OA
BRANCH   7   8
HETATM    8  C3  UNL     1     -15.653   3.728  21.957  1.00  0.00     0.282 C 
HETATM    9  O1  UNL     1     -16.650   4.471  21.823  1.00  0.00    -0.260 OA
BRANCH   8  10
HETATM   10  C2  UNL     1     -15.416   2.584  21.088  1.00  0.00     0.072 C 
HETATM   11  C1  UNL     1     -14.653   1.587  21.499  1.00  0.00     0.017 C 
ENDBRANCH   8  10
ENDBRANCH   7   8
ENDBRANCH   1   7
TORSDOF 3
ENDMDL
