MODEL 1
REMARK VINA RESULT: -7.361761871      0.000      0.000
REMARK  5 active torsions:
REMARK  status: ('A' for Active; 'I' for Inactive)
REMARK    1  A    between atoms: O1_2  and  C2_3 
REMARK    2  A    between atoms: C2_3  and  C3_5 
REMARK    3  A    between atoms: C5_7  and  O3_8 
REMARK    4  A    between atoms: C10_13  and  O4_14 
REMARK    5  A    between atoms: C14_21  and  C15_22 
REMARK       I    between atoms: C15_22  and  N2_24 
ROOT
HETATM    1  C3  UNL     1      -5.496  20.309   2.799  1.00  0.00     0.071 C 
HETATM    2  C4  UNL     1      -6.263  20.700   1.536  1.00  0.00     0.053 C 
HETATM    3  C5  UNL     1      -5.227  21.810   1.406  1.00  0.00     0.127 C 
HETATM    4  C7  UNL     1      -5.335  21.793   2.916  1.00  0.00     0.036 C 
HETATM    5  C8  UNL     1      -4.267  22.303   3.748  1.00  0.00     0.047 C 
HETATM    6  C9  UNL     1      -4.687  22.963   5.014  1.00  0.00     0.260 C 
HETATM    7  C10 UNL     1      -5.996  23.700   5.044  1.00  0.00     0.210 C 
HETATM    8  C11 UNL     1      -6.516  22.563   5.849  1.00  0.00     0.391 C 
HETATM    9  O5  UNL     1      -7.178  21.536   5.240  1.00  0.00    -0.347 OA
HETATM   10  C12 UNL     1      -6.358  20.419   5.203  1.00  0.00     0.167 C 
HETATM   11  C13 UNL     1      -5.102  20.737   5.909  1.00  0.00     0.309 C 
HETATM   12  N1  UNL     1      -5.143  22.163   6.062  1.00  0.00     0.129 N 
HETATM   13  C14 UNL     1      -6.279  19.701   3.900  1.00  0.00     0.127 C 
ENDROOT
BRANCH  13  14
HETATM   14  C15 UNL     1      -7.639  19.228   3.583  1.00  0.00     0.227 C 
HETATM   15  O6  UNL     1      -8.559  20.120   3.708  1.00  0.00    -0.273 OA
HETATM   16  N2  UNL     1      -8.053  17.978   3.174  1.00  0.00    -0.360 N 
HETATM   17  C16 UNL     1      -7.087  16.924   3.027  1.00  0.00     0.152 C 
HETATM   18  C17 UNL     1      -9.431  17.702   2.889  1.00  0.00     0.152 C 
ENDBRANCH  13  14
BRANCH   1  19
HETATM   19  C2  UNL     1      -4.340  19.511   2.334  1.00  0.00     0.268 C 
HETATM   20  O2  UNL     1      -3.758  18.689   3.088  1.00  0.00    -0.264 OA
BRANCH  19  21
HETATM   21  O1  UNL     1      -3.790  19.574   1.069  1.00  0.00    -0.326 OA
HETATM   22  C1  UNL     1      -2.449  19.956   0.841  1.00  0.00     0.213 C 
ENDBRANCH  19  21
ENDBRANCH   1  19
BRANCH   3  23
HETATM   23  O3  UNL     1      -5.756  22.978   0.826  1.00  0.00    -0.390 OA
HETATM   24  C6  UNL     1      -4.972  23.343  -0.265  1.00  0.00     0.202 C 
ENDBRANCH   3  23
BRANCH   7  25
HETATM   25  O4  UNL     1      -5.944  24.855   5.863  1.00  0.00    -0.389 OA
ATOM     26  H4  UNL     1      -6.165  25.646   5.386  1.00  0.00     0.210 HD
ENDBRANCH   7  25
TORSDOF 5
ENDMDL
MODEL 2
REMARK VINA RESULT: -6.626625520      2.099      4.742
REMARK  5 active torsions:
REMARK  status: ('A' for Active; 'I' for Inactive)
REMARK    1  A    between atoms: O1_2  and  C2_3 
REMARK    2  A    between atoms: C2_3  and  C3_5 
REMARK    3  A    between atoms: C5_7  and  O3_8 
REMARK    4  A    between atoms: C10_13  and  O4_14 
REMARK    5  A    between atoms: C14_21  and  C15_22 
REMARK       I    between atoms: C15_22  and  N2_24 
ROOT
HETATM    1  C3  UNL     1      -5.791  21.218   2.489  1.00  0.00     0.071 C 
HETATM    2  C4  UNL     1      -4.876  20.066   2.077  1.00  0.00     0.053 C 
HETATM    3  C5  UNL     1      -5.611  19.270   3.148  1.00  0.00     0.127 C 
HETATM    4  C7  UNL     1      -5.605  20.613   3.846  1.00  0.00     0.036 C 
HETATM    5  C8  UNL     1      -6.574  20.926   4.875  1.00  0.00     0.047 C 
HETATM    6  C9  UNL     1      -6.091  21.798   5.979  1.00  0.00     0.260 C 
HETATM    7  C10 UNL     1      -4.651  21.707   6.394  1.00  0.00     0.210 C 
HETATM    8  C11 UNL     1      -4.464  23.018   5.718  1.00  0.00     0.391 C 
HETATM    9  O5  UNL     1      -4.025  23.068   4.426  1.00  0.00    -0.347 OA
HETATM   10  C12 UNL     1      -5.081  23.411   3.596  1.00  0.00     0.167 C 
HETATM   11  C13 UNL     1      -6.269  23.670   4.431  1.00  0.00     0.309 C 
HETATM   12  N1  UNL     1      -5.903  23.157   5.720  1.00  0.00     0.129 N 
HETATM   13  C14 UNL     1      -5.244  22.590   2.364  1.00  0.00     0.127 C 
ENDROOT
BRANCH  13  14
HETATM   14  C15 UNL     1      -4.016  22.758   1.565  1.00  0.00     0.227 C 
HETATM   15  O6  UNL     1      -2.923  22.555   2.215  1.00  0.00    -0.273 OA
HETATM   16  N2  UNL     1      -3.882  23.097   0.236  1.00  0.00    -0.360 N 
HETATM   17  C16 UNL     1      -5.055  23.356  -0.553  1.00  0.00     0.152 C 
HETATM   18  C17 UNL     1      -2.593  23.196  -0.385  1.00  0.00     0.152 C 
ENDBRANCH  13  14
BRANCH   1  19
HETATM   19  C2  UNL     1      -7.071  20.985   1.784  1.00  0.00     0.268 C 
HETATM   20  O2  UNL     1      -7.111  20.742   0.551  1.00  0.00    -0.264 OA
BRANCH  19  21
HETATM   21  O1  UNL     1      -8.319  21.008   2.377  1.00  0.00    -0.326 OA
HETATM   22  C1  UNL     1      -9.073  19.836   2.604  1.00  0.00     0.213 C 
ENDBRANCH  19  21
ENDBRANCH   1  19
BRANCH   3  23
HETATM   23  O3  UNL     1      -4.787  18.317   3.775  1.00  0.00    -0.390 OA
HETATM   24  C6  UNL     1      -5.195  17.040   3.398  1.00  0.00     0.202 C 
ENDBRANCH   3  23
BRANCH   7  25
HETATM   25  O4  UNL     1      -4.481  21.883   7.791  1.00  0.00    -0.389 OA
ATOM     26  H4  UNL     1      -3.621  22.222   8.010  1.00  0.00     0.210 HD
ENDBRANCH   7  25
TORSDOF 5
ENDMDL
MODEL 3
REMARK VINA RESULT: -6.560784318      1.670      4.983
REMARK  5 active torsions:
REMARK  status: ('A' for Active; 'I' for Inactive)
REMARK    1  A    between atoms: O1_2  and  C2_3 
REMARK    2  A    between atoms: C2_3  and  C3_5 
REMARK    3  A    between atoms: C5_7  and  O3_8 
REMARK    4  A    between atoms: C10_13  and  O4_14 
REMARK    5  A    between atoms: C14_21  and  C15_22 
REMARK       I    between atoms: C15_22  and  N2_24 
ROOT
HETATM    1  C3  UNL     1      -5.228  22.585   2.949  1.00  0.00     0.071 C 
HETATM    2  C4  UNL     1      -3.720  22.397   3.114  1.00  0.00     0.053 C 
HETATM    3  C5  UNL     1      -3.825  21.516   1.875  1.00  0.00     0.127 C 
HETATM    4  C7  UNL     1      -5.153  21.157   2.507  1.00  0.00     0.036 C 
HETATM    5  C8  UNL     1      -6.240  20.627   1.712  1.00  0.00     0.047 C 
HETATM    6  C9  UNL     1      -7.114  19.630   2.388  1.00  0.00     0.260 C 
HETATM    7  C10 UNL     1      -6.509  18.722   3.421  1.00  0.00     0.210 C 
HETATM    8  C11 UNL     1      -7.221  19.545   4.433  1.00  0.00     0.391 C 
HETATM    9  O5  UNL     1      -6.579  20.578   5.055  1.00  0.00    -0.347 OA
HETATM   10  C12 UNL     1      -7.050  21.780   4.550  1.00  0.00     0.167 C 
HETATM   11  C13 UNL     1      -8.128  21.493   3.585  1.00  0.00     0.309 C 
HETATM   12  N1  UNL     1      -8.016  20.081   3.352  1.00  0.00     0.129 N 
HETATM   13  C14 UNL     1      -6.020  22.791   4.184  1.00  0.00     0.127 C 
ENDROOT
BRANCH  13  14
HETATM   14  C15 UNL     1      -5.278  23.118   5.416  1.00  0.00     0.227 C 
HETATM   15  O6  UNL     1      -4.747  22.105   6.008  1.00  0.00    -0.273 OA
HETATM   16  N2  UNL     1      -5.078  24.346   6.011  1.00  0.00    -0.360 N 
HETATM   17  C16 UNL     1      -5.653  25.523   5.420  1.00  0.00     0.152 C 
HETATM   18  C17 UNL     1      -4.304  24.479   7.211  1.00  0.00     0.152 C 
ENDBRANCH  13  14
BRANCH   1  19
HETATM   19  C2  UNL     1      -5.390  23.633   1.917  1.00  0.00     0.268 C 
HETATM   20  O2  UNL     1      -5.847  24.771   2.196  1.00  0.00    -0.264 OA
BRANCH  19  21
HETATM   21  O1  UNL     1      -5.070  23.487   0.581  1.00  0.00    -0.326 OA
HETATM   22  C1  UNL     1      -4.671  24.574  -0.228  1.00  0.00     0.213 C 
ENDBRANCH  19  21
ENDBRANCH   1  19
BRANCH   3  23
HETATM   23  O3  UNL     1      -2.900  20.455   1.887  1.00  0.00    -0.390 OA
HETATM   24  C6  UNL     1      -2.474  20.205   0.586  1.00  0.00     0.202 C 
ENDBRANCH   3  23
BRANCH   7  25
HETATM   25  O4  UNL     1      -7.081  17.425   3.398  1.00  0.00    -0.389 OA
ATOM     26  H4  UNL     1      -6.601  16.829   2.837  1.00  0.00     0.210 HD
ENDBRANCH   7  25
TORSDOF 5
ENDMDL
MODEL 4
REMARK VINA RESULT: -6.435749394      2.354      3.241
REMARK  5 active torsions:
REMARK  status: ('A' for Active; 'I' for Inactive)
REMARK    1  A    between atoms: O1_2  and  C2_3 
REMARK    2  A    between atoms: C2_3  and  C3_5 
REMARK    3  A    between atoms: C5_7  and  O3_8 
REMARK    4  A    between atoms: C10_13  and  O4_14 
REMARK    5  A    between atoms: C14_21  and  C15_22 
REMARK       I    between atoms: C15_22  and  N2_24 
ROOT
HETATM    1  C3  UNL     1      -4.672  23.118   3.963  1.00  0.00     0.071 C 
HETATM    2  C4  UNL     1      -5.977  23.436   3.234  1.00  0.00     0.053 C 
HETATM    3  C5  UNL     1      -5.436  24.857   3.154  1.00  0.00     0.127 C 
HETATM    4  C7  UNL     1      -4.882  24.494   4.515  1.00  0.00     0.036 C 
HETATM    5  C8  UNL     1      -3.742  25.192   5.070  1.00  0.00     0.047 C 
HETATM    6  C9  UNL     1      -3.744  25.369   6.546  1.00  0.00     0.260 C 
HETATM    7  C10 UNL     1      -5.059  25.530   7.253  1.00  0.00     0.210 C 
HETATM    8  C11 UNL     1      -4.861  24.143   7.750  1.00  0.00     0.391 C 
HETATM    9  O5  UNL     1      -5.417  23.088   7.084  1.00  0.00    -0.347 OA
HETATM   10  C12 UNL     1      -4.424  22.400   6.404  1.00  0.00     0.167 C 
HETATM   11  C13 UNL     1      -3.123  23.021   6.721  1.00  0.00     0.309 C 
HETATM   12  N1  UNL     1      -3.477  24.261   7.351  1.00  0.00     0.129 N 
HETATM   13  C14 UNL     1      -4.717  22.048   4.987  1.00  0.00     0.127 C 
ENDROOT
BRANCH  13  14
HETATM   14  C15 UNL     1      -5.901  21.168   4.996  1.00  0.00     0.227 C 
HETATM   15  O6  UNL     1      -6.895  21.615   5.680  1.00  0.00    -0.273 OA
HETATM   16  N2  UNL     1      -6.084  19.950   4.377  1.00  0.00    -0.360 N 
HETATM   17  C16 UNL     1      -5.014  19.376   3.608  1.00  0.00     0.152 C 
HETATM   18  C17 UNL     1      -7.324  19.237   4.480  1.00  0.00     0.152 C 
ENDBRANCH  13  14
BRANCH   1  19
HETATM   19  C2  UNL     1      -3.657  22.932   2.904  1.00  0.00     0.268 C 
HETATM   20  O2  UNL     1      -2.462  23.291   3.063  1.00  0.00    -0.264 OA
BRANCH  19  21
HETATM   21  O1  UNL     1      -3.895  22.365   1.667  1.00  0.00    -0.326 OA
HETATM   22  C1  UNL     1      -3.096  21.327   1.140  1.00  0.00     0.213 C 
ENDBRANCH  19  21
ENDBRANCH   1  19
BRANCH   3  23
HETATM   23  O3  UNL     1      -6.453  25.828   3.210  1.00  0.00    -0.390 OA
HETATM   24  C6  UNL     1      -6.195  26.818   2.266  1.00  0.00     0.202 C 
ENDBRANCH   3  23
BRANCH   7  25
HETATM   25  O4  UNL     1      -4.977  26.426   8.349  1.00  0.00    -0.389 OA
ATOM     26  H4  UNL     1      -5.832  26.683   8.670  1.00  0.00     0.210 HD
ENDBRANCH   7  25
TORSDOF 5
ENDMDL
MODEL 5
REMARK VINA RESULT: -6.404350144      2.086      5.178
REMARK  5 active torsions:
REMARK  status: ('A' for Active; 'I' for Inactive)
REMARK    1  A    between atoms: O1_2  and  C2_3 
REMARK    2  A    between atoms: C2_3  and  C3_5 
REMARK    3  A    between atoms: C5_7  and  O3_8 
REMARK    4  A    between atoms: C10_13  and  O4_14 
REMARK    5  A    between atoms: C14_21  and  C15_22 
REMARK       I    between atoms: C15_22  and  N2_24 
ROOT
HETATM    1  C3  UNL     1      -4.723  22.664   2.835  1.00  0.00     0.071 C 
HETATM    2  C4  UNL     1      -3.236  22.954   2.632  1.00  0.00     0.053 C 
HETATM    3  C5  UNL     1      -3.352  22.027   1.429  1.00  0.00     0.127 C 
HETATM    4  C7  UNL     1      -4.318  21.309   2.346  1.00  0.00     0.036 C 
HETATM    5  C8  UNL     1      -5.344  20.436   1.817  1.00  0.00     0.047 C 
HETATM    6  C9  UNL     1      -5.684  19.252   2.651  1.00  0.00     0.260 C 
HETATM    7  C10 UNL     1      -4.605  18.620   3.483  1.00  0.00     0.210 C 
HETATM    8  C11 UNL     1      -5.278  19.232   4.660  1.00  0.00     0.391 C 
HETATM    9  O5  UNL     1      -4.858  20.439   5.141  1.00  0.00    -0.347 OA
HETATM   10  C12 UNL     1      -5.780  21.415   4.798  1.00  0.00     0.167 C 
HETATM   11  C13 UNL     1      -6.912  20.768   4.108  1.00  0.00     0.309 C 
HETATM   12  N1  UNL     1      -6.429  19.449   3.814  1.00  0.00     0.129 N 
HETATM   13  C14 UNL     1      -5.227  22.674   4.228  1.00  0.00     0.127 C 
ENDROOT
BRANCH  13  14
HETATM   14  C15 UNL     1      -4.355  23.270   5.259  1.00  0.00     0.227 C 
HETATM   15  O6  UNL     1      -3.342  22.546   5.586  1.00  0.00    -0.273 OA
HETATM   16  N2  UNL     1      -4.476  24.480   5.908  1.00  0.00    -0.360 N 
HETATM   17  C16 UNL     1      -5.590  25.337   5.609  1.00  0.00     0.152 C 
HETATM   18  C17 UNL     1      -3.512  24.908   6.879  1.00  0.00     0.152 C 
ENDBRANCH  13  14
BRANCH   1  19
HETATM   19  C2  UNL     1      -5.437  23.564   1.902  1.00  0.00     0.268 C 
HETATM   20  O2  UNL     1      -5.764  23.193   0.746  1.00  0.00    -0.264 OA
BRANCH  19  21
HETATM   21  O1  UNL     1      -5.812  24.864   2.184  1.00  0.00    -0.326 OA
HETATM   22  C1  UNL     1      -5.270  25.976   1.503  1.00  0.00     0.213 C 
ENDBRANCH  19  21
ENDBRANCH   1  19
BRANCH   3  23
HETATM   23  O3  UNL     1      -2.170  21.301   1.190  1.00  0.00    -0.390 OA
HETATM   24  C6  UNL     1      -1.941  21.237  -0.182  1.00  0.00     0.202 C 
ENDBRANCH   3  23
BRANCH   7  25
HETATM   25  O4  UNL     1      -4.739  17.211   3.560  1.00  0.00    -0.389 OA
ATOM     26  H4  UNL     1      -4.472  16.869   4.404  1.00  0.00     0.210 HD
ENDBRANCH   7  25
TORSDOF 5
ENDMDL
