MODEL 1
REMARK VINA RESULT: -4.707275073      0.000      0.000
REMARK  6 active torsions:
REMARK  status: ('A' for Active; 'I' for Inactive)
REMARK    1  A    between atoms: C3_3  and  N1_4 
REMARK       I    between atoms: C4_6  and  N2_7 
REMARK       I    between atoms: C4_6  and  N5_16 
REMARK    2  A    between atoms: N2_7  and  N3_9 
REMARK    3  A    between atoms: N3_9  and  C5_11 
REMARK    4  A    between atoms: N4_12  and  O1_14 
REMARK    5  A    between atoms: N5_16  and  N6_18 
REMARK    6  A    between atoms: N6_18  and  O2_20 
ROOT
HETATM    1  C1  UNL     1      21.161  59.097  25.293  1.00  0.00     0.014 C 
HETATM    2  C2  UNL     1      21.847  59.749  26.043  1.00  0.00    -0.097 C 
HETATM    3  C3  UNL     1      22.673  60.569  26.957  1.00  0.00     0.231 C 
ENDROOT
BRANCH   3   4
HETATM    4  N1  UNL     1      21.824  61.324  27.820  1.00  0.00    -0.213 N 
HETATM    5  C4  UNL     1      22.061  61.669  29.016  1.00  0.00     0.711 C 
HETATM    6  N2  UNL     1      21.077  62.425  29.708  1.00  0.00    -0.130 N 
HETATM    7  N5  UNL     1      23.265  61.333  29.692  1.00  0.00    -0.108 N 
ATOM      8  H2  UNL     1      21.345  63.139  30.385  1.00  0.00     0.205 HD
HETATM    9  C6  UNL     1      24.268  62.317  30.032  1.00  0.00     0.199 C 
ATOM     10  H1  UNL     1      20.928  61.619  27.432  1.00  0.00     0.178 HD
BRANCH   6  11
HETATM   11  N3  UNL     1      19.741  62.163  29.436  1.00  0.00    -0.280 N 
ATOM     12  H3  UNL     1      19.381  61.216  29.554  1.00  0.00     0.188 HD
BRANCH  11  13
HETATM   13  C5  UNL     1      18.880  63.173  29.005  1.00  0.00     0.221 C 
HETATM   14  N4  UNL     1      17.979  62.942  28.107  1.00  0.00    -0.264 N 
ATOM     15  H4  UNL     1      17.889  62.011  27.702  1.00  0.00     0.195 HD
BRANCH  14  16
HETATM   16  O1  UNL     1      17.144  63.956  27.700  1.00  0.00    -0.289 OA
ATOM     17  H1  UNL     1      16.381  64.177  28.222  1.00  0.00     0.244 HD
ENDBRANCH  14  16
ENDBRANCH  11  13
ENDBRANCH   6  11
BRANCH   7  18
HETATM   18  N6  UNL     1      23.458  59.990  30.027  1.00  0.00    -0.194 N 
ATOM     19  H6  UNL     1      22.694  59.506  30.499  1.00  0.00     0.216 HD
BRANCH  18  20
HETATM   20  O2  UNL     1      24.484  59.349  29.792  1.00  0.00    -0.274 OA
ATOM     21  H2  UNL     1      25.155  59.150  30.434  1.00  0.00     0.246 HD
ENDBRANCH  18  20
ENDBRANCH   7  18
ENDBRANCH   3   4
TORSDOF 6
ENDMDL
MODEL 2
REMARK VINA RESULT: -4.344575436      1.678      3.311
REMARK  6 active torsions:
REMARK  status: ('A' for Active; 'I' for Inactive)
REMARK    1  A    between atoms: C3_3  and  N1_4 
REMARK       I    between atoms: C4_6  and  N2_7 
REMARK       I    between atoms: C4_6  and  N5_16 
REMARK    2  A    between atoms: N2_7  and  N3_9 
REMARK    3  A    between atoms: N3_9  and  C5_11 
REMARK    4  A    between atoms: N4_12  and  O1_14 
REMARK    5  A    between atoms: N5_16  and  N6_18 
REMARK    6  A    between atoms: N6_18  and  O2_20 
ROOT
HETATM    1  C1  UNL     1      24.198  62.248  30.242  1.00  0.00     0.014 C 
HETATM    2  C2  UNL     1      23.164  61.626  30.199  1.00  0.00    -0.097 C 
HETATM    3  C3  UNL     1      21.883  60.885  30.152  1.00  0.00     0.231 C 
ENDROOT
BRANCH   3   4
HETATM    4  N1  UNL     1      20.934  61.619  29.381  1.00  0.00    -0.213 N 
HETATM    5  C4  UNL     1      20.845  61.663  28.118  1.00  0.00     0.711 C 
HETATM    6  N2  UNL     1      19.822  62.461  27.541  1.00  0.00    -0.130 N 
HETATM    7  N5  UNL     1      21.723  60.951  27.257  1.00  0.00    -0.108 N 
ATOM      8  H2  UNL     1      19.359  62.177  26.677  1.00  0.00     0.205 HD
HETATM    9  C6  UNL     1      21.293  59.818  26.469  1.00  0.00     0.199 C 
ATOM     10  H1  UNL     1      20.252  62.170  29.903  1.00  0.00     0.178 HD
BRANCH   6  11
HETATM   11  N3  UNL     1      19.468  63.639  28.186  1.00  0.00    -0.280 N 
ATOM     12  H3  UNL     1      20.121  64.422  28.193  1.00  0.00     0.188 HD
BRANCH  11  13
HETATM   13  C5  UNL     1      18.234  63.770  28.826  1.00  0.00     0.221 C 
HETATM   14  N4  UNL     1      17.128  63.662  28.167  1.00  0.00    -0.264 N 
ATOM     15  H4  UNL     1      17.146  63.477  27.165  1.00  0.00     0.195 HD
BRANCH  14  16
HETATM   16  O1  UNL     1      15.926  63.796  28.823  1.00  0.00    -0.289 OA
ATOM     17  H1  UNL     1      15.113  63.720  28.338  1.00  0.00     0.244 HD
ENDBRANCH  14  16
ENDBRANCH  11  13
ENDBRANCH   6  11
BRANCH   7  18
HETATM   18  N6  UNL     1      23.049  61.387  27.193  1.00  0.00    -0.194 N 
ATOM     19  H6  UNL     1      23.224  62.388  27.281  1.00  0.00     0.216 HD
BRANCH  18  20
HETATM   20  O2  UNL     1      24.023  60.648  27.037  1.00  0.00    -0.274 OA
ATOM     21  H2  UNL     1      23.993  59.793  26.624  1.00  0.00     0.246 HD
ENDBRANCH  18  20
ENDBRANCH   7  18
ENDBRANCH   3   4
TORSDOF 6
ENDMDL
MODEL 3
REMARK VINA RESULT: -4.039268915      8.572     10.570
REMARK  6 active torsions:
REMARK  status: ('A' for Active; 'I' for Inactive)
REMARK    1  A    between atoms: C3_3  and  N1_4 
REMARK       I    between atoms: C4_6  and  N2_7 
REMARK       I    between atoms: C4_6  and  N5_16 
REMARK    2  A    between atoms: N2_7  and  N3_9 
REMARK    3  A    between atoms: N3_9  and  C5_11 
REMARK    4  A    between atoms: N4_12  and  O1_14 
REMARK    5  A    between atoms: N5_16  and  N6_18 
REMARK    6  A    between atoms: N6_18  and  O2_20 
ROOT
HETATM    1  C1  UNL     1      14.882  63.520  20.450  1.00  0.00     0.014 C 
HETATM    2  C2  UNL     1      14.560  63.316  21.596  1.00  0.00    -0.097 C 
HETATM    3  C3  UNL     1      14.152  63.046  22.993  1.00  0.00     0.231 C 
ENDROOT
BRANCH   3   4
HETATM    4  N1  UNL     1      14.404  61.678  23.308  1.00  0.00    -0.213 N 
HETATM    5  C4  UNL     1      13.737  60.670  22.927  1.00  0.00     0.711 C 
HETATM    6  N2  UNL     1      14.157  59.382  23.356  1.00  0.00    -0.130 N 
HETATM    7  N5  UNL     1      12.592  60.772  22.093  1.00  0.00    -0.108 N 
ATOM      8  H2  UNL     1      14.054  58.568  22.750  1.00  0.00     0.205 HD
HETATM    9  C6  UNL     1      12.584  60.319  20.720  1.00  0.00     0.199 C 
ATOM     10  H1  UNL     1      15.209  61.490  23.906  1.00  0.00     0.178 HD
BRANCH   6  11
HETATM   11  N3  UNL     1      14.711  59.263  24.624  1.00  0.00    -0.280 N 
ATOM     12  H3  UNL     1      15.268  60.030  25.001  1.00  0.00     0.188 HD
BRANCH  11  13
HETATM   13  C5  UNL     1      14.520  58.112  25.391  1.00  0.00     0.221 C 
HETATM   14  N4  UNL     1      14.541  58.163  26.682  1.00  0.00    -0.264 N 
ATOM     15  H4  UNL     1      14.699  59.051  27.157  1.00  0.00     0.195 HD
BRANCH  14  16
HETATM   16  O1  UNL     1      14.351  57.013  27.413  1.00  0.00    -0.289 OA
ATOM     17  H1  UNL     1      14.152  57.072  28.341  1.00  0.00     0.244 HD
ENDBRANCH  14  16
ENDBRANCH  11  13
ENDBRANCH   6  11
BRANCH   7  18
HETATM   18  N6  UNL     1      11.443  61.339  22.651  1.00  0.00    -0.194 N 
ATOM     19  H6  UNL     1      10.578  61.286  22.111  1.00  0.00     0.216 HD
BRANCH  18  20
HETATM   20  O2  UNL     1      11.398  61.898  23.748  1.00  0.00    -0.274 OA
ATOM     21  H2  UNL     1      10.644  61.895  24.327  1.00  0.00     0.246 HD
ENDBRANCH  18  20
ENDBRANCH   7  18
ENDBRANCH   3   4
TORSDOF 6
ENDMDL
MODEL 4
REMARK VINA RESULT: -3.831416870      1.566      1.641
REMARK  6 active torsions:
REMARK  status: ('A' for Active; 'I' for Inactive)
REMARK    1  A    between atoms: C3_3  and  N1_4 
REMARK       I    between atoms: C4_6  and  N2_7 
REMARK       I    between atoms: C4_6  and  N5_16 
REMARK    2  A    between atoms: N2_7  and  N3_9 
REMARK    3  A    between atoms: N3_9  and  C5_11 
REMARK    4  A    between atoms: N4_12  and  O1_14 
REMARK    5  A    between atoms: N5_16  and  N6_18 
REMARK    6  A    between atoms: N6_18  and  O2_20 
ROOT
HETATM    1  C1  UNL     1      24.536  59.747  26.510  1.00  0.00     0.014 C 
HETATM    2  C2  UNL     1      24.294  60.758  27.125  1.00  0.00    -0.097 C 
HETATM    3  C3  UNL     1      23.978  62.001  27.863  1.00  0.00     0.231 C 
ENDROOT
BRANCH   3   4
HETATM    4  N1  UNL     1      22.591  62.021  28.193  1.00  0.00    -0.213 N 
HETATM    5  C4  UNL     1      22.050  61.591  29.255  1.00  0.00     0.711 C 
HETATM    6  N2  UNL     1      20.641  61.705  29.389  1.00  0.00    -0.130 N 
HETATM    7  N5  UNL     1      22.792  61.001  30.314  1.00  0.00    -0.108 N 
ATOM      8  H2  UNL     1      20.213  61.883  30.298  1.00  0.00     0.205 HD
HETATM    9  C6  UNL     1      22.972  61.647  31.594  1.00  0.00     0.199 C 
ATOM     10  H1  UNL     1      21.964  62.427  27.497  1.00  0.00     0.178 HD
BRANCH   6  11
HETATM   11  N3  UNL     1      19.862  61.567  28.248  1.00  0.00    -0.280 N 
ATOM     12  H3  UNL     1      20.224  61.039  27.454  1.00  0.00     0.188 HD
BRANCH  11  13
HETATM   13  C5  UNL     1      18.591  62.139  28.167  1.00  0.00     0.221 C 
HETATM   14  N4  UNL     1      18.443  63.408  27.970  1.00  0.00    -0.264 N 
ATOM     15  H4  UNL     1      19.261  64.008  27.871  1.00  0.00     0.195 HD
BRANCH  14  16
HETATM   16  O1  UNL     1      17.179  63.945  27.895  1.00  0.00    -0.289 OA
ATOM     17  H1  UNL     1      16.934  64.471  27.142  1.00  0.00     0.244 HD
ENDBRANCH  14  16
ENDBRANCH  11  13
ENDBRANCH   6  11
BRANCH   7  18
HETATM   18  N6  UNL     1      23.358  59.745  30.076  1.00  0.00    -0.194 N 
ATOM     19  H6  UNL     1      22.723  58.960  29.927  1.00  0.00     0.216 HD
BRANCH  18  20
HETATM   20  O2  UNL     1      24.568  59.518  30.034  1.00  0.00    -0.274 OA
ATOM     21  H2  UNL     1      25.240  60.184  29.942  1.00  0.00     0.246 HD
ENDBRANCH  18  20
ENDBRANCH   7  18
ENDBRANCH   3   4
TORSDOF 6
ENDMDL
MODEL 5
REMARK VINA RESULT: -3.586603458      3.312      4.921
REMARK  6 active torsions:
REMARK  status: ('A' for Active; 'I' for Inactive)
REMARK    1  A    between atoms: C3_3  and  N1_4 
REMARK       I    between atoms: C4_6  and  N2_7 
REMARK       I    between atoms: C4_6  and  N5_16 
REMARK    2  A    between atoms: N2_7  and  N3_9 
REMARK    3  A    between atoms: N3_9  and  C5_11 
REMARK    4  A    between atoms: N4_12  and  O1_14 
REMARK    5  A    between atoms: N5_16  and  N6_18 
REMARK    6  A    between atoms: N6_18  and  O2_20 
ROOT
HETATM    1  C1  UNL     1      18.725  61.913  28.335  1.00  0.00     0.014 C 
HETATM    2  C2  UNL     1      19.659  62.214  29.039  1.00  0.00    -0.097 C 
HETATM    3  C3  UNL     1      20.792  62.573  29.921  1.00  0.00     0.231 C 
ENDROOT
BRANCH   3   4
HETATM    4  N1  UNL     1      21.207  61.423  30.656  1.00  0.00    -0.213 N 
HETATM    5  C4  UNL     1      22.334  60.847  30.604  1.00  0.00     0.711 C 
HETATM    6  N2  UNL     1      22.548  59.707  31.422  1.00  0.00    -0.130 N 
HETATM    7  N5  UNL     1      23.390  61.293  29.763  1.00  0.00    -0.108 N 
ATOM      8  H2  UNL     1      23.465  59.518  31.830  1.00  0.00     0.205 HD
HETATM    9  C6  UNL     1      24.596  61.898  30.280  1.00  0.00     0.199 C 
ATOM     10  H1  UNL     1      20.521  61.019  31.294  1.00  0.00     0.178 HD
BRANCH   6  11
HETATM   11  N3  UNL     1      21.476  58.855  31.652  1.00  0.00    -0.280 N 
ATOM     12  H3  UNL     1      20.617  58.975  31.115  1.00  0.00     0.188 HD
BRANCH  11  13
HETATM   13  C5  UNL     1      21.551  57.839  32.606  1.00  0.00     0.221 C 
HETATM   14  N4  UNL     1      20.501  57.455  33.254  1.00  0.00    -0.264 N 
ATOM     15  H4  UNL     1      19.599  57.896  33.074  1.00  0.00     0.195 HD
BRANCH  14  16
HETATM   16  O1  UNL     1      20.604  56.451  34.188  1.00  0.00    -0.289 OA
ATOM     17  H1  UNL     1      21.346  55.858  34.163  1.00  0.00     0.244 HD
ENDBRANCH  14  16
ENDBRANCH  11  13
ENDBRANCH   6  11
BRANCH   7  18
HETATM   18  N6  UNL     1      23.224  61.126  28.385  1.00  0.00    -0.194 N 
ATOM     19  H6  UNL     1      22.422  60.581  28.067  1.00  0.00     0.216 HD
BRANCH  18  20
HETATM   20  O2  UNL     1      23.977  61.589  27.527  1.00  0.00    -0.274 OA
ATOM     21  H2  UNL     1      24.611  61.081  27.033  1.00  0.00     0.246 HD
ENDBRANCH  18  20
ENDBRANCH   7  18
ENDBRANCH   3   4
TORSDOF 6
ENDMDL
