MODEL 1
REMARK VINA RESULT: -7.973797624      0.000      0.000
REMARK  5 active torsions:
REMARK  status: ('A' for Active; 'I' for Inactive)
REMARK       I    between atoms: C1_2  and  N1_3 
REMARK    1  A    between atoms: C1_2  and  C18_25 
REMARK    2  A    between atoms: N1_3  and  C2_5 
REMARK    3  A    between atoms: C2_5  and  C3_6 
REMARK    4  A    between atoms: C2_5  and  C6_9 
REMARK    5  A    between atoms: C21_28  and  N3_29 
ROOT
HETATM    1  C6  UNL     1      27.798  -0.353  53.156  1.00  0.00     0.127 C 
HETATM    2  C7  UNL     1      28.646   0.745  53.664  1.00  0.00    -0.004 C 
HETATM    3  C8  UNL     1      29.826   1.316  53.414  1.00  0.00    -0.024 C 
HETATM    4  C9  UNL     1      30.866   1.020  52.399  1.00  0.00     0.009 C 
HETATM    5  C10 UNL     1      31.928   0.153  52.973  1.00  0.00     0.013 C 
HETATM    6  C11 UNL     1      32.181  -1.159  52.369  1.00  0.00    -0.007 C 
HETATM    7  C12 UNL     1      31.710  -1.317  50.942  1.00  0.00     0.015 C 
HETATM    8  C13 UNL     1      30.270  -0.949  50.925  1.00  0.00     0.038 C 
HETATM    9  C14 UNL     1      30.201   0.532  51.178  1.00  0.00     0.019 C 
HETATM   10  C15 UNL     1      29.406  -1.769  51.873  1.00  0.00     0.059 C 
HETATM   11  N2  UNL     1      28.232  -1.070  52.073  1.00  0.00    -0.381 N 
ATOM     12  H2  UNL     1      27.583  -1.091  51.286  1.00  0.00     0.160 HD
HETATM   13  C16 UNL     1      30.092  -2.474  52.954  1.00  0.00     0.282 C 
HETATM   14  F1  UNL     1      29.603  -2.216  54.241  1.00  0.00    -0.200 F 
HETATM   15  F2  UNL     1      29.889  -3.879  52.909  1.00  0.00    -0.200 F 
HETATM   16  C17 UNL     1      31.576  -2.342  53.075  1.00  0.00     0.090 C 
ENDROOT
BRANCH   1  17
HETATM   17  C2  UNL     1      26.482   0.308  52.710  1.00  0.00     0.115 C 
BRANCH  17  18
HETATM   18  N1  UNL     1      26.742   1.227  51.612  1.00  0.00    -0.348 N 
HETATM   19  C1  UNL     1      26.467   2.611  51.682  1.00  0.00     0.275 C 
HETATM   20  O1  UNL     1      25.977   3.070  52.742  1.00  0.00    -0.265 OA
ATOM     21  H1  UNL     1      27.141   0.854  50.750  1.00  0.00     0.163 HD
BRANCH  19  22
HETATM   22  C18 UNL     1      26.724   3.533  50.591  1.00  0.00     0.145 A 
HETATM   23  C19 UNL     1      25.803   4.516  50.210  1.00  0.00     0.047 A 
HETATM   24  C20 UNL     1      26.363   5.206  49.154  1.00  0.00     0.066 A 
HETATM   25  C21 UNL     1      27.588   4.615  48.944  1.00  0.00     0.215 A 
HETATM   26  O4  UNL     1      27.746   3.649  49.808  1.00  0.00    -0.283 OA
BRANCH  25  27
HETATM   27  N3  UNL     1      28.519   5.011  47.940  1.00  0.00    -0.090 N 
HETATM   28  O2  UNL     1      28.200   5.090  46.738  1.00  0.00    -0.530 OA
HETATM   29  O3  UNL     1      29.818   5.326  48.258  1.00  0.00    -0.530 OA
ENDBRANCH  25  27
ENDBRANCH  19  22
ENDBRANCH  17  18
BRANCH  17  30
HETATM   30  C3  UNL     1      25.483  -0.707  52.186  1.00  0.00     0.011 A 
HETATM   31  C4  UNL     1      24.210  -0.759  52.988  1.00  0.00     0.007 A 
HETATM   32  C5  UNL     1      24.196  -0.266  51.577  1.00  0.00     0.007 A 
ENDBRANCH  17  30
ENDBRANCH   1  17
TORSDOF 5
ENDMDL
MODEL 2
REMARK VINA RESULT: -7.964810986      4.356      6.830
REMARK  5 active torsions:
REMARK  status: ('A' for Active; 'I' for Inactive)
REMARK       I    between atoms: C1_2  and  N1_3 
REMARK    1  A    between atoms: C1_2  and  C18_25 
REMARK    2  A    between atoms: N1_3  and  C2_5 
REMARK    3  A    between atoms: C2_5  and  C3_6 
REMARK    4  A    between atoms: C2_5  and  C6_9 
REMARK    5  A    between atoms: C21_28  and  N3_29 
ROOT
HETATM    1  C6  UNL     1      28.527   1.105  51.076  1.00  0.00     0.127 C 
HETATM    2  C7  UNL     1      29.224   1.036  52.377  1.00  0.00    -0.004 C 
HETATM    3  C8  UNL     1      29.010   1.332  53.661  1.00  0.00    -0.024 C 
HETATM    4  C9  UNL     1      27.838   1.921  54.353  1.00  0.00     0.009 C 
HETATM    5  C10 UNL     1      28.011   3.388  54.522  1.00  0.00     0.013 C 
HETATM    6  C11 UNL     1      27.031   4.295  53.916  1.00  0.00    -0.007 C 
HETATM    7  C12 UNL     1      25.684   3.684  53.609  1.00  0.00     0.015 C 
HETATM    8  C13 UNL     1      25.944   2.483  52.771  1.00  0.00     0.038 C 
HETATM    9  C14 UNL     1      26.615   1.475  53.661  1.00  0.00     0.019 C 
HETATM   10  C15 UNL     1      26.712   2.771  51.489  1.00  0.00     0.059 C 
HETATM   11  N2  UNL     1      27.240   1.575  51.046  1.00  0.00    -0.381 N 
ATOM     12  H2  UNL     1      26.563   0.938  50.627  1.00  0.00     0.160 HD
HETATM   13  C16 UNL     1      27.458   4.026  51.431  1.00  0.00     0.282 C 
HETATM   14  F1  UNL     1      28.813   3.903  51.099  1.00  0.00    -0.200 F 
HETATM   15  F2  UNL     1      27.037   4.866  50.364  1.00  0.00    -0.200 F 
HETATM   16  C17 UNL     1      27.436   4.936  52.617  1.00  0.00     0.090 C 
ENDROOT
BRANCH   1  17
HETATM   17  C2  UNL     1      28.446  -0.345  50.569  1.00  0.00     0.115 C 
BRANCH  17  18
HETATM   18  N1  UNL     1      29.784  -0.910  50.481  1.00  0.00    -0.348 N 
HETATM   19  C1  UNL     1      30.567  -0.862  49.306  1.00  0.00     0.275 C 
HETATM   20  O1  UNL     1      30.087  -0.304  48.290  1.00  0.00    -0.265 OA
ATOM     21  H1  UNL     1      30.175  -1.363  51.307  1.00  0.00     0.163 HD
BRANCH  19  22
HETATM   22  C18 UNL     1      31.902  -1.424  49.212  1.00  0.00     0.145 A 
HETATM   23  C19 UNL     1      32.883  -1.190  50.182  1.00  0.00     0.047 A 
HETATM   24  C20 UNL     1      34.017  -1.867  49.781  1.00  0.00     0.066 A 
HETATM   25  C21 UNL     1      33.675  -2.475  48.595  1.00  0.00     0.215 A 
HETATM   26  O4  UNL     1      32.434  -2.184  48.312  1.00  0.00    -0.283 OA
BRANCH  25  27
HETATM   27  N3  UNL     1      34.551  -3.288  47.818  1.00  0.00    -0.090 N 
HETATM   28  O2  UNL     1      35.468  -2.801  47.130  1.00  0.00    -0.530 OA
HETATM   29  O3  UNL     1      34.419  -4.656  47.795  1.00  0.00    -0.530 OA
ENDBRANCH  25  27
ENDBRANCH  19  22
ENDBRANCH  17  18
BRANCH  17  30
HETATM   30  C3  UNL     1      27.669  -1.239  51.517  1.00  0.00     0.011 A 
HETATM   31  C4  UNL     1      26.290  -1.581  51.018  1.00  0.00     0.007 A 
HETATM   32  C5  UNL     1      27.336  -2.642  51.142  1.00  0.00     0.007 A 
ENDBRANCH  17  30
ENDBRANCH   1  17
TORSDOF 5
ENDMDL
MODEL 3
REMARK VINA RESULT: -7.911771071      3.092      5.161
REMARK  5 active torsions:
REMARK  status: ('A' for Active; 'I' for Inactive)
REMARK       I    between atoms: C1_2  and  N1_3 
REMARK    1  A    between atoms: C1_2  and  C18_25 
REMARK    2  A    between atoms: N1_3  and  C2_5 
REMARK    3  A    between atoms: C2_5  and  C3_6 
REMARK    4  A    between atoms: C2_5  and  C6_9 
REMARK    5  A    between atoms: C21_28  and  N3_29 
ROOT
HETATM    1  C6  UNL     1      27.596   1.340  51.570  1.00  0.00     0.127 C 
HETATM    2  C7  UNL     1      28.822   2.101  51.887  1.00  0.00    -0.004 C 
HETATM    3  C8  UNL     1      30.096   2.183  51.495  1.00  0.00    -0.024 C 
HETATM    4  C9  UNL     1      30.857   1.441  50.461  1.00  0.00     0.009 C 
HETATM    5  C10 UNL     1      31.599   0.306  51.069  1.00  0.00     0.013 C 
HETATM    6  C11 UNL     1      31.313  -1.058  50.614  1.00  0.00    -0.007 C 
HETATM    7  C12 UNL     1      30.674  -1.166  49.249  1.00  0.00     0.015 C 
HETATM    8  C13 UNL     1      29.461  -0.308  49.278  1.00  0.00     0.038 C 
HETATM    9  C14 UNL     1      29.942   1.115  49.352  1.00  0.00     0.019 C 
HETATM   10  C15 UNL     1      28.466  -0.671  50.371  1.00  0.00     0.059 C 
HETATM   11  N2  UNL     1      27.638   0.419  50.557  1.00  0.00    -0.381 N 
ATOM     12  H2  UNL     1      26.947   0.561  49.821  1.00  0.00     0.160 HD
HETATM   13  C16 UNL     1      28.967  -1.473  51.485  1.00  0.00     0.282 C 
HETATM   14  F1  UNL     1      28.733  -0.941  52.759  1.00  0.00    -0.200 F 
HETATM   15  F2  UNL     1      28.281  -2.710  51.624  1.00  0.00    -0.200 F 
HETATM   16  C17 UNL     1      30.407  -1.874  51.495  1.00  0.00     0.090 C 
ENDROOT
BRANCH   1  17
HETATM   17  C2  UNL     1      26.558   2.386  51.129  1.00  0.00     0.115 C 
BRANCH  17  18
HETATM   18  N1  UNL     1      25.563   2.562  52.175  1.00  0.00    -0.348 N 
HETATM   19  C1  UNL     1      24.173   2.575  51.925  1.00  0.00     0.275 C 
HETATM   20  O1  UNL     1      23.777   2.427  50.744  1.00  0.00    -0.265 OA
ATOM     21  H1  UNL     1      25.884   2.682  53.136  1.00  0.00     0.163 HD
BRANCH  19  22
HETATM   22  C18 UNL     1      23.175   2.750  52.964  1.00  0.00     0.145 A 
HETATM   23  C19 UNL     1      22.974   1.805  53.977  1.00  0.00     0.047 A 
HETATM   24  C20 UNL     1      21.962   2.285  54.783  1.00  0.00     0.066 A 
HETATM   25  C21 UNL     1      21.597   3.490  54.226  1.00  0.00     0.215 A 
HETATM   26  O4  UNL     1      22.335   3.711  53.172  1.00  0.00    -0.283 OA
BRANCH  25  27
HETATM   27  N3  UNL     1      20.576   4.343  54.737  1.00  0.00    -0.090 N 
HETATM   28  O2  UNL     1      20.838   5.351  55.422  1.00  0.00    -0.530 OA
HETATM   29  O3  UNL     1      19.247   4.087  54.494  1.00  0.00    -0.530 OA
ENDBRANCH  25  27
ENDBRANCH  19  22
ENDBRANCH  17  18
BRANCH  17  30
HETATM   30  C3  UNL     1      27.183   3.751  50.904  1.00  0.00     0.011 A 
HETATM   31  C4  UNL     1      27.378   4.084  49.449  1.00  0.00     0.007 A 
HETATM   32  C5  UNL     1      26.401   4.854  50.277  1.00  0.00     0.007 A 
ENDBRANCH  17  30
ENDBRANCH   1  17
TORSDOF 5
ENDMDL
MODEL 4
REMARK VINA RESULT: -7.563691583      2.947      5.423
REMARK  5 active torsions:
REMARK  status: ('A' for Active; 'I' for Inactive)
REMARK       I    between atoms: C1_2  and  N1_3 
REMARK    1  A    between atoms: C1_2  and  C18_25 
REMARK    2  A    between atoms: N1_3  and  C2_5 
REMARK    3  A    between atoms: C2_5  and  C3_6 
REMARK    4  A    between atoms: C2_5  and  C6_9 
REMARK    5  A    between atoms: C21_28  and  N3_29 
ROOT
HETATM    1  C6  UNL     1      28.136   2.225  51.132  1.00  0.00     0.127 C 
HETATM    2  C7  UNL     1      28.724   1.670  49.895  1.00  0.00    -0.004 C 
HETATM    3  C8  UNL     1      29.083   0.492  49.381  1.00  0.00    -0.024 C 
HETATM    4  C9  UNL     1      29.021  -0.883  49.935  1.00  0.00     0.009 C 
HETATM    5  C10 UNL     1      30.326  -1.267  50.534  1.00  0.00     0.013 C 
HETATM    6  C11 UNL     1      30.382  -1.616  51.957  1.00  0.00    -0.007 C 
HETATM    7  C12 UNL     1      29.069  -2.041  52.572  1.00  0.00     0.015 C 
HETATM    8  C13 UNL     1      28.096  -0.954  52.289  1.00  0.00     0.038 C 
HETATM    9  C14 UNL     1      27.838  -0.981  50.808  1.00  0.00     0.019 C 
HETATM   10  C15 UNL     1      28.519   0.413  52.808  1.00  0.00     0.059 C 
HETATM   11  N2  UNL     1      27.776   1.361  52.132  1.00  0.00    -0.381 N 
ATOM     12  H2  UNL     1      26.802   1.429  52.425  1.00  0.00     0.160 HD
HETATM   13  C16 UNL     1      29.937   0.598  53.110  1.00  0.00     0.282 C 
HETATM   14  F1  UNL     1      30.544   1.694  52.485  1.00  0.00    -0.200 F 
HETATM   15  F2  UNL     1      30.168   0.952  54.467  1.00  0.00    -0.200 F 
HETATM   16  C17 UNL     1      30.878  -0.541  52.884  1.00  0.00     0.090 C 
ENDROOT
BRANCH   1  17
HETATM   17  C2  UNL     1      26.832   2.918  50.700  1.00  0.00     0.115 C 
BRANCH  17  18
HETATM   18  N1  UNL     1      25.878   2.898  51.798  1.00  0.00    -0.348 N 
HETATM   19  C1  UNL     1      24.499   2.652  51.618  1.00  0.00     0.275 C 
HETATM   20  O1  UNL     1      24.077   2.439  50.456  1.00  0.00    -0.265 OA
ATOM     21  H1  UNL     1      26.221   3.070  52.743  1.00  0.00     0.163 HD
BRANCH  19  22
HETATM   22  C18 UNL     1      23.542   2.630  52.709  1.00  0.00     0.145 A 
HETATM   23  C19 UNL     1      23.354   1.504  53.518  1.00  0.00     0.047 A 
HETATM   24  C20 UNL     1      22.382   1.828  54.442  1.00  0.00     0.066 A 
HETATM   25  C21 UNL     1      22.026   3.126  54.154  1.00  0.00     0.215 A 
HETATM   26  O4  UNL     1      22.732   3.542  53.137  1.00  0.00    -0.283 OA
BRANCH  25  27
HETATM   27  N3  UNL     1      21.044   3.875  54.864  1.00  0.00    -0.090 N 
HETATM   28  O2  UNL     1      20.268   3.340  55.681  1.00  0.00    -0.530 OA
HETATM   29  O3  UNL     1      20.909   5.229  54.677  1.00  0.00    -0.530 OA
ENDBRANCH  25  27
ENDBRANCH  19  22
ENDBRANCH  17  18
BRANCH  17  30
HETATM   30  C3  UNL     1      27.051   4.379  50.354  1.00  0.00     0.011 A 
HETATM   31  C4  UNL     1      27.271   4.618  48.884  1.00  0.00     0.007 A 
HETATM   32  C5  UNL     1      26.041   5.134  49.559  1.00  0.00     0.007 A 
ENDBRANCH  17  30
ENDBRANCH   1  17
TORSDOF 5
ENDMDL
MODEL 5
REMARK VINA RESULT: -7.560371485      4.020      6.979
REMARK  5 active torsions:
REMARK  status: ('A' for Active; 'I' for Inactive)
REMARK       I    between atoms: C1_2  and  N1_3 
REMARK    1  A    between atoms: C1_2  and  C18_25 
REMARK    2  A    between atoms: N1_3  and  C2_5 
REMARK    3  A    between atoms: C2_5  and  C3_6 
REMARK    4  A    between atoms: C2_5  and  C6_9 
REMARK    5  A    between atoms: C21_28  and  N3_29 
ROOT
HETATM    1  C6  UNL     1      26.793  -0.000  51.366  1.00  0.00     0.127 C 
HETATM    2  C7  UNL     1      27.394   0.673  52.536  1.00  0.00    -0.004 C 
HETATM    3  C8  UNL     1      27.040   1.124  53.741  1.00  0.00    -0.024 C 
HETATM    4  C9  UNL     1      25.736   1.123  54.448  1.00  0.00     0.009 C 
HETATM    5  C10 UNL     1      25.038   2.422  54.264  1.00  0.00     0.013 C 
HETATM    6  C11 UNL     1      23.719   2.438  53.622  1.00  0.00    -0.007 C 
HETATM    7  C12 UNL     1      22.967   1.128  53.654  1.00  0.00     0.015 C 
HETATM    8  C13 UNL     1      23.873   0.103  53.072  1.00  0.00     0.038 C 
HETATM    9  C14 UNL     1      24.993  -0.089  54.055  1.00  0.00     0.019 C 
HETATM   10  C15 UNL     1      24.348   0.420  51.661  1.00  0.00     0.059 C 
HETATM   11  N2  UNL     1      25.469  -0.350  51.419  1.00  0.00    -0.381 N 
ATOM     12  H2  UNL     1      25.281  -1.338  51.252  1.00  0.00     0.160 HD
HETATM   13  C16 UNL     1      24.243   1.810  51.221  1.00  0.00     0.282 C 
HETATM   14  F1  UNL     1      25.427   2.376  50.733  1.00  0.00    -0.200 F 
HETATM   15  F2  UNL     1      23.425   1.961  50.069  1.00  0.00    -0.200 F 
HETATM   16  C17 UNL     1      23.695   2.827  52.170  1.00  0.00     0.090 C 
ENDROOT
BRANCH   1  17
HETATM   17  C2  UNL     1      27.560  -1.324  51.206  1.00  0.00     0.115 C 
BRANCH  17  18
HETATM   18  N1  UNL     1      28.922  -1.165  51.692  1.00  0.00    -0.348 N 
HETATM   19  C1  UNL     1      30.047  -1.134  50.839  1.00  0.00     0.275 C 
HETATM   20  O1  UNL     1      29.864  -1.249  49.604  1.00  0.00    -0.265 OA
ATOM     21  H1  UNL     1      29.071  -1.072  52.697  1.00  0.00     0.163 HD
BRANCH  19  22
HETATM   22  C18 UNL     1      31.408  -0.976  51.317  1.00  0.00     0.145 A 
HETATM   23  C19 UNL     1      32.498  -0.854  50.447  1.00  0.00     0.047 A 
HETATM   24  C20 UNL     1      33.627  -0.721  51.230  1.00  0.00     0.066 A 
HETATM   25  C21 UNL     1      33.174  -0.768  52.529  1.00  0.00     0.215 A 
HETATM   26  O4  UNL     1      31.877  -0.917  52.520  1.00  0.00    -0.283 OA
BRANCH  25  27
HETATM   27  N3  UNL     1      34.007  -0.668  53.681  1.00  0.00    -0.090 N 
HETATM   28  O2  UNL     1      34.922   0.174  53.764  1.00  0.00    -0.530 OA
HETATM   29  O3  UNL     1      33.833  -1.502  54.759  1.00  0.00    -0.530 OA
ENDBRANCH  25  27
ENDBRANCH  19  22
ENDBRANCH  17  18
BRANCH  17  30
HETATM   30  C3  UNL     1      26.944  -2.443  52.026  1.00  0.00     0.011 A 
HETATM   31  C4  UNL     1      27.355  -3.816  51.565  1.00  0.00     0.007 A 
HETATM   32  C5  UNL     1      27.791  -3.303  52.900  1.00  0.00     0.007 A 
ENDBRANCH  17  30
ENDBRANCH   1  17
TORSDOF 5
ENDMDL
