MODEL 1
REMARK VINA RESULT: -7.893943900      0.000      0.000
REMARK  5 active torsions:
REMARK  status: ('A' for Active; 'I' for Inactive)
REMARK    1  A    between atoms: C3_4  and  C4_5 
REMARK    2  A    between atoms: C6_7  and  N2_8 
REMARK    3  A    between atoms: N2_8  and  C7_10 
REMARK    4  A    between atoms: C8_13  and  C9_14 
REMARK    5  A    between atoms: C9_14  and  C10_15 
ROOT
HETATM    1  C7  UNL     1      28.659   0.515   2.852  1.00  0.00     0.684 A 
HETATM    2  N3  UNL     1      29.313   1.129   3.839  1.00  0.00    -0.191 N 
ATOM      3  H3  UNL     1      29.048   2.077   4.105  1.00  0.00     0.184 HD
HETATM    4  C8  UNL     1      30.337   0.500   4.499  1.00  0.00     0.080 A 
HETATM    5  C14 UNL     1      30.657  -0.760   4.111  1.00  0.00     0.156 A 
HETATM    6  F3  UNL     1      31.687  -1.491   4.630  1.00  0.00    -0.203 F 
HETATM    7  C15 UNL     1      29.953  -1.394   3.065  1.00  0.00     0.150 A 
HETATM    8  N4  UNL     1      28.961  -0.733   2.455  1.00  0.00    -0.199 N 
ATOM      9  H4  UNL     1      28.440  -1.172   1.696  1.00  0.00     0.183 HD
ENDROOT
BRANCH   1  10
HETATM   10  N2  UNL     1      27.681   1.091   2.208  1.00  0.00    -0.175 N 
ATOM     11  H2  UNL     1      27.674   1.027   1.190  1.00  0.00     0.186 HD
BRANCH  10  12
HETATM   12  C6  UNL     1      26.641   1.792   2.831  1.00  0.00     0.137 A 
HETATM   13  C5  UNL     1      26.631   3.033   3.435  1.00  0.00     0.077 A 
HETATM   14  C4  UNL     1      25.365   3.269   3.896  1.00  0.00     0.037 A 
HETATM   15  N6  UNL     1      24.627   2.199   3.580  1.00  0.00    -0.303 N 
HETATM   16  N5  UNL     1      25.387   1.323   2.948  1.00  0.00    -0.285 N 
ATOM     17  H6  UNL     1      23.637   2.079   3.793  1.00  0.00     0.186 HD
ATOM     18  H5  UNL     1      25.068   0.420   2.598  1.00  0.00     0.188 HD
BRANCH  14  19
HETATM   19  C3  UNL     1      24.894   4.487   4.613  1.00  0.00     0.093 C 
HETATM   20  C2  UNL     1      23.889   5.318   3.856  1.00  0.00     0.284 C 
HETATM   21  N1  UNL     1      24.741   6.489   4.023  1.00  0.00     0.085 N 
HETATM   22  C1  UNL     1      25.003   7.235   2.823  1.00  0.00     0.309 C 
HETATM   23  C16 UNL     1      25.839   5.671   4.495  1.00  0.00     0.284 C 
ENDBRANCH  14  19
ENDBRANCH  10  12
ENDBRANCH   1  10
BRANCH   4  24
HETATM   24  C9  UNL     1      31.001   1.188   5.627  1.00  0.00     0.065 C 
HETATM   25  C11 UNL     1      32.398   0.647   5.907  1.00  0.00     0.022 C 
HETATM   26  C12 UNL     1      32.021   0.472   7.343  1.00  0.00     0.003 C 
HETATM   27  C13 UNL     1      30.576   0.613   6.978  1.00  0.00     0.022 C 
BRANCH  24  28
HETATM   28  C10 UNL     1      30.894   2.663   5.631  1.00  0.00     0.367 C 
HETATM   29  F1  UNL     1      32.003   3.252   6.287  1.00  0.00    -0.213 F 
HETATM   30  F2  UNL     1      29.814   3.196   6.260  1.00  0.00    -0.213 F 
ENDBRANCH  24  28
ENDBRANCH   4  24
TORSDOF 5
ENDMDL
MODEL 2
REMARK VINA RESULT: -7.657886632      1.012      1.573
REMARK  5 active torsions:
REMARK  status: ('A' for Active; 'I' for Inactive)
REMARK    1  A    between atoms: C3_4  and  C4_5 
REMARK    2  A    between atoms: C6_7  and  N2_8 
REMARK    3  A    between atoms: N2_8  and  C7_10 
REMARK    4  A    between atoms: C8_13  and  C9_14 
REMARK    5  A    between atoms: C9_14  and  C10_15 
ROOT
HETATM    1  C7  UNL     1      28.532   0.506   2.829  1.00  0.00     0.684 A 
HETATM    2  N3  UNL     1      29.113   1.081   3.883  1.00  0.00    -0.191 N 
ATOM      3  H3  UNL     1      28.782   1.989   4.208  1.00  0.00     0.184 HD
HETATM    4  C8  UNL     1      30.149   0.464   4.536  1.00  0.00     0.080 A 
HETATM    5  C14 UNL     1      30.559  -0.743   4.069  1.00  0.00     0.156 A 
HETATM    6  F3  UNL     1      31.613  -1.450   4.574  1.00  0.00    -0.203 F 
HETATM    7  C15 UNL     1      29.932  -1.335   2.953  1.00  0.00     0.150 A 
HETATM    8  N4  UNL     1      28.924  -0.689   2.354  1.00  0.00    -0.199 N 
ATOM      9  H4  UNL     1      28.457  -1.099   1.545  1.00  0.00     0.183 HD
ENDROOT
BRANCH   1  10
HETATM   10  N2  UNL     1      27.545   1.071   2.191  1.00  0.00    -0.175 N 
ATOM     11  H2  UNL     1      27.519   0.985   1.175  1.00  0.00     0.186 HD
BRANCH  10  12
HETATM   12  C6  UNL     1      26.518   1.787   2.818  1.00  0.00     0.137 A 
HETATM   13  C5  UNL     1      26.531   3.024   3.430  1.00  0.00     0.077 A 
HETATM   14  C4  UNL     1      25.269   3.282   3.892  1.00  0.00     0.037 A 
HETATM   15  N6  UNL     1      24.511   2.228   3.567  1.00  0.00    -0.303 N 
HETATM   16  N5  UNL     1      25.254   1.342   2.930  1.00  0.00    -0.285 N 
ATOM     17  H6  UNL     1      23.519   2.126   3.779  1.00  0.00     0.186 HD
ATOM     18  H5  UNL     1      24.918   0.448   2.574  1.00  0.00     0.188 HD
BRANCH  14  19
HETATM   19  C3  UNL     1      24.821   4.503   4.618  1.00  0.00     0.093 C 
HETATM   20  C2  UNL     1      23.829   5.356   3.867  1.00  0.00     0.284 C 
HETATM   21  N1  UNL     1      24.701   6.511   4.039  1.00  0.00     0.085 N 
HETATM   22  C1  UNL     1      24.973   7.259   2.843  1.00  0.00     0.309 C 
HETATM   23  C16 UNL     1      25.786   5.671   4.504  1.00  0.00     0.284 C 
ENDBRANCH  14  19
ENDBRANCH  10  12
ENDBRANCH   1  10
BRANCH   4  24
HETATM   24  C9  UNL     1      30.731   1.102   5.737  1.00  0.00     0.065 C 
HETATM   25  C11 UNL     1      30.024   2.398   6.116  1.00  0.00     0.022 C 
HETATM   26  C12 UNL     1      31.349   3.088   6.146  1.00  0.00     0.003 C 
HETATM   27  C13 UNL     1      31.959   1.945   5.397  1.00  0.00     0.022 C 
BRANCH  24  28
HETATM   28  C10 UNL     1      31.017   0.196   6.870  1.00  0.00     0.367 C 
HETATM   29  F1  UNL     1      29.998   0.272   7.851  1.00  0.00    -0.213 F 
HETATM   30  F2  UNL     1      32.163   0.425   7.561  1.00  0.00    -0.213 F 
ENDBRANCH  24  28
ENDBRANCH   4  24
TORSDOF 5
ENDMDL
MODEL 3
REMARK VINA RESULT: -7.163111379      3.287      6.977
REMARK  5 active torsions:
REMARK  status: ('A' for Active; 'I' for Inactive)
REMARK    1  A    between atoms: C3_4  and  C4_5 
REMARK    2  A    between atoms: C6_7  and  N2_8 
REMARK    3  A    between atoms: N2_8  and  C7_10 
REMARK    4  A    between atoms: C8_13  and  C9_14 
REMARK    5  A    between atoms: C9_14  and  C10_15 
ROOT
HETATM    1  C7  UNL     1      26.455   1.745   3.189  1.00  0.00     0.684 A 
HETATM    2  N3  UNL     1      26.708   3.052   3.260  1.00  0.00    -0.191 N 
ATOM      3  H3  UNL     1      27.661   3.389   3.127  1.00  0.00     0.184 HD
HETATM    4  C8  UNL     1      25.701   3.949   3.510  1.00  0.00     0.080 A 
HETATM    5  C14 UNL     1      24.448   3.456   3.683  1.00  0.00     0.156 A 
HETATM    6  F3  UNL     1      23.356   4.214   3.996  1.00  0.00    -0.203 F 
HETATM    7  C15 UNL     1      24.200   2.070   3.603  1.00  0.00     0.150 A 
HETATM    8  N4  UNL     1      25.221   1.240   3.356  1.00  0.00    -0.199 N 
ATOM      9  H4  UNL     1      25.064   0.233   3.295  1.00  0.00     0.183 HD
ENDROOT
BRANCH   1  10
HETATM   10  N2  UNL     1      27.395   0.871   2.952  1.00  0.00    -0.175 N 
ATOM     11  H2  UNL     1      27.336   0.324   2.093  1.00  0.00     0.186 HD
BRANCH  10  12
HETATM   12  C6  UNL     1      28.480   0.641   3.806  1.00  0.00     0.137 A 
HETATM   13  C5  UNL     1      28.904   1.329   4.925  1.00  0.00     0.077 A 
HETATM   14  C4  UNL     1      30.020   0.705   5.410  1.00  0.00     0.037 A 
HETATM   15  N6  UNL     1      30.267  -0.335   4.606  1.00  0.00    -0.303 N 
HETATM   16  N5  UNL     1      29.352  -0.371   3.654  1.00  0.00    -0.285 N 
ATOM     17  H6  UNL     1      31.038  -0.994   4.711  1.00  0.00     0.186 HD
ATOM     18  H5  UNL     1      29.311  -1.067   2.910  1.00  0.00     0.188 HD
BRANCH  14  19
HETATM   19  C3  UNL     1      30.812   1.104   6.607  1.00  0.00     0.093 C 
HETATM   20  C2  UNL     1      31.839   2.178   6.356  1.00  0.00     0.284 C 
HETATM   21  N1  UNL     1      32.871   1.314   6.917  1.00  0.00     0.085 N 
HETATM   22  C1  UNL     1      34.056   1.172   6.117  1.00  0.00     0.309 C 
HETATM   23  C16 UNL     1      31.976   0.174   6.907  1.00  0.00     0.284 C 
ENDBRANCH  14  19
ENDBRANCH  10  12
ENDBRANCH   1  10
BRANCH   4  24
HETATM   24  C9  UNL     1      26.006   5.396   3.524  1.00  0.00     0.065 C 
HETATM   25  C11 UNL     1      27.163   5.762   2.602  1.00  0.00     0.022 C 
HETATM   26  C12 UNL     1      27.817   6.476   3.741  1.00  0.00     0.003 C 
HETATM   27  C13 UNL     1      26.904   5.778   4.700  1.00  0.00     0.022 C 
BRANCH  24  28
HETATM   28  C10 UNL     1      24.838   6.298   3.444  1.00  0.00     0.367 C 
HETATM   29  F1  UNL     1      25.064   7.342   2.512  1.00  0.00    -0.213 F 
HETATM   30  F2  UNL     1      24.484   6.943   4.586  1.00  0.00    -0.213 F 
ENDBRANCH  24  28
ENDBRANCH   4  24
TORSDOF 5
ENDMDL
MODEL 4
REMARK VINA RESULT: -7.102273601      2.534      6.923
REMARK  5 active torsions:
REMARK  status: ('A' for Active; 'I' for Inactive)
REMARK    1  A    between atoms: C3_4  and  C4_5 
REMARK    2  A    between atoms: C6_7  and  N2_8 
REMARK    3  A    between atoms: N2_8  and  C7_10 
REMARK    4  A    between atoms: C8_13  and  C9_14 
REMARK    5  A    between atoms: C9_14  and  C10_15 
ROOT
HETATM    1  C7  UNL     1      26.785   1.674   3.108  1.00  0.00     0.684 A 
HETATM    2  N3  UNL     1      27.072   2.970   3.244  1.00  0.00    -0.191 N 
ATOM      3  H3  UNL     1      28.039   3.283   3.165  1.00  0.00     0.184 HD
HETATM    4  C8  UNL     1      26.080   3.885   3.490  1.00  0.00     0.080 A 
HETATM    5  C14 UNL     1      24.808   3.424   3.590  1.00  0.00     0.156 A 
HETATM    6  F3  UNL     1      23.725   4.201   3.890  1.00  0.00    -0.203 F 
HETATM    7  C15 UNL     1      24.525   2.050   3.443  1.00  0.00     0.150 A 
HETATM    8  N4  UNL     1      25.532   1.200   3.203  1.00  0.00    -0.199 N 
ATOM      9  H4  UNL     1      25.348   0.202   3.094  1.00  0.00     0.183 HD
ENDROOT
BRANCH   1  10
HETATM   10  N2  UNL     1      27.709   0.784   2.874  1.00  0.00    -0.175 N 
ATOM     11  H2  UNL     1      27.653   0.250   2.006  1.00  0.00     0.186 HD
BRANCH  10  12
HETATM   12  C6  UNL     1      28.775   0.516   3.743  1.00  0.00     0.137 A 
HETATM   13  C5  UNL     1      29.201   1.185   4.873  1.00  0.00     0.077 A 
HETATM   14  C4  UNL     1      30.290   0.525   5.370  1.00  0.00     0.037 A 
HETATM   15  N6  UNL     1      30.519  -0.517   4.562  1.00  0.00    -0.303 N 
HETATM   16  N5  UNL     1      29.618  -0.520   3.597  1.00  0.00    -0.285 N 
ATOM     17  H6  UNL     1      31.269  -1.199   4.675  1.00  0.00     0.186 HD
ATOM     18  H5  UNL     1      29.568  -1.210   2.848  1.00  0.00     0.188 HD
BRANCH  14  19
HETATM   19  C3  UNL     1      31.076   0.893   6.582  1.00  0.00     0.093 C 
HETATM   20  C2  UNL     1      32.003   2.068   6.401  1.00  0.00     0.284 C 
HETATM   21  N1  UNL     1      33.117   1.254   6.870  1.00  0.00     0.085 N 
HETATM   22  C1  UNL     1      34.289   1.279   6.040  1.00  0.00     0.309 C 
HETATM   23  C16 UNL     1      32.322   0.046   6.783  1.00  0.00     0.284 C 
ENDBRANCH  14  19
ENDBRANCH  10  12
ENDBRANCH   1  10
BRANCH   4  24
HETATM   24  C9  UNL     1      26.426   5.321   3.577  1.00  0.00     0.065 C 
HETATM   25  C11 UNL     1      25.466   6.105   4.464  1.00  0.00     0.022 C 
HETATM   26  C12 UNL     1      25.276   7.087   3.354  1.00  0.00     0.003 C 
HETATM   27  C13 UNL     1      25.878   6.113   2.391  1.00  0.00     0.022 C 
BRANCH  24  28
HETATM   28  C10 UNL     1      27.857   5.623   3.790  1.00  0.00     0.367 C 
HETATM   29  F1  UNL     1      28.032   6.948   4.263  1.00  0.00    -0.213 F 
HETATM   30  F2  UNL     1      28.667   5.548   2.703  1.00  0.00    -0.213 F 
ENDBRANCH  24  28
ENDBRANCH   4  24
TORSDOF 5
ENDMDL
MODEL 5
REMARK VINA RESULT: -6.573916132      1.158      1.590
REMARK  5 active torsions:
REMARK  status: ('A' for Active; 'I' for Inactive)
REMARK    1  A    between atoms: C3_4  and  C4_5 
REMARK    2  A    between atoms: C6_7  and  N2_8 
REMARK    3  A    between atoms: N2_8  and  C7_10 
REMARK    4  A    between atoms: C8_13  and  C9_14 
REMARK    5  A    between atoms: C9_14  and  C10_15 
ROOT
HETATM    1  C7  UNL     1      28.900   0.680   3.051  1.00  0.00     0.684 A 
HETATM    2  N3  UNL     1      29.621   1.237   4.025  1.00  0.00    -0.191 N 
ATOM      3  H3  UNL     1      29.430   2.199   4.306  1.00  0.00     0.184 HD
HETATM    4  C8  UNL     1      30.615   0.531   4.653  1.00  0.00     0.080 A 
HETATM    5  C14 UNL     1      30.836  -0.744   4.246  1.00  0.00     0.156 A 
HETATM    6  F3  UNL     1      31.826  -1.550   4.731  1.00  0.00    -0.203 F 
HETATM    7  C15 UNL     1      30.063  -1.316   3.214  1.00  0.00     0.150 A 
HETATM    8  N4  UNL     1      29.104  -0.582   2.636  1.00  0.00    -0.199 N 
ATOM      9  H4  UNL     1      28.534  -0.976   1.887  1.00  0.00     0.183 HD
ENDROOT
BRANCH   1  10
HETATM   10  N2  UNL     1      27.949   1.329   2.438  1.00  0.00    -0.175 N 
ATOM     11  H2  UNL     1      27.522   0.895   1.619  1.00  0.00     0.186 HD
BRANCH  10  12
HETATM   12  C6  UNL     1      27.477   2.586   2.838  1.00  0.00     0.137 A 
HETATM   13  C5  UNL     1      26.393   2.931   3.620  1.00  0.00     0.077 A 
HETATM   14  C4  UNL     1      26.359   4.294   3.718  1.00  0.00     0.037 A 
HETATM   15  N6  UNL     1      27.395   4.764   3.014  1.00  0.00    -0.303 N 
HETATM   16  N5  UNL     1      28.058   3.748   2.492  1.00  0.00    -0.285 N 
ATOM     17  H6  UNL     1      27.634   5.749   2.898  1.00  0.00     0.186 HD
ATOM     18  H5  UNL     1      28.891   3.832   1.911  1.00  0.00     0.188 HD
BRANCH  14  19
HETATM   19  C3  UNL     1      25.358   5.106   4.466  1.00  0.00     0.093 C 
HETATM   20  C2  UNL     1      24.335   4.303   5.228  1.00  0.00     0.284 C 
HETATM   21  N1  UNL     1      23.269   5.026   4.547  1.00  0.00     0.085 N 
HETATM   22  C1  UNL     1      22.243   4.205   3.966  1.00  0.00     0.309 C 
HETATM   23  C16 UNL     1      24.208   5.603   3.606  1.00  0.00     0.284 C 
ENDBRANCH  14  19
ENDBRANCH  10  12
ENDBRANCH   1  10
BRANCH   4  24
HETATM   24  C9  UNL     1      31.356   1.160   5.768  1.00  0.00     0.065 C 
HETATM   25  C11 UNL     1      32.765   0.604   5.928  1.00  0.00     0.022 C 
HETATM   26  C12 UNL     1      32.482   0.357   7.374  1.00  0.00     0.003 C 
HETATM   27  C13 UNL     1      31.017   0.517   7.112  1.00  0.00     0.022 C 
BRANCH  24  28
HETATM   28  C10 UNL     1      31.256   2.633   5.854  1.00  0.00     0.367 C 
HETATM   29  F1  UNL     1      32.333   3.174   6.599  1.00  0.00    -0.213 F 
HETATM   30  F2  UNL     1      30.148   3.137   6.457  1.00  0.00    -0.213 F 
ENDBRANCH  24  28
ENDBRANCH   4  24
TORSDOF 5
ENDMDL
