MODEL 1
REMARK VINA RESULT: -7.893171088      0.000      0.000
REMARK  7 active torsions:
REMARK  status: ('A' for Active; 'I' for Inactive)
REMARK    1  A    between atoms: C5_7  and  N2_8 
REMARK    2  A    between atoms: N2_8  and  C6_10 
REMARK    3  A    between atoms: C11_15  and  N3_16 
REMARK    4  A    between atoms: C12_22  and  O1_23 
REMARK    5  A    between atoms: O1_23  and  C13_24 
REMARK    6  A    between atoms: C13_24  and  C14_25 
REMARK    7  A    between atoms: C13_24  and  C15_27 
ROOT
HETATM    1  N1  UNL     1      30.638  -2.061   3.410  1.00  0.00    -0.191 NA
HETATM    2  C1  UNL     1      30.032  -1.088   3.496  1.00  0.00     0.104 C 
HETATM    3  C2  UNL     1      29.236   0.144   3.577  1.00  0.00     0.097 A 
HETATM    4  C3  UNL     1      28.210   0.275   2.665  1.00  0.00     0.055 A 
HETATM    5  C4  UNL     1      27.427   1.395   2.681  1.00  0.00     0.079 A 
HETATM    6 CL1  UNL     1      26.128   1.532   1.507  1.00  0.00    -0.080 Cl
HETATM    7  C5  UNL     1      27.659   2.384   3.597  1.00  0.00     0.125 A 
HETATM    8  N4  UNL     1      28.667   2.217   4.467  1.00  0.00    -0.321 N 
ATOM      9  H4  UNL     1      28.832   2.959   5.147  1.00  0.00     0.169 HD
HETATM   10  C12 UNL     1      29.488   1.126   4.508  1.00  0.00     0.165 A 
ENDROOT
BRANCH  10  11
HETATM   11  O1  UNL     1      30.460   1.010   5.378  1.00  0.00    -0.324 OA
BRANCH  11  12
HETATM   12  C13 UNL     1      31.284   1.328   6.336  1.00  0.00     0.187 C 
BRANCH  12  13
HETATM   13  C14 UNL     1      32.002   2.688   6.168  1.00  0.00     0.257 C 
HETATM   14  F1  UNL     1      33.347   2.495   6.042  1.00  0.00    -0.253 F 
ENDBRANCH  12  13
BRANCH  12  15
HETATM   15  C15 UNL     1      32.423   0.348   6.623  1.00  0.00     0.257 C 
HETATM   16  F2  UNL     1      32.925   0.585   7.888  1.00  0.00    -0.253 F 
ENDBRANCH  12  15
ENDBRANCH  11  12
ENDBRANCH  10  11
BRANCH   7  17
HETATM   17  N2  UNL     1      27.014   3.451   3.711  1.00  0.00    -0.368 N 
ATOM     18  H2  UNL     1      27.223   4.056   2.917  1.00  0.00     0.161 HD
BRANCH  17  19
HETATM   19  C6  UNL     1      26.116   4.086   4.545  1.00  0.00     0.113 C 
HETATM   20  C7  UNL     1      25.739   5.490   4.187  1.00  0.00     0.027 C 
HETATM   21  C8  UNL     1      24.413   5.714   3.582  1.00  0.00     0.002 C 
HETATM   22  C9  UNL     1      23.310   4.801   3.980  1.00  0.00     0.002 C 
HETATM   23  C10 UNL     1      23.836   3.382   3.714  1.00  0.00     0.035 C 
HETATM   24  C11 UNL     1      24.912   3.176   4.730  1.00  0.00     0.206 C 
BRANCH  24  25
HETATM   25  N3  UNL     1      24.321   3.402   6.038  1.00  0.00    -0.073 N 
ATOM     26  H33 UNL     1      24.431   4.368   6.347  1.00  0.00     0.274 HD
ATOM     27  H32 UNL     1      23.302   3.371   6.009  1.00  0.00     0.274 HD
ATOM     28  H31 UNL     1      24.707   2.738   6.710  1.00  0.00     0.274 HD
ENDBRANCH  24  25
ENDBRANCH  17  19
ENDBRANCH   7  17
TORSDOF 7
ENDMDL
MODEL 2
REMARK VINA RESULT: -7.535109289      0.497      1.138
REMARK  7 active torsions:
REMARK  status: ('A' for Active; 'I' for Inactive)
REMARK    1  A    between atoms: C5_7  and  N2_8 
REMARK    2  A    between atoms: N2_8  and  C6_10 
REMARK    3  A    between atoms: C11_15  and  N3_16 
REMARK    4  A    between atoms: C12_22  and  O1_23 
REMARK    5  A    between atoms: O1_23  and  C13_24 
REMARK    6  A    between atoms: C13_24  and  C14_25 
REMARK    7  A    between atoms: C13_24  and  C15_27 
ROOT
HETATM    1  N1  UNL     1      30.642  -1.969   3.469  1.00  0.00    -0.191 NA
HETATM    2  C1  UNL     1      30.033  -0.997   3.548  1.00  0.00     0.104 C 
HETATM    3  C2  UNL     1      29.232   0.232   3.622  1.00  0.00     0.097 A 
HETATM    4  C3  UNL     1      28.191   0.343   2.724  1.00  0.00     0.055 A 
HETATM    5  C4  UNL     1      27.404   1.460   2.734  1.00  0.00     0.079 A 
HETATM    6 CL1  UNL     1      26.085   1.571   1.578  1.00  0.00    -0.080 Cl
HETATM    7  C5  UNL     1      27.645   2.465   3.630  1.00  0.00     0.125 A 
HETATM    8  N4  UNL     1      28.667   2.317   4.486  1.00  0.00    -0.321 N 
ATOM      9  H4  UNL     1      28.839   3.071   5.151  1.00  0.00     0.169 HD
HETATM   10  C12 UNL     1      29.494   1.231   4.532  1.00  0.00     0.165 A 
ENDROOT
BRANCH  10  11
HETATM   11  O1  UNL     1      30.480   1.134   5.388  1.00  0.00    -0.324 OA
BRANCH  11  12
HETATM   12  C13 UNL     1      31.698   1.029   5.839  1.00  0.00     0.187 C 
BRANCH  12  13
HETATM   13  C14 UNL     1      31.844   0.274   7.183  1.00  0.00     0.257 C 
HETATM   14  F1  UNL     1      32.874   0.802   7.906  1.00  0.00    -0.253 F 
ENDBRANCH  12  13
BRANCH  12  15
HETATM   15  C15 UNL     1      32.466   2.332   6.068  1.00  0.00     0.257 C 
HETATM   16  F2  UNL     1      31.583   3.327   6.437  1.00  0.00    -0.253 F 
ENDBRANCH  12  15
ENDBRANCH  11  12
ENDBRANCH  10  11
BRANCH   7  17
HETATM   17  N2  UNL     1      26.996   3.530   3.736  1.00  0.00    -0.368 N 
ATOM     18  H2  UNL     1      27.221   4.140   2.950  1.00  0.00     0.161 HD
BRANCH  17  19
HETATM   19  C6  UNL     1      26.081   4.161   4.555  1.00  0.00     0.113 C 
HETATM   20  C7  UNL     1      25.657   5.540   4.157  1.00  0.00     0.027 C 
HETATM   21  C8  UNL     1      24.322   5.703   3.552  1.00  0.00     0.002 C 
HETATM   22  C9  UNL     1      23.251   4.766   3.982  1.00  0.00     0.002 C 
HETATM   23  C10 UNL     1      23.823   3.358   3.756  1.00  0.00     0.035 C 
HETATM   24  C11 UNL     1      24.909   3.217   4.772  1.00  0.00     0.206 C 
BRANCH  24  25
HETATM   25  N3  UNL     1      24.315   3.463   6.076  1.00  0.00    -0.073 N 
ATOM     26  H33 UNL     1      24.715   4.283   6.531  1.00  0.00     0.274 HD
ATOM     27  H32 UNL     1      23.352   3.789   6.004  1.00  0.00     0.274 HD
ATOM     28  H31 UNL     1      24.395   2.626   6.654  1.00  0.00     0.274 HD
ENDBRANCH  24  25
ENDBRANCH  17  19
ENDBRANCH   7  17
TORSDOF 7
ENDMDL
MODEL 3
REMARK VINA RESULT: -6.492597862      0.935      1.642
REMARK  7 active torsions:
REMARK  status: ('A' for Active; 'I' for Inactive)
REMARK    1  A    between atoms: C5_7  and  N2_8 
REMARK    2  A    between atoms: N2_8  and  C6_10 
REMARK    3  A    between atoms: C11_15  and  N3_16 
REMARK    4  A    between atoms: C12_22  and  O1_23 
REMARK    5  A    between atoms: O1_23  and  C13_24 
REMARK    6  A    between atoms: C13_24  and  C14_25 
REMARK    7  A    between atoms: C13_24  and  C15_27 
ROOT
HETATM    1  N1  UNL     1      30.867  -2.186   3.493  1.00  0.00    -0.191 NA
HETATM    2  C1  UNL     1      30.227  -1.238   3.614  1.00  0.00     0.104 C 
HETATM    3  C2  UNL     1      29.389  -0.038   3.739  1.00  0.00     0.097 A 
HETATM    4  C3  UNL     1      28.377   0.104   2.815  1.00  0.00     0.055 A 
HETATM    5  C4  UNL     1      27.557   1.196   2.870  1.00  0.00     0.079 A 
HETATM    6 CL1  UNL     1      26.275   1.348   1.678  1.00  0.00    -0.080 Cl
HETATM    7  C5  UNL     1      27.739   2.146   3.836  1.00  0.00     0.125 A 
HETATM    8  N4  UNL     1      28.736   1.970   4.716  1.00  0.00    -0.321 N 
ATOM      9  H4  UNL     1      28.864   2.683   5.434  1.00  0.00     0.169 HD
HETATM   10  C12 UNL     1      29.592   0.905   4.720  1.00  0.00     0.165 A 
ENDROOT
BRANCH  10  11
HETATM   11  O1  UNL     1      30.552   0.778   5.603  1.00  0.00    -0.324 OA
BRANCH  11  12
HETATM   12  C13 UNL     1      31.459   1.115   6.476  1.00  0.00     0.187 C 
BRANCH  12  13
HETATM   13  C14 UNL     1      32.102   2.506   6.259  1.00  0.00     0.257 C 
HETATM   14  F1  UNL     1      33.432   2.368   5.982  1.00  0.00    -0.253 F 
ENDBRANCH  12  13
BRANCH  12  15
HETATM   15  C15 UNL     1      32.659   0.178   6.624  1.00  0.00     0.257 C 
HETATM   16  F2  UNL     1      33.231   0.358   7.868  1.00  0.00    -0.253 F 
ENDBRANCH  12  15
ENDBRANCH  11  12
ENDBRANCH  10  11
BRANCH   7  17
HETATM   17  N2  UNL     1      27.057   3.185   3.988  1.00  0.00    -0.368 N 
ATOM     18  H2  UNL     1      27.202   3.548   4.931  1.00  0.00     0.161 HD
BRANCH  17  19
HETATM   19  C6  UNL     1      26.176   4.007   3.315  1.00  0.00     0.113 C 
HETATM   20  C7  UNL     1      24.723   3.846   3.637  1.00  0.00     0.027 C 
HETATM   21  C8  UNL     1      24.089   4.871   4.487  1.00  0.00     0.002 C 
HETATM   22  C9  UNL     1      24.610   6.260   4.397  1.00  0.00     0.002 C 
HETATM   23  C10 UNL     1      26.120   6.148   4.653  1.00  0.00     0.035 C 
HETATM   24  C11 UNL     1      26.661   5.440   3.454  1.00  0.00     0.206 C 
BRANCH  24  25
HETATM   25  N3  UNL     1      26.267   6.208   2.284  1.00  0.00    -0.073 N 
ATOM     26  H33 UNL     1      27.056   6.701   1.865  1.00  0.00     0.274 HD
ATOM     27  H32 UNL     1      26.031   5.609   1.493  1.00  0.00     0.274 HD
ATOM     28  H31 UNL     1      25.505   6.842   2.528  1.00  0.00     0.274 HD
ENDBRANCH  24  25
ENDBRANCH  17  19
ENDBRANCH   7  17
TORSDOF 7
ENDMDL
MODEL 4
REMARK VINA RESULT: -6.157862534      1.246      2.210
REMARK  7 active torsions:
REMARK  status: ('A' for Active; 'I' for Inactive)
REMARK    1  A    between atoms: C5_7  and  N2_8 
REMARK    2  A    between atoms: N2_8  and  C6_10 
REMARK    3  A    between atoms: C11_15  and  N3_16 
REMARK    4  A    between atoms: C12_22  and  O1_23 
REMARK    5  A    between atoms: O1_23  and  C13_24 
REMARK    6  A    between atoms: C13_24  and  C14_25 
REMARK    7  A    between atoms: C13_24  and  C15_27 
ROOT
HETATM    1  N1  UNL     1      31.042  -2.400   3.426  1.00  0.00    -0.191 NA
HETATM    2  C1  UNL     1      30.430  -1.434   3.542  1.00  0.00     0.104 C 
HETATM    3  C2  UNL     1      29.624  -0.212   3.665  1.00  0.00     0.097 A 
HETATM    4  C3  UNL     1      28.545  -0.098   2.815  1.00  0.00     0.055 A 
HETATM    5  C4  UNL     1      27.751   1.012   2.871  1.00  0.00     0.079 A 
HETATM    6 CL1  UNL     1      26.382   1.126   1.775  1.00  0.00    -0.080 Cl
HETATM    7  C5  UNL     1      28.024   2.009   3.767  1.00  0.00     0.125 A 
HETATM    8  N4  UNL     1      29.083   1.860   4.576  1.00  0.00    -0.321 N 
ATOM      9  H4  UNL     1      29.279   2.608   5.241  1.00  0.00     0.169 HD
HETATM   10  C12 UNL     1      29.919   0.779   4.573  1.00  0.00     0.165 A 
ENDROOT
BRANCH  10  11
HETATM   11  O1  UNL     1      30.943   0.680   5.385  1.00  0.00    -0.324 OA
BRANCH  11  12
HETATM   12  C13 UNL     1      32.096   0.943   5.931  1.00  0.00     0.187 C 
BRANCH  12  13
HETATM   13  C14 UNL     1      32.342   0.284   7.309  1.00  0.00     0.257 C 
HETATM   14  F1  UNL     1      33.675   0.052   7.486  1.00  0.00    -0.253 F 
ENDBRANCH  12  13
BRANCH  12  15
HETATM   15  C15 UNL     1      32.431   2.417   6.167  1.00  0.00     0.257 C 
HETATM   16  F2  UNL     1      31.270   3.113   6.440  1.00  0.00    -0.253 F 
ENDBRANCH  12  15
ENDBRANCH  11  12
ENDBRANCH  10  11
BRANCH   7  17
HETATM   17  N2  UNL     1      27.373   3.069   3.913  1.00  0.00    -0.368 N 
ATOM     18  H2  UNL     1      27.452   3.381   4.881  1.00  0.00     0.161 HD
BRANCH  17  19
HETATM   19  C6  UNL     1      26.585   3.958   3.210  1.00  0.00     0.113 C 
HETATM   20  C7  UNL     1      25.181   4.143   3.692  1.00  0.00     0.027 C 
HETATM   21  C8  UNL     1      24.863   5.379   4.432  1.00  0.00     0.002 C 
HETATM   22  C9  UNL     1      25.622   6.607   4.080  1.00  0.00     0.002 C 
HETATM   23  C10 UNL     1      27.104   6.222   4.203  1.00  0.00     0.035 C 
HETATM   24  C11 UNL     1      27.346   5.268   3.080  1.00  0.00     0.206 C 
BRANCH  24  25
HETATM   25  N3  UNL     1      26.961   5.940   1.850  1.00  0.00    -0.073 N 
ATOM     26  H33 UNL     1      25.977   6.205   1.850  1.00  0.00     0.274 HD
ATOM     27  H32 UNL     1      27.365   6.874   1.780  1.00  0.00     0.274 HD
ATOM     28  H31 UNL     1      27.202   5.356   1.048  1.00  0.00     0.274 HD
ENDBRANCH  24  25
ENDBRANCH  17  19
ENDBRANCH   7  17
TORSDOF 7
ENDMDL
MODEL 5
REMARK VINA RESULT: -6.156892024      1.004      1.367
REMARK  7 active torsions:
REMARK  status: ('A' for Active; 'I' for Inactive)
REMARK    1  A    between atoms: C5_7  and  N2_8 
REMARK    2  A    between atoms: N2_8  and  C6_10 
REMARK    3  A    between atoms: C11_15  and  N3_16 
REMARK    4  A    between atoms: C12_22  and  O1_23 
REMARK    5  A    between atoms: O1_23  and  C13_24 
REMARK    6  A    between atoms: C13_24  and  C14_25 
REMARK    7  A    between atoms: C13_24  and  C15_27 
ROOT
HETATM    1  N1  UNL     1      30.609  -1.760   3.439  1.00  0.00    -0.191 NA
HETATM    2  C1  UNL     1      29.869  -0.890   3.574  1.00  0.00     0.104 C 
HETATM    3  C2  UNL     1      28.907   0.211   3.715  1.00  0.00     0.097 A 
HETATM    4  C3  UNL     1      27.943   0.315   2.735  1.00  0.00     0.055 A 
HETATM    5  C4  UNL     1      27.014   1.316   2.800  1.00  0.00     0.079 A 
HETATM    6 CL1  UNL     1      25.799   1.421   1.536  1.00  0.00    -0.080 Cl
HETATM    7  C5  UNL     1      27.039   2.211   3.834  1.00  0.00     0.125 A 
HETATM    8  N4  UNL     1      27.993   2.074   4.766  1.00  0.00    -0.321 N 
ATOM      9  H4  UNL     1      28.003   2.746   5.534  1.00  0.00     0.169 HD
HETATM   10  C12 UNL     1      28.951   1.101   4.764  1.00  0.00     0.165 A 
ENDROOT
BRANCH  10  11
HETATM   11  O1  UNL     1      29.864   1.010   5.700  1.00  0.00    -0.324 OA
BRANCH  11  12
HETATM   12  C13 UNL     1      30.918   1.300   6.408  1.00  0.00     0.187 C 
BRANCH  12  13
HETATM   13  C14 UNL     1      31.583   2.658   6.078  1.00  0.00     0.257 C 
HETATM   14  F1  UNL     1      32.941   2.526   6.079  1.00  0.00    -0.253 F 
ENDBRANCH  12  13
BRANCH  12  15
HETATM   15  C15 UNL     1      32.079   0.305   6.360  1.00  0.00     0.257 C 
HETATM   16  F2  UNL     1      32.680   0.240   7.602  1.00  0.00    -0.253 F 
ENDBRANCH  12  15
ENDBRANCH  11  12
ENDBRANCH  10  11
BRANCH   7  17
HETATM   17  N2  UNL     1      26.246   3.165   4.003  1.00  0.00    -0.368 N 
ATOM     18  H2  UNL     1      25.316   2.889   3.688  1.00  0.00     0.161 HD
BRANCH  17  19
HETATM   19  C6  UNL     1      26.203   4.464   4.470  1.00  0.00     0.113 C 
HETATM   20  C7  UNL     1      27.300   5.379   4.023  1.00  0.00     0.027 C 
HETATM   21  C8  UNL     1      26.984   6.379   2.987  1.00  0.00     0.002 C 
HETATM   22  C9  UNL     1      25.599   6.918   2.948  1.00  0.00     0.002 C 
HETATM   23  C10 UNL     1      24.683   5.688   2.866  1.00  0.00     0.035 C 
HETATM   24  C11 UNL     1      24.815   5.021   4.196  1.00  0.00     0.206 C 
BRANCH  24  25
HETATM   25  N3  UNL     1      24.472   6.005   5.209  1.00  0.00    -0.073 N 
ATOM     26  H33 UNL     1      25.293   6.341   5.712  1.00  0.00     0.274 HD
ATOM     27  H32 UNL     1      24.178   6.892   4.799  1.00  0.00     0.274 HD
ATOM     28  H31 UNL     1      23.767   5.621   5.839  1.00  0.00     0.274 HD
ENDBRANCH  24  25
ENDBRANCH  17  19
ENDBRANCH   7  17
TORSDOF 7
ENDMDL
