MODEL 1
REMARK VINA RESULT: -6.338973662      0.000      0.000
REMARK  4 active torsions:
REMARK  status: ('A' for Active; 'I' for Inactive)
REMARK    1  A    between atoms: N1_1  and  N2_4 
REMARK       I    between atoms: N2_4  and  C1_6 
REMARK       I    between atoms: C1_6  and  N3_8 
REMARK    2  A    between atoms: N3_8  and  C2_9 
REMARK    3  A    between atoms: C3_16  and  N7_17 
REMARK    4  A    between atoms: N7_17  and  O2_19 
ROOT
HETATM    1  C2  UNL     1       4.380 101.804   6.383  1.00  0.00     0.247 A 
HETATM    2  N4  UNL     1       5.551 102.103   6.962  1.00  0.00    -0.256 N 
ATOM      3  H4  UNL     1       6.166 101.413   7.391  1.00  0.00     0.191 HD
HETATM    4  N5  UNL     1       5.817 103.395   6.913  1.00  0.00    -0.239 N 
ATOM      5  H5  UNL     1       6.646 103.859   7.284  1.00  0.00     0.208 HD
HETATM    6  N6  UNL     1       4.816 103.966   6.298  1.00  0.00    -0.265 N 
ATOM      7  H6  UNL     1       4.748 104.967   6.118  1.00  0.00     0.190 HD
HETATM    8  C3  UNL     1       3.902 103.083   5.940  1.00  0.00     0.202 A 
ENDROOT
BRANCH   1   9
HETATM    9  N3  UNL     1       3.706 100.661   6.181  1.00  0.00    -0.327 NA
HETATM   10  C1  UNL     1       3.025  99.505   5.977  1.00  0.00     0.413 C 
HETATM   11  N2  UNL     1       1.562  99.549   6.050  1.00  0.00    -0.246 N 
HETATM   12  O1  UNL     1       3.469  98.373   5.726  1.00  0.00    -0.228 OA
ATOM     13  H2  UNL     1       1.080 100.426   6.245  1.00  0.00     0.192 HD
BRANCH  11  14
HETATM   14  N1  UNL     1       0.847  98.384   5.851  1.00  0.00    -0.340 N 
ATOM     15  H12 UNL     1       0.745  97.718   6.617  1.00  0.00     0.177 HD
ATOM     16  H11 UNL     1       0.430  98.210   4.936  1.00  0.00     0.177 HD
ENDBRANCH  11  14
ENDBRANCH   1   9
BRANCH   8  17
HETATM   17  N7  UNL     1       2.787 103.216   5.318  1.00  0.00    -0.248 N 
ATOM     18  H7  UNL     1       2.656 102.911   4.354  1.00  0.00     0.196 HD
BRANCH  17  19
HETATM   19  O2  UNL     1       1.775 103.808   6.057  1.00  0.00    -0.288 OA
ATOM     20  H2  UNL     1       0.978 103.296   6.124  1.00  0.00     0.244 HD
ENDBRANCH  17  19
ENDBRANCH   8  17
TORSDOF 4
ENDMDL
MODEL 2
REMARK VINA RESULT: -6.120882552      1.779      4.258
REMARK  4 active torsions:
REMARK  status: ('A' for Active; 'I' for Inactive)
REMARK    1  A    between atoms: N1_1  and  N2_4 
REMARK       I    between atoms: N2_4  and  C1_6 
REMARK       I    between atoms: C1_6  and  N3_8 
REMARK    2  A    between atoms: N3_8  and  C2_9 
REMARK    3  A    between atoms: C3_16  and  N7_17 
REMARK    4  A    between atoms: N7_17  and  O2_19 
ROOT
HETATM    1  C2  UNL     1       2.060 100.936   5.568  1.00  0.00     0.247 A 
HETATM    2  N4  UNL     1       1.338  99.807   5.592  1.00  0.00    -0.256 N 
ATOM      3  H4  UNL     1       1.705  98.903   5.889  1.00  0.00     0.191 HD
HETATM    4  N5  UNL     1       0.097  99.999   5.186  1.00  0.00    -0.239 N 
ATOM      5  H5  UNL     1      -0.637  99.293   5.119  1.00  0.00     0.208 HD
HETATM    6  N6  UNL     1      -0.013 101.266   4.888  1.00  0.00    -0.265 N 
ATOM      7  H6  UNL     1      -0.868 101.702   4.542  1.00  0.00     0.190 HD
HETATM    8  C3  UNL     1       1.121 101.910   5.089  1.00  0.00     0.202 A 
ENDROOT
BRANCH   1   9
HETATM    9  N3  UNL     1       3.328 101.237   5.889  1.00  0.00    -0.327 NA
HETATM   10  C1  UNL     1       4.609 101.542   6.214  1.00  0.00     0.413 C 
HETATM   11  N2  UNL     1       4.890 102.895   6.702  1.00  0.00    -0.246 N 
HETATM   12  O1  UNL     1       5.619 100.822   6.161  1.00  0.00    -0.228 OA
ATOM     13  H2  UNL     1       4.138 103.578   6.795  1.00  0.00     0.192 HD
BRANCH  11  14
HETATM   14  N1  UNL     1       6.189 103.231   7.035  1.00  0.00    -0.340 N 
ATOM     15  H12 UNL     1       6.868 103.408   6.294  1.00  0.00     0.177 HD
ATOM     16  H11 UNL     1       6.446 103.296   8.020  1.00  0.00     0.177 HD
ENDBRANCH  11  14
ENDBRANCH   1   9
BRANCH   8  17
HETATM   17  N7  UNL     1       1.439 103.144   4.933  1.00  0.00    -0.248 N 
ATOM     18  H7  UNL     1       1.430 103.601   4.021  1.00  0.00     0.196 HD
BRANCH  17  19
HETATM   19  O2  UNL     1       1.793 103.807   6.097  1.00  0.00    -0.288 OA
ATOM     20  H2  UNL     1       1.531 104.718   6.132  1.00  0.00     0.244 HD
ENDBRANCH  17  19
ENDBRANCH   8  17
TORSDOF 4
ENDMDL
MODEL 3
REMARK VINA RESULT: -5.918227950      1.574      2.435
REMARK  4 active torsions:
REMARK  status: ('A' for Active; 'I' for Inactive)
REMARK    1  A    between atoms: N1_1  and  N2_4 
REMARK       I    between atoms: N2_4  and  C1_6 
REMARK       I    between atoms: C1_6  and  N3_8 
REMARK    2  A    between atoms: N3_8  and  C2_9 
REMARK    3  A    between atoms: C3_16  and  N7_17 
REMARK    4  A    between atoms: N7_17  and  O2_19 
ROOT
HETATM    1  C2  UNL     1       4.027 102.279   5.848  1.00  0.00     0.247 A 
HETATM    2  N4  UNL     1       4.521 103.338   5.193  1.00  0.00    -0.256 N 
ATOM      3  H4  UNL     1       4.130 103.703   4.324  1.00  0.00     0.191 HD
HETATM    4  N5  UNL     1       5.573 103.855   5.799  1.00  0.00    -0.239 N 
ATOM      5  H5  UNL     1       6.116 104.662   5.491  1.00  0.00     0.208 HD
HETATM    6  N6  UNL     1       5.785 103.137   6.869  1.00  0.00    -0.265 N 
ATOM      7  H6  UNL     1       6.541 103.305   7.534  1.00  0.00     0.190 HD
HETATM    8  C3  UNL     1       4.899 102.164   6.981  1.00  0.00     0.202 A 
ENDROOT
BRANCH   1   9
HETATM    9  N3  UNL     1       2.990 101.453   5.636  1.00  0.00    -0.327 NA
HETATM   10  C1  UNL     1       1.943 100.618   5.421  1.00  0.00     0.413 C 
HETATM   11  N2  UNL     1       1.956  99.315   6.091  1.00  0.00    -0.246 N 
HETATM   12  O1  UNL     1       0.935 100.797   4.719  1.00  0.00    -0.228 OA
ATOM     13  H2  UNL     1       2.731  99.054   6.701  1.00  0.00     0.192 HD
BRANCH  11  14
HETATM   14  N1  UNL     1       0.903  98.444   5.884  1.00  0.00    -0.340 N 
ATOM     15  H12 UNL     1      -0.016  98.815   5.639  1.00  0.00     0.177 HD
ATOM     16  H11 UNL     1       1.064  97.442   5.979  1.00  0.00     0.177 HD
ENDBRANCH  11  14
ENDBRANCH   1   9
BRANCH   8  17
HETATM   17  N7  UNL     1       4.745 101.253   7.872  1.00  0.00    -0.248 N 
ATOM     18  H7  UNL     1       4.519 101.467   8.843  1.00  0.00     0.196 HD
BRANCH  17  19
HETATM   19  O2  UNL     1       4.910  99.956   7.413  1.00  0.00    -0.288 OA
ATOM     20  H2  UNL     1       4.253  99.665   6.792  1.00  0.00     0.244 HD
ENDBRANCH  17  19
ENDBRANCH   8  17
TORSDOF 4
ENDMDL
MODEL 4
REMARK VINA RESULT: -5.743200025      1.995      4.429
REMARK  4 active torsions:
REMARK  status: ('A' for Active; 'I' for Inactive)
REMARK    1  A    between atoms: N1_1  and  N2_4 
REMARK       I    between atoms: N2_4  and  C1_6 
REMARK       I    between atoms: C1_6  and  N3_8 
REMARK    2  A    between atoms: N3_8  and  C2_9 
REMARK    3  A    between atoms: C3_16  and  N7_17 
REMARK    4  A    between atoms: N7_17  and  O2_19 
ROOT
HETATM    1  C2  UNL     1       2.851 101.114   5.565  1.00  0.00     0.247 A 
HETATM    2  N4  UNL     1       2.642  99.800   5.727  1.00  0.00    -0.256 N 
ATOM      3  H4  UNL     1       3.356  99.146   6.046  1.00  0.00     0.191 HD
HETATM    4  N5  UNL     1       1.406  99.450   5.426  1.00  0.00    -0.239 N 
ATOM      5  H5  UNL     1       1.012  98.509   5.472  1.00  0.00     0.208 HD
HETATM    6  N6  UNL     1       0.782 100.537   5.058  1.00  0.00    -0.265 N 
ATOM      7  H6  UNL     1      -0.195 100.567   4.766  1.00  0.00     0.190 HD
HETATM    8  C3  UNL     1       1.575 101.591   5.113  1.00  0.00     0.202 A 
ENDROOT
BRANCH   1   9
HETATM    9  N3  UNL     1       3.909 101.918   5.748  1.00  0.00    -0.327 NA
HETATM   10  C1  UNL     1       4.979 102.732   5.935  1.00  0.00     0.413 C 
HETATM   11  N2  UNL     1       5.722 102.612   7.192  1.00  0.00    -0.246 N 
HETATM   12  O1  UNL     1       5.445 103.593   5.171  1.00  0.00    -0.228 OA
ATOM     13  H2  UNL     1       5.438 101.932   7.898  1.00  0.00     0.192 HD
BRANCH  11  14
HETATM   14  N1  UNL     1       6.813 103.433   7.406  1.00  0.00    -0.340 N 
ATOM     15  H12 UNL     1       7.628 103.356   6.798  1.00  0.00     0.177 HD
ATOM     16  H11 UNL     1       6.782 104.105   8.173  1.00  0.00     0.177 HD
ENDBRANCH  11  14
ENDBRANCH   1   9
BRANCH   8  17
HETATM   17  N7  UNL     1       1.363 102.829   4.849  1.00  0.00    -0.248 N 
ATOM     18  H7  UNL     1       1.054 103.149   3.932  1.00  0.00     0.196 HD
BRANCH  17  19
HETATM   19  O2  UNL     1       1.586 103.697   5.906  1.00  0.00    -0.288 OA
ATOM     20  H2  UNL     1       2.238 104.367   5.741  1.00  0.00     0.244 HD
ENDBRANCH  17  19
ENDBRANCH   8  17
TORSDOF 4
ENDMDL
MODEL 5
REMARK VINA RESULT: -5.691695221      8.568     10.426
REMARK  4 active torsions:
REMARK  status: ('A' for Active; 'I' for Inactive)
REMARK    1  A    between atoms: N1_1  and  N2_4 
REMARK       I    between atoms: N2_4  and  C1_6 
REMARK       I    between atoms: C1_6  and  N3_8 
REMARK    2  A    between atoms: N3_8  and  C2_9 
REMARK    3  A    between atoms: C3_16  and  N7_17 
REMARK    4  A    between atoms: N7_17  and  O2_19 
ROOT
HETATM    1  C2  UNL     1       7.725 104.165  13.425  1.00  0.00     0.247 A 
HETATM    2  N4  UNL     1       7.685 102.851  13.166  1.00  0.00    -0.256 N 
ATOM      3  H4  UNL     1       8.404 102.191  13.461  1.00  0.00     0.191 HD
HETATM    4  N5  UNL     1       6.609 102.508  12.485  1.00  0.00    -0.239 N 
ATOM      5  H5  UNL     1       6.359 101.569  12.174  1.00  0.00     0.208 HD
HETATM    6  N6  UNL     1       5.922 103.602  12.285  1.00  0.00    -0.265 N 
ATOM      7  H6  UNL     1       5.037 103.639  11.779  1.00  0.00     0.190 HD
HETATM    8  C3  UNL     1       6.518 104.651  12.819  1.00  0.00     0.202 A 
ENDROOT
BRANCH   1   9
HETATM    9  N3  UNL     1       8.588 104.960  14.077  1.00  0.00    -0.327 NA
HETATM   10  C1  UNL     1       9.460 105.765  14.735  1.00  0.00     0.413 C 
HETATM   11  N2  UNL     1       9.087 107.168  14.930  1.00  0.00    -0.246 N 
HETATM   12  O1  UNL     1      10.568 105.481  15.220  1.00  0.00    -0.228 OA
ATOM     13  H2  UNL     1       8.195 107.520  14.581  1.00  0.00     0.192 HD
BRANCH  11  14
HETATM   14  N1  UNL     1       9.961 108.008  15.594  1.00  0.00    -0.340 N 
ATOM     15  H12 UNL     1      10.012 107.978  16.613  1.00  0.00     0.177 HD
ATOM     16  H11 UNL     1      10.543 108.645  15.050  1.00  0.00     0.177 HD
ENDBRANCH  11  14
ENDBRANCH   1   9
BRANCH   8  17
HETATM   17  N7  UNL     1       6.185 105.890  12.859  1.00  0.00    -0.248 N 
ATOM     18  H7  UNL     1       5.323 106.212  13.298  1.00  0.00     0.196 HD
BRANCH  17  19
HETATM   19  O2  UNL     1       7.087 106.756  12.261  1.00  0.00    -0.288 OA
ATOM     20  H2  UNL     1       7.557 107.320  12.862  1.00  0.00     0.244 HD
ENDBRANCH  17  19
ENDBRANCH   8  17
TORSDOF 4
ENDMDL
