MODEL 1
REMARK VINA RESULT: -5.913404934      0.000      0.000
REMARK  2 active torsions:
REMARK  status: ('A' for Active; 'I' for Inactive)
REMARK    1  A    between atoms: N1_1  and  C1_5 
REMARK    2  A    between atoms: C1_5  and  C2_6 
ROOT
HETATM    1  C2  UNL     1      10.017  10.680  16.896  1.00  0.00     0.013 C 
HETATM    2  C3  UNL     1      10.351   9.566  17.829  1.00  0.00     0.043 C 
HETATM    3  C4  UNL     1      11.144   8.629  16.909  1.00  0.00     0.273 C 
HETATM    4  N2  UNL     1      11.265   9.316  15.637  1.00  0.00     0.089 N 
HETATM    5  C5  UNL     1       9.966   9.370  14.948  1.00  0.00     0.273 C 
HETATM    6  C6  UNL     1       9.060  10.209  15.854  1.00  0.00     0.043 C 
HETATM    7  C7  UNL     1      11.325  10.721  16.088  1.00  0.00     0.283 C 
ENDROOT
BRANCH   1   8
HETATM    8  C1  UNL     1       9.742  11.983  17.505  1.00  0.00     0.240 C 
BRANCH   8   9
HETATM    9  N1  UNL     1       9.911  13.086  16.617  1.00  0.00    -0.079 N 
ATOM     10  H13 UNL     1      10.792  13.564  16.805  1.00  0.00     0.274 HD
ATOM     11  H12 UNL     1      10.091  12.757  15.669  1.00  0.00     0.274 HD
ATOM     12  H11 UNL     1       9.136  13.748  16.625  1.00  0.00     0.274 HD
ENDBRANCH   8   9
ENDBRANCH   1   8
TORSDOF 2
ENDMDL
MODEL 2
REMARK VINA RESULT: -5.587020896      0.746      1.790
REMARK  2 active torsions:
REMARK  status: ('A' for Active; 'I' for Inactive)
REMARK    1  A    between atoms: N1_1  and  C1_5 
REMARK    2  A    between atoms: C1_5  and  C2_6 
ROOT
HETATM    1  C2  UNL     1      10.093  10.754  16.704  1.00  0.00     0.013 C 
HETATM    2  C3  UNL     1       9.091  10.163  15.771  1.00  0.00     0.043 C 
HETATM    3  C4  UNL     1       9.502   8.685  15.782  1.00  0.00     0.273 C 
HETATM    4  N2  UNL     1      10.577   8.570  16.749  1.00  0.00     0.089 N 
HETATM    5  C5  UNL     1      11.802   9.210  16.247  1.00  0.00     0.273 C 
HETATM    6  C6  UNL     1      11.456  10.694  16.101  1.00  0.00     0.043 C 
HETATM    7  C7  UNL     1      10.181   9.606  17.725  1.00  0.00     0.283 C 
ENDROOT
BRANCH   1   8
HETATM    8  C1  UNL     1       9.717  12.006  17.363  1.00  0.00     0.240 C 
BRANCH   8   9
HETATM    9  N1  UNL     1       9.977  13.172  16.585  1.00  0.00    -0.079 N 
ATOM     10  H13 UNL     1      10.925  13.148  16.211  1.00  0.00     0.274 HD
ATOM     11  H12 UNL     1       9.447  13.147  15.715  1.00  0.00     0.274 HD
ATOM     12  H11 UNL     1       9.810  14.048  17.081  1.00  0.00     0.274 HD
ENDBRANCH   8   9
ENDBRANCH   1   8
TORSDOF 2
ENDMDL
MODEL 3
REMARK VINA RESULT: -5.446698560      1.598      3.001
REMARK  2 active torsions:
REMARK  status: ('A' for Active; 'I' for Inactive)
REMARK    1  A    between atoms: N1_1  and  C1_5 
REMARK    2  A    between atoms: C1_5  and  C2_6 
ROOT
HETATM    1  C2  UNL     1       9.594   9.673  15.792  1.00  0.00     0.013 C 
HETATM    2  C3  UNL     1       9.441   9.318  17.231  1.00  0.00     0.043 C 
HETATM    3  C4  UNL     1       9.983  10.580  17.914  1.00  0.00     0.273 C 
HETATM    4  N2  UNL     1      10.280  11.520  16.851  1.00  0.00     0.089 N 
HETATM    5  C5  UNL     1      11.452  11.081  16.078  1.00  0.00     0.273 C 
HETATM    6  C6  UNL     1      11.040   9.755  15.433  1.00  0.00     0.043 C 
HETATM    7  C7  UNL     1       9.234  11.167  15.871  1.00  0.00     0.283 C 
ENDROOT
BRANCH   1   8
HETATM    8  C1  UNL     1       8.718   8.977  14.848  1.00  0.00     0.240 C 
BRANCH   8   9
HETATM    9  N1  UNL     1       7.887   7.987  15.449  1.00  0.00    -0.079 N 
ATOM     10  H13 UNL     1       7.879   7.137  14.885  1.00  0.00     0.274 HD
ATOM     11  H12 UNL     1       8.319   7.626  16.299  1.00  0.00     0.274 HD
ATOM     12  H11 UNL     1       6.935   8.300  15.637  1.00  0.00     0.274 HD
ENDBRANCH   8   9
ENDBRANCH   1   8
TORSDOF 2
ENDMDL
MODEL 4
REMARK VINA RESULT: -5.403328343      1.690      2.991
REMARK  2 active torsions:
REMARK  status: ('A' for Active; 'I' for Inactive)
REMARK    1  A    between atoms: N1_1  and  C1_5 
REMARK    2  A    between atoms: C1_5  and  C2_6 
ROOT
HETATM    1  C2  UNL     1       9.565   9.853  15.706  1.00  0.00     0.013 C 
HETATM    2  C3  UNL     1      10.999   9.632  15.365  1.00  0.00     0.043 C 
HETATM    3  C4  UNL     1      11.670   9.848  16.728  1.00  0.00     0.273 C 
HETATM    4  N2  UNL     1      10.597  10.058  17.680  1.00  0.00     0.089 N 
HETATM    5  C5  UNL     1       9.954  11.364  17.462  1.00  0.00     0.273 C 
HETATM    6  C6  UNL     1       9.336  11.283  16.063  1.00  0.00     0.043 C 
HETATM    7  C7  UNL     1       9.542   9.202  17.099  1.00  0.00     0.283 C 
ENDROOT
BRANCH   1   8
HETATM    8  C1  UNL     1       8.578   9.227  14.824  1.00  0.00     0.240 C 
BRANCH   8   9
HETATM    9  N1  UNL     1       7.961   8.067  15.376  1.00  0.00    -0.079 N 
ATOM     10  H13 UNL     1       7.067   7.885  14.918  1.00  0.00     0.274 HD
ATOM     11  H12 UNL     1       8.469   7.226  15.101  1.00  0.00     0.274 HD
ATOM     12  H11 UNL     1       7.844   8.099  16.389  1.00  0.00     0.274 HD
ENDBRANCH   8   9
ENDBRANCH   1   8
TORSDOF 2
ENDMDL
MODEL 5
REMARK VINA RESULT: -5.295609366      1.537      3.007
REMARK  2 active torsions:
REMARK  status: ('A' for Active; 'I' for Inactive)
REMARK    1  A    between atoms: N1_1  and  C1_5 
REMARK    2  A    between atoms: C1_5  and  C2_6 
ROOT
HETATM    1  C2  UNL     1       9.547   9.712  15.817  1.00  0.00     0.013 C 
HETATM    2  C3  UNL     1       9.392  11.164  16.117  1.00  0.00     0.043 C 
HETATM    3  C4  UNL     1      10.848  11.578  16.364  1.00  0.00     0.273 C 
HETATM    4  N2  UNL     1      11.656  10.404  16.093  1.00  0.00     0.089 N 
HETATM    5  C5  UNL     1      11.462   9.385  17.136  1.00  0.00     0.273 C 
HETATM    6  C6  UNL     1       9.989   8.978  17.038  1.00  0.00     0.043 C 
HETATM    7  C7  UNL     1      10.863   9.766  15.022  1.00  0.00     0.283 C 
ENDROOT
BRANCH   1   8
HETATM    8  C1  UNL     1       8.486   9.091  15.022  1.00  0.00     0.240 C 
BRANCH   8   9
HETATM    9  N1  UNL     1       8.171   7.757  15.414  1.00  0.00    -0.079 N 
ATOM     10  H13 UNL     1       8.201   7.666  16.429  1.00  0.00     0.274 HD
ATOM     11  H12 UNL     1       7.184   7.560  15.252  1.00  0.00     0.274 HD
ATOM     12  H11 UNL     1       8.755   7.045  14.974  1.00  0.00     0.274 HD
ENDBRANCH   8   9
ENDBRANCH   1   8
TORSDOF 2
ENDMDL
