MODEL 1
REMARK VINA RESULT: -6.719601514      0.000      0.000
REMARK  14 active torsions:
REMARK  status: ('A' for Active; 'I' for Inactive)
REMARK    1  A    between atoms: C2_2  and  O2_4 
REMARK    2  A    between atoms: O2_4  and  C3_5 
REMARK    3  A    between atoms: C10_14  and  C11_15 
REMARK    4  A    between atoms: C12_16  and  C13_17 
REMARK    5  A    between atoms: C13_17  and  C16_20 
REMARK    6  A    between atoms: C16_20  and  O5_21 
REMARK    7  A    between atoms: C20_27  and  C21_28 
REMARK    8  A    between atoms: C21_28  and  C22_29 
REMARK    9  A    between atoms: C22_29  and  O7_30 
REMARK   10  A    between atoms: C22_29  and  C23_32 
REMARK   11  A    between atoms: C23_32  and  C24_33 
REMARK   12  A    between atoms: C27_38  and  S1_39 
REMARK   13  A    between atoms: S1_39  and  C28_40 
REMARK   14  A    between atoms: C28_40  and  C29_41 
ROOT
HETATM    1  C3  UNL     1      -1.555   0.643  27.309  1.00  0.00     0.145 C 
HETATM    2  C4  UNL     1      -1.486   1.598  28.387  1.00  0.00     0.168 C 
HETATM    3  O3  UNL     1      -0.954   0.989  29.355  1.00  0.00    -0.294 OA
HETATM    4  C5  UNL     1      -1.718   2.937  28.957  1.00  0.00     0.074 C 
HETATM    5  C6  UNL     1      -0.460   3.483  29.539  1.00  0.00     0.025 C 
HETATM    6  C7  UNL     1       0.111   4.696  28.889  1.00  0.00     0.053 C 
HETATM    7  C8  UNL     1       1.622   4.620  28.863  1.00  0.00     0.018 C 
HETATM    8  C9  UNL     1      -0.372   4.956  27.534  1.00  0.00     0.144 C 
HETATM    9  O4  UNL     1       0.369   5.494  26.736  1.00  0.00    -0.296 OA
HETATM   10  C10 UNL     1      -1.741   4.598  27.057  1.00  0.00     0.058 C 
HETATM   11  C17 UNL     1      -1.573   3.795  25.820  1.00  0.00     0.101 C 
HETATM   12  C18 UNL     1      -2.294   2.495  25.784  1.00  0.00     0.136 C 
HETATM   13  O6  UNL     1      -3.475   2.731  25.604  1.00  0.00    -0.297 OA
HETATM   14  C19 UNL     1      -1.840   1.122  25.917  1.00  0.00     0.103 C 
HETATM   15  C20 UNL     1      -2.696  -0.047  25.732  1.00  0.00     0.009 C 
HETATM   16  C25 UNL     1      -2.842  -0.193  27.218  1.00  0.00     0.030 C 
HETATM   17  C26 UNL     1      -4.028   0.380  27.893  1.00  0.00     0.014 C 
HETATM   18  C27 UNL     1      -2.496   3.907  28.131  1.00  0.00     0.078 C 
ENDROOT
BRANCH  10  19
HETATM   19  C11 UNL     1      -2.414   5.923  26.784  1.00  0.00    -0.011 C 
HETATM   20  C12 UNL     1      -2.907   6.225  25.593  1.00  0.00    -0.019 C 
BRANCH  20  21
HETATM   21  C13 UNL     1      -3.569   7.495  25.270  1.00  0.00    -0.009 C 
HETATM   22  C14 UNL     1      -2.771   8.341  24.281  1.00  0.00     0.021 C 
HETATM   23  C15 UNL     1      -3.832   8.358  26.474  1.00  0.00     0.021 C 
BRANCH  21  24
HETATM   24  C16 UNL     1      -4.932   7.258  24.607  1.00  0.00     0.176 C 
BRANCH  24  25
HETATM   25  O5  UNL     1      -5.390   8.404  23.970  1.00  0.00    -0.400 OA
ATOM     26  H5  UNL     1      -6.284   8.297  23.667  1.00  0.00     0.209 HD
ENDBRANCH  24  25
ENDBRANCH  21  24
ENDBRANCH  20  21
ENDBRANCH  10  19
BRANCH  18  27
HETATM   27  S1  UNL     1      -2.966   5.240  29.336  1.00  0.00    -0.162 SA
BRANCH  27  28
HETATM   28  C28 UNL     1      -3.618   4.473  30.844  1.00  0.00     0.078 C 
BRANCH  28  29
HETATM   29  C29 UNL     1      -2.973   5.197  32.012  1.00  0.00    -0.013 C 
HETATM   30  C30 UNL     1      -2.027   6.284  31.507  1.00  0.00     0.010 C 
HETATM   31  C31 UNL     1      -2.121   4.187  32.751  1.00  0.00     0.010 C 
ENDBRANCH  28  29
ENDBRANCH  27  28
ENDBRANCH  18  27
BRANCH   1  32
HETATM   32  O2  UNL     1      -0.459  -0.290  27.318  1.00  0.00    -0.301 OA
BRANCH  32  33
HETATM   33  C2  UNL     1       0.667  -0.145  26.558  1.00  0.00     0.256 C 
HETATM   34  C1  UNL     1       1.250   1.218  26.424  1.00  0.00     0.126 C 
HETATM   35  O1  UNL     1       1.155  -1.157  26.015  1.00  0.00    -0.266 OA
ENDBRANCH  32  33
ENDBRANCH   1  32
BRANCH  15  36
HETATM   36  C21 UNL     1      -3.921  -0.121  24.959  1.00  0.00     0.038 C 
BRANCH  36  37
HETATM   37  C22 UNL     1      -3.677  -0.813  23.621  1.00  0.00     0.128 C 
BRANCH  37  38
HETATM   38  O7  UNL     1      -3.966  -2.178  23.884  1.00  0.00    -0.395 OA
ATOM     39  H7  UNL     1      -3.111  -2.590  23.921  1.00  0.00     0.210 HD
ENDBRANCH  37  38
BRANCH  37  40
HETATM   40  C23 UNL     1      -4.559  -0.312  22.528  1.00  0.00     0.144 C 
BRANCH  40  41
HETATM   41  C24 UNL     1      -4.083  -0.829  21.231  1.00  0.00     0.175 C 
HETATM   42  O8  UNL     1      -3.119  -1.630  21.202  1.00  0.00    -0.648 OA
HETATM   43  O9  UNL     1      -4.654  -0.474  20.013  1.00  0.00    -0.648 OA
ENDBRANCH  40  41
ENDBRANCH  37  40
ENDBRANCH  36  37
ENDBRANCH  15  36
TORSDOF 14
ENDMDL
MODEL 2
REMARK VINA RESULT: -6.573765815      1.116      1.434
REMARK  14 active torsions:
REMARK  status: ('A' for Active; 'I' for Inactive)
REMARK    1  A    between atoms: C2_2  and  O2_4 
REMARK    2  A    between atoms: O2_4  and  C3_5 
REMARK    3  A    between atoms: C10_14  and  C11_15 
REMARK    4  A    between atoms: C12_16  and  C13_17 
REMARK    5  A    between atoms: C13_17  and  C16_20 
REMARK    6  A    between atoms: C16_20  and  O5_21 
REMARK    7  A    between atoms: C20_27  and  C21_28 
REMARK    8  A    between atoms: C21_28  and  C22_29 
REMARK    9  A    between atoms: C22_29  and  O7_30 
REMARK   10  A    between atoms: C22_29  and  C23_32 
REMARK   11  A    between atoms: C23_32  and  C24_33 
REMARK   12  A    between atoms: C27_38  and  S1_39 
REMARK   13  A    between atoms: S1_39  and  C28_40 
REMARK   14  A    between atoms: C28_40  and  C29_41 
ROOT
HETATM    1  C3  UNL     1      -1.315   0.780  27.528  1.00  0.00     0.145 C 
HETATM    2  C4  UNL     1      -0.940   1.784  28.493  1.00  0.00     0.168 C 
HETATM    3  O3  UNL     1      -0.258   1.185  29.368  1.00  0.00    -0.294 OA
HETATM    4  C5  UNL     1      -0.940   3.169  28.998  1.00  0.00     0.074 C 
HETATM    5  C6  UNL     1       0.452   3.630  29.258  1.00  0.00     0.025 C 
HETATM    6  C7  UNL     1       0.959   4.749  28.413  1.00  0.00     0.053 C 
HETATM    7  C8  UNL     1       2.418   4.535  28.072  1.00  0.00     0.018 C 
HETATM    8  C9  UNL     1       0.213   4.975  27.176  1.00  0.00     0.144 C 
HETATM    9  O4  UNL     1       0.801   5.398  26.201  1.00  0.00    -0.296 OA
HETATM   10  C10 UNL     1      -1.250   4.716  27.028  1.00  0.00     0.058 C 
HETATM   11  C17 UNL     1      -1.418   3.834  25.847  1.00  0.00     0.101 C 
HETATM   12  C18 UNL     1      -2.225   2.603  26.062  1.00  0.00     0.136 C 
HETATM   13  O6  UNL     1      -3.396   2.935  26.119  1.00  0.00    -0.297 OA
HETATM   14  C19 UNL     1      -1.860   1.205  26.197  1.00  0.00     0.103 C 
HETATM   15  C20 UNL     1      -2.822   0.110  26.284  1.00  0.00     0.009 C 
HETATM   16  C25 UNL     1      -2.651   0.060  27.774  1.00  0.00     0.030 C 
HETATM   17  C26 UNL     1      -3.614   0.775  28.641  1.00  0.00     0.014 C 
HETATM   18  C27 UNL     1      -1.804   4.157  28.287  1.00  0.00     0.078 C 
ENDROOT
BRANCH  10  19
HETATM   19  C11 UNL     1      -1.864   6.079  26.808  1.00  0.00    -0.011 C 
HETATM   20  C12 UNL     1      -2.632   6.339  25.761  1.00  0.00    -0.019 C 
BRANCH  20  21
HETATM   21  C13 UNL     1      -3.253   7.643  25.494  1.00  0.00    -0.009 C 
HETATM   22  C14 UNL     1      -4.693   7.519  25.003  1.00  0.00     0.021 C 
HETATM   23  C15 UNL     1      -2.510   8.464  24.475  1.00  0.00     0.021 C 
BRANCH  21  24
HETATM   24  C16 UNL     1      -3.321   8.496  26.766  1.00  0.00     0.176 C 
BRANCH  24  25
HETATM   25  O5  UNL     1      -4.359   8.087  27.594  1.00  0.00    -0.400 OA
ATOM     26  H5  UNL     1      -4.365   8.577  28.408  1.00  0.00     0.209 HD
ENDBRANCH  24  25
ENDBRANCH  21  24
ENDBRANCH  20  21
ENDBRANCH  10  19
BRANCH  18  27
HETATM   27  S1  UNL     1      -1.897   5.592  29.462  1.00  0.00    -0.162 SA
BRANCH  27  28
HETATM   28  C28 UNL     1      -3.495   5.556  30.317  1.00  0.00     0.078 C 
BRANCH  28  29
HETATM   29  C29 UNL     1      -3.236   4.977  31.696  1.00  0.00    -0.013 C 
HETATM   30  C30 UNL     1      -1.765   5.139  32.073  1.00  0.00     0.010 C 
HETATM   31  C31 UNL     1      -3.504   3.489  31.617  1.00  0.00     0.010 C 
ENDBRANCH  28  29
ENDBRANCH  27  28
ENDBRANCH  18  27
BRANCH   1  32
HETATM   32  O2  UNL     1      -0.318  -0.246  27.373  1.00  0.00    -0.301 OA
BRANCH  32  33
HETATM   33  C2  UNL     1       0.665  -0.211  26.424  1.00  0.00     0.256 C 
HETATM   34  C1  UNL     1       0.876  -1.425  25.591  1.00  0.00     0.126 C 
HETATM   35  O1  UNL     1       1.337   0.833  26.301  1.00  0.00    -0.266 OA
ENDBRANCH  32  33
ENDBRANCH   1  32
BRANCH  15  36
HETATM   36  C21 UNL     1      -4.187   0.103  25.796  1.00  0.00     0.038 C 
BRANCH  36  37
HETATM   37  C22 UNL     1      -4.434  -1.098  24.888  1.00  0.00     0.128 C 
BRANCH  37  38
HETATM   38  O7  UNL     1      -5.584  -0.731  24.141  1.00  0.00    -0.395 OA
ATOM     39  H7  UNL     1      -5.538  -1.279  23.366  1.00  0.00     0.210 HD
ENDBRANCH  37  38
BRANCH  37  40
HETATM   40  C23 UNL     1      -3.299  -1.381  23.964  1.00  0.00     0.144 C 
BRANCH  40  41
HETATM   41  C24 UNL     1      -3.792  -1.424  22.573  1.00  0.00     0.175 C 
HETATM   42  O8  UNL     1      -4.042  -2.531  22.041  1.00  0.00    -0.648 OA
HETATM   43  O9  UNL     1      -3.999  -0.284  21.803  1.00  0.00    -0.648 OA
ENDBRANCH  40  41
ENDBRANCH  37  40
ENDBRANCH  36  37
ENDBRANCH  15  36
TORSDOF 14
ENDMDL
MODEL 3
REMARK VINA RESULT: -6.519187551      1.130      1.359
REMARK  14 active torsions:
REMARK  status: ('A' for Active; 'I' for Inactive)
REMARK    1  A    between atoms: C2_2  and  O2_4 
REMARK    2  A    between atoms: O2_4  and  C3_5 
REMARK    3  A    between atoms: C10_14  and  C11_15 
REMARK    4  A    between atoms: C12_16  and  C13_17 
REMARK    5  A    between atoms: C13_17  and  C16_20 
REMARK    6  A    between atoms: C16_20  and  O5_21 
REMARK    7  A    between atoms: C20_27  and  C21_28 
REMARK    8  A    between atoms: C21_28  and  C22_29 
REMARK    9  A    between atoms: C22_29  and  O7_30 
REMARK   10  A    between atoms: C22_29  and  C23_32 
REMARK   11  A    between atoms: C23_32  and  C24_33 
REMARK   12  A    between atoms: C27_38  and  S1_39 
REMARK   13  A    between atoms: S1_39  and  C28_40 
REMARK   14  A    between atoms: C28_40  and  C29_41 
ROOT
HETATM    1  C3  UNL     1      -1.445   0.596  27.451  1.00  0.00     0.145 C 
HETATM    2  C4  UNL     1      -1.022   1.618  28.376  1.00  0.00     0.168 C 
HETATM    3  O3  UNL     1      -0.281   1.039  29.216  1.00  0.00    -0.294 OA
HETATM    4  C5  UNL     1      -1.006   3.010  28.860  1.00  0.00     0.074 C 
HETATM    5  C6  UNL     1       0.394   3.489  29.027  1.00  0.00     0.025 C 
HETATM    6  C7  UNL     1       0.836   4.600  28.136  1.00  0.00     0.053 C 
HETATM    7  C8  UNL     1       2.273   4.395  27.709  1.00  0.00     0.018 C 
HETATM    8  C9  UNL     1       0.014   4.800  26.944  1.00  0.00     0.144 C 
HETATM    9  O4  UNL     1       0.535   5.213  25.929  1.00  0.00    -0.296 OA
HETATM   10  C10 UNL     1      -1.453   4.524  26.891  1.00  0.00     0.058 C 
HETATM   11  C17 UNL     1      -1.683   3.622  25.736  1.00  0.00     0.101 C 
HETATM   12  C18 UNL     1      -2.463   2.386  26.017  1.00  0.00     0.136 C 
HETATM   13  O6  UNL     1      -3.632   2.708  26.142  1.00  0.00    -0.297 OA
HETATM   14  C19 UNL     1      -2.075   0.995  26.150  1.00  0.00     0.103 C 
HETATM   15  C20 UNL     1      -3.018  -0.109  26.313  1.00  0.00     0.009 C 
HETATM   16  C25 UNL     1      -2.755  -0.134  27.790  1.00  0.00     0.030 C 
HETATM   17  C26 UNL     1      -3.671   0.585  28.704  1.00  0.00     0.014 C 
HETATM   18  C27 UNL     1      -1.922   3.979  28.189  1.00  0.00     0.078 C 
ENDROOT
BRANCH  10  19
HETATM   19  C11 UNL     1      -2.094   5.877  26.688  1.00  0.00    -0.011 C 
HETATM   20  C12 UNL     1      -2.879   6.131  25.653  1.00  0.00    -0.019 C 
BRANCH  20  21
HETATM   21  C13 UNL     1      -3.527   7.425  25.404  1.00  0.00    -0.009 C 
HETATM   22  C14 UNL     1      -2.700   8.334  24.499  1.00  0.00     0.021 C 
HETATM   23  C15 UNL     1      -3.817   8.202  26.660  1.00  0.00     0.021 C 
BRANCH  21  24
HETATM   24  C16 UNL     1      -4.873   7.244  24.692  1.00  0.00     0.176 C 
BRANCH  24  25
HETATM   25  O5  UNL     1      -5.259   8.409  24.039  1.00  0.00    -0.400 OA
ATOM     26  H5  UNL     1      -5.743   8.985  24.619  1.00  0.00     0.209 HD
ENDBRANCH  24  25
ENDBRANCH  21  24
ENDBRANCH  20  21
ENDBRANCH  10  19
BRANCH  18  27
HETATM   27  S1  UNL     1      -1.959   5.430  29.346  1.00  0.00    -0.162 SA
BRANCH  27  28
HETATM   28  C28 UNL     1      -3.602   5.545  30.103  1.00  0.00     0.078 C 
BRANCH  28  29
HETATM   29  C29 UNL     1      -3.886   7.022  30.302  1.00  0.00    -0.013 C 
HETATM   30  C30 UNL     1      -2.605   7.837  30.135  1.00  0.00     0.010 C 
HETATM   31  C31 UNL     1      -4.335   7.204  31.737  1.00  0.00     0.010 C 
ENDBRANCH  28  29
ENDBRANCH  27  28
ENDBRANCH  18  27
BRANCH   1  32
HETATM   32  O2  UNL     1      -0.448  -0.423  27.250  1.00  0.00    -0.301 OA
BRANCH  32  33
HETATM   33  C2  UNL     1       0.573  -0.317  26.349  1.00  0.00     0.256 C 
HETATM   34  C1  UNL     1       0.879  -1.497  25.495  1.00  0.00     0.126 C 
HETATM   35  O1  UNL     1       1.201   0.760  26.282  1.00  0.00    -0.266 OA
ENDBRANCH  32  33
ENDBRANCH   1  32
BRANCH  15  36
HETATM   36  C21 UNL     1      -4.410  -0.137  25.910  1.00  0.00     0.038 C 
BRANCH  36  37
HETATM   37  C22 UNL     1      -4.540  -0.437  24.420  1.00  0.00     0.128 C 
BRANCH  37  38
HETATM   38  O7  UNL     1      -4.472   0.842  23.806  1.00  0.00    -0.395 OA
ATOM     39  H7  UNL     1      -3.855   0.722  23.095  1.00  0.00     0.210 HD
ENDBRANCH  37  38
BRANCH  37  40
HETATM   40  C23 UNL     1      -3.448  -1.307  23.897  1.00  0.00     0.144 C 
BRANCH  40  41
HETATM   41  C24 UNL     1      -3.637  -1.523  22.450  1.00  0.00     0.175 C 
HETATM   42  O8  UNL     1      -4.037  -2.638  22.039  1.00  0.00    -0.648 OA
HETATM   43  O9  UNL     1      -3.393  -0.541  21.494  1.00  0.00    -0.648 OA
ENDBRANCH  40  41
ENDBRANCH  37  40
ENDBRANCH  36  37
ENDBRANCH  15  36
TORSDOF 14
ENDMDL
MODEL 4
REMARK VINA RESULT: -6.091244719      2.251      4.240
REMARK  14 active torsions:
REMARK  status: ('A' for Active; 'I' for Inactive)
REMARK    1  A    between atoms: C2_2  and  O2_4 
REMARK    2  A    between atoms: O2_4  and  C3_5 
REMARK    3  A    between atoms: C10_14  and  C11_15 
REMARK    4  A    between atoms: C12_16  and  C13_17 
REMARK    5  A    between atoms: C13_17  and  C16_20 
REMARK    6  A    between atoms: C16_20  and  O5_21 
REMARK    7  A    between atoms: C20_27  and  C21_28 
REMARK    8  A    between atoms: C21_28  and  C22_29 
REMARK    9  A    between atoms: C22_29  and  O7_30 
REMARK   10  A    between atoms: C22_29  and  C23_32 
REMARK   11  A    between atoms: C23_32  and  C24_33 
REMARK   12  A    between atoms: C27_38  and  S1_39 
REMARK   13  A    between atoms: S1_39  and  C28_40 
REMARK   14  A    between atoms: C28_40  and  C29_41 
ROOT
HETATM    1  C3  UNL     1      -3.854   1.219  25.977  1.00  0.00     0.145 C 
HETATM    2  C4  UNL     1      -3.632   1.404  27.389  1.00  0.00     0.168 C 
HETATM    3  O3  UNL     1      -4.456   0.647  27.971  1.00  0.00    -0.294 OA
HETATM    4  C5  UNL     1      -2.933   2.028  28.527  1.00  0.00     0.074 C 
HETATM    5  C6  UNL     1      -2.413   0.987  29.456  1.00  0.00     0.025 C 
HETATM    6  C7  UNL     1      -0.932   0.883  29.590  1.00  0.00     0.053 C 
HETATM    7  C8  UNL     1      -0.513  -0.566  29.716  1.00  0.00     0.018 C 
HETATM    8  C9  UNL     1      -0.169   1.502  28.507  1.00  0.00     0.144 C 
HETATM    9  O4  UNL     1       0.902   1.026  28.191  1.00  0.00    -0.296 OA
HETATM   10  C10 UNL     1      -0.629   2.704  27.748  1.00  0.00     0.058 C 
HETATM   11  C17 UNL     1      -0.574   2.354  26.307  1.00  0.00     0.101 C 
HETATM   12  C18 UNL     1      -1.814   2.610  25.526  1.00  0.00     0.136 C 
HETATM   13  O6  UNL     1      -1.896   3.812  25.346  1.00  0.00    -0.297 OA
HETATM   14  C19 UNL     1      -2.836   1.726  24.999  1.00  0.00     0.103 C 
HETATM   15  C20 UNL     1      -3.935   2.161  24.140  1.00  0.00     0.009 C 
HETATM   16  C25 UNL     1      -4.869   2.165  25.314  1.00  0.00     0.030 C 
HETATM   17  C26 UNL     1      -5.129   3.432  26.034  1.00  0.00     0.014 C 
HETATM   18  C27 UNL     1      -1.971   3.128  28.219  1.00  0.00     0.078 C 
ENDROOT
BRANCH  10  19
HETATM   19  C11 UNL     1       0.361   3.788  28.105  1.00  0.00    -0.011 C 
HETATM   20  C12 UNL     1       0.965   4.516  27.179  1.00  0.00    -0.019 C 
BRANCH  20  21
HETATM   21  C13 UNL     1       1.935   5.581  27.466  1.00  0.00    -0.009 C 
HETATM   22  C14 UNL     1       3.080   5.110  28.360  1.00  0.00     0.021 C 
HETATM   23  C15 UNL     1       1.325   6.784  28.132  1.00  0.00     0.021 C 
BRANCH  21  24
HETATM   24  C16 UNL     1       2.596   6.091  26.180  1.00  0.00     0.176 C 
BRANCH  24  25
HETATM   25  O5  UNL     1       2.753   5.067  25.253  1.00  0.00    -0.400 OA
ATOM     26  H5  UNL     1       3.041   4.264  25.671  1.00  0.00     0.209 HD
ENDBRANCH  24  25
ENDBRANCH  21  24
ENDBRANCH  20  21
ENDBRANCH  10  19
BRANCH  18  27
HETATM   27  S1  UNL     1      -1.680   3.938  29.865  1.00  0.00    -0.162 SA
BRANCH  27  28
HETATM   28  C28 UNL     1      -2.704   5.429  29.981  1.00  0.00     0.078 C 
BRANCH  28  29
HETATM   29  C29 UNL     1      -2.230   6.367  28.886  1.00  0.00    -0.013 C 
HETATM   30  C30 UNL     1      -2.088   7.788  29.427  1.00  0.00     0.010 C 
HETATM   31  C31 UNL     1      -3.315   6.409  27.830  1.00  0.00     0.010 C 
ENDBRANCH  28  29
ENDBRANCH  27  28
ENDBRANCH  18  27
BRANCH   1  32
HETATM   32  O2  UNL     1      -4.264  -0.120  25.646  1.00  0.00    -0.301 OA
BRANCH  32  33
HETATM   33  C2  UNL     1      -3.443  -1.042  25.061  1.00  0.00     0.256 C 
HETATM   34  C1  UNL     1      -3.833  -1.583  23.731  1.00  0.00     0.126 C 
HETATM   35  O1  UNL     1      -2.407  -1.387  25.667  1.00  0.00    -0.266 OA
ENDBRANCH  32  33
ENDBRANCH   1  32
BRANCH  15  36
HETATM   36  C21 UNL     1      -3.970   3.336  23.292  1.00  0.00     0.038 C 
BRANCH  36  37
HETATM   37  C22 UNL     1      -4.450   2.979  21.888  1.00  0.00     0.128 C 
BRANCH  37  38
HETATM   38  O7  UNL     1      -3.613   3.744  21.035  1.00  0.00    -0.395 OA
ATOM     39  H7  UNL     1      -2.984   3.113  20.706  1.00  0.00     0.210 HD
ENDBRANCH  37  38
BRANCH  37  40
HETATM   40  C23 UNL     1      -4.311   1.530  21.568  1.00  0.00     0.144 C 
BRANCH  40  41
HETATM   41  C24 UNL     1      -5.081   1.215  20.350  1.00  0.00     0.175 C 
HETATM   42  O8  UNL     1      -5.708   2.129  19.763  1.00  0.00    -0.648 OA
HETATM   43  O9  UNL     1      -5.155  -0.062  19.802  1.00  0.00    -0.648 OA
ENDBRANCH  40  41
ENDBRANCH  37  40
ENDBRANCH  36  37
ENDBRANCH  15  36
TORSDOF 14
ENDMDL
MODEL 5
REMARK VINA RESULT: -6.048710187      3.175      6.395
REMARK  14 active torsions:
REMARK  status: ('A' for Active; 'I' for Inactive)
REMARK    1  A    between atoms: C2_2  and  O2_4 
REMARK    2  A    between atoms: O2_4  and  C3_5 
REMARK    3  A    between atoms: C10_14  and  C11_15 
REMARK    4  A    between atoms: C12_16  and  C13_17 
REMARK    5  A    between atoms: C13_17  and  C16_20 
REMARK    6  A    between atoms: C16_20  and  O5_21 
REMARK    7  A    between atoms: C20_27  and  C21_28 
REMARK    8  A    between atoms: C21_28  and  C22_29 
REMARK    9  A    between atoms: C22_29  and  O7_30 
REMARK   10  A    between atoms: C22_29  and  C23_32 
REMARK   11  A    between atoms: C23_32  and  C24_33 
REMARK   12  A    between atoms: C27_38  and  S1_39 
REMARK   13  A    between atoms: S1_39  and  C28_40 
REMARK   14  A    between atoms: C28_40  and  C29_41 
ROOT
HETATM    1  C3  UNL     1      -3.392   5.832  25.711  1.00  0.00     0.145 C 
HETATM    2  C4  UNL     1      -2.823   5.494  26.992  1.00  0.00     0.168 C 
HETATM    3  O3  UNL     1      -3.688   4.786  27.577  1.00  0.00    -0.294 OA
HETATM    4  C5  UNL     1      -1.741   5.545  27.990  1.00  0.00     0.074 C 
HETATM    5  C6  UNL     1      -1.364   4.171  28.424  1.00  0.00     0.025 C 
HETATM    6  C7  UNL     1       0.011   3.710  28.081  1.00  0.00     0.053 C 
HETATM    7  C8  UNL     1      -0.001   2.245  27.701  1.00  0.00     0.018 C 
HETATM    8  C9  UNL     1       0.669   4.467  27.017  1.00  0.00     0.144 C 
HETATM    9  O4  UNL     1       1.455   3.900  26.287  1.00  0.00    -0.296 OA
HETATM   10  C10 UNL     1       0.433   5.921  26.763  1.00  0.00     0.058 C 
HETATM   11  C17 UNL     1       0.067   6.057  25.332  1.00  0.00     0.101 C 
HETATM   12  C18 UNL     1      -1.180   6.816  25.047  1.00  0.00     0.136 C 
HETATM   13  O6  UNL     1      -0.939   7.999  25.213  1.00  0.00    -0.297 OA
HETATM   14  C19 UNL     1      -2.508   6.397  24.639  1.00  0.00     0.103 C 
HETATM   15  C20 UNL     1      -3.588   7.315  24.287  1.00  0.00     0.009 C 
HETATM   16  C25 UNL     1      -4.200   7.139  25.645  1.00  0.00     0.030 C 
HETATM   17  C26 UNL     1      -3.909   8.126  26.708  1.00  0.00     0.014 C 
HETATM   18  C27 UNL     1      -0.587   6.448  27.703  1.00  0.00     0.078 C 
ENDROOT
BRANCH  10  19
HETATM   19  C11 UNL     1       1.752   6.586  27.076  1.00  0.00    -0.011 C 
HETATM   20  C12 UNL     1       2.221   7.587  26.346  1.00  0.00    -0.019 C 
BRANCH  20  21
HETATM   21  C13 UNL     1       3.495   8.271  26.601  1.00  0.00    -0.009 C 
HETATM   22  C14 UNL     1       4.355   7.549  27.635  1.00  0.00     0.021 C 
HETATM   23  C15 UNL     1       3.329   9.688  27.080  1.00  0.00     0.021 C 
BRANCH  21  24
HETATM   24  C16 UNL     1       4.349   8.345  25.330  1.00  0.00     0.176 C 
BRANCH  24  25
HETATM   25  O5  UNL     1       3.964   7.381  24.406  1.00  0.00    -0.400 OA
ATOM     26  H5  UNL     1       4.402   6.553  24.569  1.00  0.00     0.209 HD
ENDBRANCH  24  25
ENDBRANCH  21  24
ENDBRANCH  20  21
ENDBRANCH  10  19
BRANCH  18  27
HETATM   27  S1  UNL     1       0.281   6.593  29.338  1.00  0.00    -0.162 SA
BRANCH  27  28
HETATM   28  C28 UNL     1       0.060   8.275  29.980  1.00  0.00     0.078 C 
BRANCH  28  29
HETATM   29  C29 UNL     1      -0.846   8.997  29.001  1.00  0.00    -0.013 C 
HETATM   30  C30 UNL     1      -0.079  10.107  28.286  1.00  0.00     0.010 C 
HETATM   31  C31 UNL     1      -1.935   9.670  29.809  1.00  0.00     0.010 C 
ENDBRANCH  28  29
ENDBRANCH  27  28
ENDBRANCH  18  27
BRANCH   1  32
HETATM   32  O2  UNL     1      -4.242   4.797  25.185  1.00  0.00    -0.301 OA
BRANCH  32  33
HETATM   33  C2  UNL     1      -3.799   3.789  24.376  1.00  0.00     0.256 C 
HETATM   34  C1  UNL     1      -3.214   2.582  25.019  1.00  0.00     0.126 C 
HETATM   35  O1  UNL     1      -3.906   3.926  23.140  1.00  0.00    -0.266 OA
ENDBRANCH  32  33
ENDBRANCH   1  32
BRANCH  15  36
HETATM   36  C21 UNL     1      -3.456   8.681  23.817  1.00  0.00     0.038 C 
BRANCH  36  37
HETATM   37  C22 UNL     1      -4.155   8.863  22.473  1.00  0.00     0.128 C 
BRANCH  37  38
HETATM   38  O7  UNL     1      -3.122   9.312  21.608  1.00  0.00    -0.395 OA
ATOM     39  H7  UNL     1      -2.323   9.086  22.070  1.00  0.00     0.210 HD
ENDBRANCH  37  38
BRANCH  37  40
HETATM   40  C23 UNL     1      -4.749   7.604  21.942  1.00  0.00     0.144 C 
BRANCH  40  41
HETATM   41  C24 UNL     1      -4.414   7.463  20.511  1.00  0.00     0.175 C 
HETATM   42  O8  UNL     1      -3.649   6.540  20.144  1.00  0.00    -0.648 OA
HETATM   43  O9  UNL     1      -4.908   8.312  19.526  1.00  0.00    -0.648 OA
ENDBRANCH  40  41
ENDBRANCH  37  40
ENDBRANCH  36  37
ENDBRANCH  15  36
TORSDOF 14
ENDMDL
