MODEL 1
REMARK VINA RESULT: -9.788027446      0.000      0.000
REMARK  14 active torsions:
REMARK  status: ('A' for Active; 'I' for Inactive)
REMARK    1  A    between atoms: C2_2  and  C14_39 
REMARK    2  A    between atoms: N1_3  and  N2_5 
REMARK       I    between atoms: N2_5  and  C3_7 
REMARK    3  A    between atoms: C3_7  and  C4_9 
REMARK    4  A    between atoms: N3_11  and  C6_12 
REMARK    5  A    between atoms: C6_12  and  C7_13 
REMARK    6  A    between atoms: C7_13  and  O2_14 
REMARK    7  A    between atoms: C7_13  and  C8_16 
REMARK    8  A    between atoms: C8_16  and  O3_17 
REMARK    9  A    between atoms: C8_16  and  C9_19 
REMARK   10  A    between atoms: C10_22  and  C11_23 
REMARK       I    between atoms: C11_23  and  N5_25 
REMARK   11  A    between atoms: N5_25  and  N6_27 
REMARK   12  A    between atoms: C13_31  and  O5_32 
REMARK   13  A    between atoms: C15_40  and  O7_41 
REMARK   14  A    between atoms: N10_43  and  C16_44 
ROOT
HETATM    1  N6  UNL     1     -17.798  18.122   0.226  1.00  0.00    -0.234 N 
ATOM      2  H6  UNL     1     -17.579  17.849   1.184  1.00  0.00     0.199 HD
HETATM    3  C12 UNL     1     -18.173  17.161  -0.706  1.00  0.00     0.198 C 
HETATM    4  N7  UNL     1     -18.467  16.365  -1.496  1.00  0.00    -0.170 NA
ENDROOT
BRANCH   1   5
HETATM    5  N5  UNL     1     -17.722  19.460  -0.156  1.00  0.00    -0.255 N 
HETATM    6  C11 UNL     1     -18.279  20.457   0.658  1.00  0.00     0.292 C 
HETATM    7  O4  UNL     1     -18.845  20.086   1.742  1.00  0.00    -0.264 OA
ATOM      8  H5  UNL     1     -17.260  19.715  -1.030  1.00  0.00     0.191 HD
BRANCH   6   9
HETATM    9  C10 UNL     1     -18.265  21.870   0.370  1.00  0.00     0.163 A 
HETATM   10  N4  UNL     1     -18.738  22.852   1.197  1.00  0.00    -0.329 N 
HETATM   11  C9  UNL     1     -18.556  24.018   0.587  1.00  0.00     0.159 A 
ATOM     12  H4  UNL     1     -19.156  22.713   2.117  1.00  0.00     0.168 HD
HETATM   13  O6  UNL     1     -17.995  23.799  -0.576  1.00  0.00    -0.270 OA
HETATM   14  C13 UNL     1     -17.800  22.496  -0.747  1.00  0.00     0.218 A 
BRANCH  11  15
HETATM   15  C8  UNL     1     -18.939  25.362   1.151  1.00  0.00     0.223 C 
BRANCH  15  16
HETATM   16  C7  UNL     1     -18.336  25.521   2.517  1.00  0.00     0.174 C 
BRANCH  16  17
HETATM   17  C6  UNL     1     -16.940  25.032   2.673  1.00  0.00     0.184 C 
BRANCH  17  18
HETATM   18  N3  UNL     1     -16.548  24.612   3.980  1.00  0.00    -0.284 N 
HETATM   19  C5  UNL     1     -16.267  23.360   4.353  1.00  0.00     0.148 A 
HETATM   20  C4  UNL     1     -15.928  23.395   5.688  1.00  0.00     0.136 A 
HETATM   21  N9  UNL     1     -16.009  24.677   6.105  1.00  0.00    -0.280 N 
HETATM   22  N8  UNL     1     -16.383  25.386   5.063  1.00  0.00    -0.240 N 
ATOM     23  H9  UNL     1     -15.818  25.027   7.044  1.00  0.00     0.189 HD
ATOM     24  H8  UNL     1     -16.530  26.396   5.076  1.00  0.00     0.208 HD
BRANCH  20  25
HETATM   25  C3  UNL     1     -15.548  22.226   6.473  1.00  0.00     0.289 C 
HETATM   26  N2  UNL     1     -14.156  21.872   6.531  1.00  0.00    -0.264 N 
ATOM     27  H2  UNL     1     -13.472  22.438   6.029  1.00  0.00     0.190 HD
HETATM   28  O1  UNL     1     -16.415  21.564   7.068  1.00  0.00    -0.264 OA
BRANCH  26  29
HETATM   29  N1  UNL     1     -13.739  20.784   7.250  1.00  0.00    -0.301 N 
HETATM   30  C2  UNL     1     -12.970  20.853   8.265  1.00  0.00     0.042 C 
HETATM   31  C1  UNL     1     -12.472  22.162   8.738  1.00  0.00     0.071 C 
ATOM     32  H1  UNL     1     -14.062  19.862   6.955  1.00  0.00     0.186 HD
BRANCH  30  33
HETATM   33  C14 UNL     1     -12.566  19.618   8.975  1.00  0.00     0.109 A 
HETATM   34  C15 UNL     1     -12.493  19.356  10.311  1.00  0.00     0.181 A 
HETATM   35  N10 UNL     1     -12.078  18.080  10.536  1.00  0.00    -0.208 N 
HETATM   36  N14 UNL     1     -11.896  17.560   9.327  1.00  0.00    -0.255 N 
HETATM   37  C18 UNL     1     -12.178  18.447   8.358  1.00  0.00     0.277 A 
ATOM     38  H14 UNL     1     -11.582  16.605   9.156  1.00  0.00     0.191 HD
HETATM   39  O9  UNL     1     -12.117  18.298   7.110  1.00  0.00    -0.266 OA
BRANCH  34  40
HETATM   40  O7  UNL     1     -12.792  20.238  11.338  1.00  0.00    -0.344 OA
ATOM     41  H7  UNL     1     -12.965  20.009  12.243  1.00  0.00     0.219 HD
ENDBRANCH  34  40
BRANCH  35  42
HETATM   42  C16 UNL     1     -11.880  17.468  11.799  1.00  0.00     0.197 A 
HETATM   43  N11 UNL     1     -12.598  17.654  12.911  1.00  0.00    -0.220 N 
HETATM   44  O8  UNL     1     -12.098  16.897  13.871  1.00  0.00    -0.153 OA
ATOM     45  H11 UNL     1     -13.400  18.278  13.003  1.00  0.00     0.198 HD
HETATM   46  N12 UNL     1     -11.081  16.216  13.449  1.00  0.00    -0.222 N 
HETATM   47  C17 UNL     1     -10.907  16.542  12.156  1.00  0.00     0.169 A 
ATOM     48  H12 UNL     1     -10.520  15.560  13.992  1.00  0.00     0.198 HD
HETATM   49  N13 UNL     1     -10.007  16.081  11.406  1.00  0.00    -0.381 N 
ATOM     50 2H13 UNL     1      -9.876  16.328  10.425  1.00  0.00     0.157 HD
ATOM     51 1H13 UNL     1      -9.294  15.401  11.668  1.00  0.00     0.157 HD
ENDBRANCH  35  42
ENDBRANCH  30  33
ENDBRANCH  26  29
ENDBRANCH  20  25
ENDBRANCH  17  18
ENDBRANCH  16  17
BRANCH  16  52
HETATM   52  O2  UNL     1     -19.234  24.973   3.447  1.00  0.00    -0.391 OA
ATOM     53  H2  UNL     1     -20.062  25.438   3.498  1.00  0.00     0.210 HD
ENDBRANCH  16  52
ENDBRANCH  15  16
BRANCH  15  54
HETATM   54  O3  UNL     1     -18.522  26.311   0.230  1.00  0.00    -0.385 OA
ATOM     55  H3  UNL     1     -18.862  26.179  -0.647  1.00  0.00     0.210 HD
ENDBRANCH  15  54
ENDBRANCH  11  15
BRANCH  14  56
HETATM   56  O5  UNL     1     -17.217  21.937  -1.890  1.00  0.00    -0.339 OA
ATOM     57  H5  UNL     1     -16.301  21.762  -2.066  1.00  0.00     0.220 HD
ENDBRANCH  14  56
ENDBRANCH   6   9
ENDBRANCH   1   5
TORSDOF 14
ENDMDL
MODEL 2
REMARK VINA RESULT: -9.704075989      3.434      5.569
REMARK  14 active torsions:
REMARK  status: ('A' for Active; 'I' for Inactive)
REMARK    1  A    between atoms: C2_2  and  C14_39 
REMARK    2  A    between atoms: N1_3  and  N2_5 
REMARK       I    between atoms: N2_5  and  C3_7 
REMARK    3  A    between atoms: C3_7  and  C4_9 
REMARK    4  A    between atoms: N3_11  and  C6_12 
REMARK    5  A    between atoms: C6_12  and  C7_13 
REMARK    6  A    between atoms: C7_13  and  O2_14 
REMARK    7  A    between atoms: C7_13  and  C8_16 
REMARK    8  A    between atoms: C8_16  and  O3_17 
REMARK    9  A    between atoms: C8_16  and  C9_19 
REMARK   10  A    between atoms: C10_22  and  C11_23 
REMARK       I    between atoms: C11_23  and  N5_25 
REMARK   11  A    between atoms: N5_25  and  N6_27 
REMARK   12  A    between atoms: C13_31  and  O5_32 
REMARK   13  A    between atoms: C15_40  and  O7_41 
REMARK   14  A    between atoms: N10_43  and  C16_44 
ROOT
HETATM    1  N6  UNL     1     -19.847  20.733   5.056  1.00  0.00    -0.234 N 
ATOM      2  H6  UNL     1     -20.298  19.841   4.851  1.00  0.00     0.199 HD
HETATM    3  C12 UNL     1     -18.797  20.792   5.966  1.00  0.00     0.198 C 
HETATM    4  N7  UNL     1     -17.935  20.856   6.738  1.00  0.00    -0.170 NA
ENDROOT
BRANCH   1   5
HETATM    5  N5  UNL     1     -20.278  21.898   4.424  1.00  0.00    -0.255 N 
HETATM    6  C11 UNL     1     -21.522  22.456   4.754  1.00  0.00     0.292 C 
HETATM    7  O4  UNL     1     -22.222  21.859   5.641  1.00  0.00    -0.264 OA
ATOM      8  H5  UNL     1     -19.689  22.345   3.722  1.00  0.00     0.191 HD
BRANCH   6   9
HETATM    9  C10 UNL     1     -22.076  23.653   4.171  1.00  0.00     0.163 A 
HETATM   10  N4  UNL     1     -21.795  24.130   2.920  1.00  0.00    -0.329 N 
HETATM   11  C9  UNL     1     -22.491  25.248   2.747  1.00  0.00     0.159 A 
ATOM     12  H4  UNL     1     -21.164  23.703   2.243  1.00  0.00     0.168 HD
HETATM   13  O6  UNL     1     -23.185  25.483   3.831  1.00  0.00    -0.270 OA
HETATM   14  C13 UNL     1     -22.959  24.529   4.728  1.00  0.00     0.218 A 
BRANCH  11  15
HETATM   15  C8  UNL     1     -22.471  26.098   1.501  1.00  0.00     0.223 C 
BRANCH  15  16
HETATM   16  C7  UNL     1     -21.323  27.064   1.573  1.00  0.00     0.174 C 
BRANCH  16  17
HETATM   17  C6  UNL     1     -20.204  26.816   0.625  1.00  0.00     0.184 C 
BRANCH  17  18
HETATM   18  N3  UNL     1     -19.472  25.603   0.797  1.00  0.00    -0.284 N 
HETATM   19  C5  UNL     1     -18.998  25.127   1.953  1.00  0.00     0.148 A 
HETATM   20  C4  UNL     1     -18.362  23.936   1.677  1.00  0.00     0.136 A 
HETATM   21  N9  UNL     1     -18.463  23.708   0.349  1.00  0.00    -0.280 N 
HETATM   22  N8  UNL     1     -19.130  24.722  -0.155  1.00  0.00    -0.240 N 
ATOM     23  H9  UNL     1     -18.092  22.907  -0.162  1.00  0.00     0.189 HD
ATOM     24  H8  UNL     1     -19.360  24.826  -1.144  1.00  0.00     0.208 HD
BRANCH  20  25
HETATM   25  C3  UNL     1     -17.714  23.097   2.678  1.00  0.00     0.289 C 
HETATM   26  N2  UNL     1     -16.864  23.733   3.647  1.00  0.00    -0.264 N 
ATOM     27  H2  UNL     1     -16.735  24.745   3.616  1.00  0.00     0.190 HD
HETATM   28  O1  UNL     1     -17.899  21.868   2.680  1.00  0.00    -0.264 OA
BRANCH  26  29
HETATM   29  N1  UNL     1     -16.226  22.999   4.611  1.00  0.00    -0.301 N 
HETATM   30  C2  UNL     1     -15.771  23.489   5.696  1.00  0.00     0.042 C 
HETATM   31  C1  UNL     1     -15.915  24.933   5.983  1.00  0.00     0.071 C 
ATOM     32  H1  UNL     1     -16.108  21.998   4.451  1.00  0.00     0.186 HD
BRANCH  30  33
HETATM   33  C14 UNL     1     -15.088  22.615   6.677  1.00  0.00     0.109 A 
HETATM   34  C15 UNL     1     -14.343  21.489   6.483  1.00  0.00     0.181 A 
HETATM   35  N10 UNL     1     -13.891  20.995   7.667  1.00  0.00    -0.208 N 
HETATM   36  N14 UNL     1     -14.361  21.826   8.589  1.00  0.00    -0.255 N 
HETATM   37  C18 UNL     1     -15.087  22.815   8.042  1.00  0.00     0.277 A 
ATOM     38  H14 UNL     1     -14.193  21.725   9.590  1.00  0.00     0.191 HD
HETATM   39  O9  UNL     1     -15.676  23.770   8.612  1.00  0.00    -0.266 OA
BRANCH  34  40
HETATM   40  O7  UNL     1     -14.061  20.893   5.264  1.00  0.00    -0.344 OA
ATOM     41  H7  UNL     1     -13.979  19.961   5.101  1.00  0.00     0.219 HD
ENDBRANCH  34  40
BRANCH  35  42
HETATM   42  C16 UNL     1     -13.098  19.834   7.846  1.00  0.00     0.197 A 
HETATM   43  N11 UNL     1     -13.521  18.600   8.139  1.00  0.00    -0.220 N 
HETATM   44  O8  UNL     1     -12.474  17.799   8.216  1.00  0.00    -0.153 OA
ATOM     45  H11 UNL     1     -14.493  18.323   8.279  1.00  0.00     0.198 HD
HETATM   46  N12 UNL     1     -11.373  18.442   7.988  1.00  0.00    -0.222 N 
HETATM   47  C17 UNL     1     -11.715  19.721   7.752  1.00  0.00     0.169 A 
ATOM     48  H12 UNL     1     -10.430  18.054   7.988  1.00  0.00     0.198 HD
HETATM   49  N13 UNL     1     -10.909  20.652   7.493  1.00  0.00    -0.381 N 
ATOM     50 2H13 UNL     1     -11.169  21.622   7.314  1.00  0.00     0.157 HD
ATOM     51 1H13 UNL     1      -9.895  20.569   7.424  1.00  0.00     0.157 HD
ENDBRANCH  35  42
ENDBRANCH  30  33
ENDBRANCH  26  29
ENDBRANCH  20  25
ENDBRANCH  17  18
ENDBRANCH  16  17
BRANCH  16  52
HETATM   52  O2  UNL     1     -20.919  27.147   2.915  1.00  0.00    -0.391 OA
ATOM     53  H2  UNL     1     -21.193  26.406   3.443  1.00  0.00     0.210 HD
ENDBRANCH  16  52
ENDBRANCH  15  16
BRANCH  15  54
HETATM   54  O3  UNL     1     -22.413  25.223   0.427  1.00  0.00    -0.385 OA
ATOM     55  H3  UNL     1     -22.717  24.345   0.622  1.00  0.00     0.210 HD
ENDBRANCH  15  54
ENDBRANCH  11  15
BRANCH  14  56
HETATM   56  O5  UNL     1     -23.554  24.491   5.994  1.00  0.00    -0.339 OA
ATOM     57  H5  UNL     1     -24.464  24.632   6.230  1.00  0.00     0.220 HD
ENDBRANCH  14  56
ENDBRANCH   6   9
ENDBRANCH   1   5
TORSDOF 14
ENDMDL
MODEL 3
REMARK VINA RESULT: -9.494632181      1.950      2.720
REMARK  14 active torsions:
REMARK  status: ('A' for Active; 'I' for Inactive)
REMARK    1  A    between atoms: C2_2  and  C14_39 
REMARK    2  A    between atoms: N1_3  and  N2_5 
REMARK       I    between atoms: N2_5  and  C3_7 
REMARK    3  A    between atoms: C3_7  and  C4_9 
REMARK    4  A    between atoms: N3_11  and  C6_12 
REMARK    5  A    between atoms: C6_12  and  C7_13 
REMARK    6  A    between atoms: C7_13  and  O2_14 
REMARK    7  A    between atoms: C7_13  and  C8_16 
REMARK    8  A    between atoms: C8_16  and  O3_17 
REMARK    9  A    between atoms: C8_16  and  C9_19 
REMARK   10  A    between atoms: C10_22  and  C11_23 
REMARK       I    between atoms: C11_23  and  N5_25 
REMARK   11  A    between atoms: N5_25  and  N6_27 
REMARK   12  A    between atoms: C13_31  and  O5_32 
REMARK   13  A    between atoms: C15_40  and  O7_41 
REMARK   14  A    between atoms: N10_43  and  C16_44 
ROOT
HETATM    1  N6  UNL     1     -17.716  17.817   0.268  1.00  0.00    -0.234 N 
ATOM      2  H6  UNL     1     -16.828  17.366   0.488  1.00  0.00     0.199 HD
HETATM    3  C12 UNL     1     -18.846  17.049   0.013  1.00  0.00     0.198 C 
HETATM    4  N7  UNL     1     -19.790  16.418  -0.220  1.00  0.00    -0.170 NA
ENDROOT
BRANCH   1   5
HETATM    5  N5  UNL     1     -17.802  19.208   0.221  1.00  0.00    -0.255 N 
HETATM    6  C11 UNL     1     -17.611  19.883  -0.993  1.00  0.00     0.292 C 
HETATM    7  O4  UNL     1     -17.360  19.178  -2.030  1.00  0.00    -0.264 OA
ATOM      8  H5  UNL     1     -18.005  19.734   1.070  1.00  0.00     0.191 HD
BRANCH   6   9
HETATM    9  C10 UNL     1     -17.674  21.313  -1.168  1.00  0.00     0.163 A 
HETATM   10  N4  UNL     1     -18.213  22.198  -0.275  1.00  0.00    -0.329 N 
HETATM   11  C9  UNL     1     -18.090  23.417  -0.787  1.00  0.00     0.159 A 
ATOM     12  H4  UNL     1     -18.635  21.963   0.623  1.00  0.00     0.168 HD
HETATM   13  O6  UNL     1     -17.501  23.324  -1.953  1.00  0.00    -0.270 OA
HETATM   14  C13 UNL     1     -17.231  22.052  -2.223  1.00  0.00     0.218 A 
BRANCH  11  15
HETATM   15  C8  UNL     1     -18.557  24.688  -0.125  1.00  0.00     0.223 C 
BRANCH  15  16
HETATM   16  C7  UNL     1     -18.268  24.621   1.347  1.00  0.00     0.174 C 
BRANCH  16  17
HETATM   17  C6  UNL     1     -19.449  24.446   2.234  1.00  0.00     0.184 C 
BRANCH  17  18
HETATM   18  N3  UNL     1     -19.358  23.429   3.232  1.00  0.00    -0.284 N 
HETATM   19  C5  UNL     1     -18.336  23.240   4.073  1.00  0.00     0.148 A 
HETATM   20  C4  UNL     1     -18.654  22.163   4.871  1.00  0.00     0.136 A 
HETATM   21  N9  UNL     1     -19.872  21.714   4.498  1.00  0.00    -0.280 N 
HETATM   22  N8  UNL     1     -20.272  22.489   3.515  1.00  0.00    -0.240 N 
ATOM     23  H9  UNL     1     -20.382  20.927   4.901  1.00  0.00     0.189 HD
ATOM     24  H8  UNL     1     -21.163  22.388   3.028  1.00  0.00     0.208 HD
BRANCH  20  25
HETATM   25  C3  UNL     1     -17.796  21.638   5.926  1.00  0.00     0.289 C 
HETATM   26  N2  UNL     1     -16.548  22.306   6.180  1.00  0.00    -0.264 N 
ATOM     27  H2  UNL     1     -16.293  23.123   5.625  1.00  0.00     0.190 HD
HETATM   28  O1  UNL     1     -18.146  20.640   6.579  1.00  0.00    -0.264 OA
BRANCH  26  29
HETATM   29  N1  UNL     1     -15.699  21.858   7.157  1.00  0.00    -0.301 N 
HETATM   30  C2  UNL     1     -14.556  21.340   6.926  1.00  0.00     0.042 C 
HETATM   31  C1  UNL     1     -14.070  21.192   5.537  1.00  0.00     0.071 C 
ATOM     32  H1  UNL     1     -15.998  21.945   8.128  1.00  0.00     0.186 HD
BRANCH  30  33
HETATM   33  C14 UNL     1     -13.710  20.879   8.049  1.00  0.00     0.109 A 
HETATM   34  C15 UNL     1     -13.452  19.616   8.496  1.00  0.00     0.181 A 
HETATM   35  N10 UNL     1     -12.607  19.639   9.561  1.00  0.00    -0.208 N 
HETATM   36  N14 UNL     1     -12.346  20.925   9.765  1.00  0.00    -0.255 N 
HETATM   37  C18 UNL     1     -12.986  21.708   8.881  1.00  0.00     0.277 A 
ATOM     38  H14 UNL     1     -11.735  21.276  10.503  1.00  0.00     0.191 HD
HETATM   39  O9  UNL     1     -12.970  22.962   8.780  1.00  0.00    -0.266 OA
BRANCH  34  40
HETATM   40  O7  UNL     1     -13.961  18.440   7.968  1.00  0.00    -0.344 OA
ATOM     41  H7  UNL     1     -14.751  17.994   8.249  1.00  0.00     0.219 HD
ENDBRANCH  34  40
BRANCH  35  42
HETATM   42  C16 UNL     1     -12.132  18.516  10.284  1.00  0.00     0.197 A 
HETATM   43  N11 UNL     1     -11.495  17.448   9.796  1.00  0.00    -0.220 N 
HETATM   44  O8  UNL     1     -11.215  16.627  10.792  1.00  0.00    -0.153 OA
ATOM     45  H11 UNL     1     -11.263  17.292   8.814  1.00  0.00     0.198 HD
HETATM   46  N12 UNL     1     -11.636  17.101  11.921  1.00  0.00    -0.222 N 
HETATM   47  C17 UNL     1     -12.218  18.283  11.652  1.00  0.00     0.169 A 
ATOM     48  H12 UNL     1     -11.545  16.662  12.837  1.00  0.00     0.198 HD
HETATM   49  N13 UNL     1     -12.751  19.040  12.504  1.00  0.00    -0.381 N 
ATOM     50 2H13 UNL     1     -13.192  19.937  12.300  1.00  0.00     0.157 HD
ATOM     51 1H13 UNL     1     -12.814  18.869  13.507  1.00  0.00     0.157 HD
ENDBRANCH  35  42
ENDBRANCH  30  33
ENDBRANCH  26  29
ENDBRANCH  20  25
ENDBRANCH  17  18
ENDBRANCH  16  17
BRANCH  16  52
HETATM   52  O2  UNL     1     -17.473  25.731   1.677  1.00  0.00    -0.391 OA
ATOM     53  H2  UNL     1     -16.893  26.006   0.977  1.00  0.00     0.210 HD
ENDBRANCH  16  52
ENDBRANCH  15  16
BRANCH  15  54
HETATM   54  O3  UNL     1     -17.925  25.733  -0.783  1.00  0.00    -0.385 OA
ATOM     55  H3  UNL     1     -17.502  25.483  -1.596  1.00  0.00     0.210 HD
ENDBRANCH  15  54
ENDBRANCH  11  15
BRANCH  14  56
HETATM   56  O5  UNL     1     -16.601  21.620  -3.396  1.00  0.00    -0.339 OA
ATOM     57  H5  UNL     1     -15.717  21.293  -3.512  1.00  0.00     0.220 HD
ENDBRANCH  14  56
ENDBRANCH   6   9
ENDBRANCH   1   5
TORSDOF 14
ENDMDL
MODEL 4
REMARK VINA RESULT: -9.254802944      7.961     12.489
REMARK  14 active torsions:
REMARK  status: ('A' for Active; 'I' for Inactive)
REMARK    1  A    between atoms: C2_2  and  C14_39 
REMARK    2  A    between atoms: N1_3  and  N2_5 
REMARK       I    between atoms: N2_5  and  C3_7 
REMARK    3  A    between atoms: C3_7  and  C4_9 
REMARK    4  A    between atoms: N3_11  and  C6_12 
REMARK    5  A    between atoms: C6_12  and  C7_13 
REMARK    6  A    between atoms: C7_13  and  O2_14 
REMARK    7  A    between atoms: C7_13  and  C8_16 
REMARK    8  A    between atoms: C8_16  and  O3_17 
REMARK    9  A    between atoms: C8_16  and  C9_19 
REMARK   10  A    between atoms: C10_22  and  C11_23 
REMARK       I    between atoms: C11_23  and  N5_25 
REMARK   11  A    between atoms: N5_25  and  N6_27 
REMARK   12  A    between atoms: C13_31  and  O5_32 
REMARK   13  A    between atoms: C15_40  and  O7_41 
REMARK   14  A    between atoms: N10_43  and  C16_44 
ROOT
HETATM    1  N6  UNL     1     -13.281  21.616   7.287  1.00  0.00    -0.234 N 
ATOM      2  H6  UNL     1     -12.317  21.942   7.207  1.00  0.00     0.199 HD
HETATM    3  C12 UNL     1     -13.548  20.318   7.707  1.00  0.00     0.198 C 
HETATM    4  N7  UNL     1     -13.781  19.232   8.038  1.00  0.00    -0.170 NA
ENDROOT
BRANCH   1   5
HETATM    5  N5  UNL     1     -14.337  22.471   6.977  1.00  0.00    -0.255 N 
HETATM    6  C11 UNL     1     -14.906  22.448   5.695  1.00  0.00     0.292 C 
HETATM    7  O4  UNL     1     -14.421  21.624   4.847  1.00  0.00    -0.264 OA
ATOM      8  H5  UNL     1     -14.697  23.114   7.682  1.00  0.00     0.191 HD
BRANCH   6   9
HETATM    9  C10 UNL     1     -15.997  23.282   5.255  1.00  0.00     0.163 A 
HETATM   10  N4  UNL     1     -16.950  22.924   4.341  1.00  0.00    -0.329 N 
HETATM   11  C9  UNL     1     -17.778  23.952   4.195  1.00  0.00     0.159 A 
ATOM     12  H4  UNL     1     -17.012  22.027   3.858  1.00  0.00     0.168 HD
HETATM   13  O6  UNL     1     -17.380  24.925   4.974  1.00  0.00    -0.270 OA
HETATM   14  C13 UNL     1     -16.292  24.555   5.640  1.00  0.00     0.218 A 
BRANCH  11  15
HETATM   15  C8  UNL     1     -18.974  23.979   3.277  1.00  0.00     0.223 C 
BRANCH  15  16
HETATM   16  C7  UNL     1     -19.324  25.403   2.954  1.00  0.00     0.174 C 
BRANCH  16  17
HETATM   17  C6  UNL     1     -20.567  25.604   2.162  1.00  0.00     0.184 C 
BRANCH  17  18
HETATM   18  N3  UNL     1     -21.787  25.709   2.896  1.00  0.00    -0.284 N 
HETATM   19  C5  UNL     1     -22.129  26.708   3.715  1.00  0.00     0.148 A 
HETATM   20  C4  UNL     1     -23.383  26.422   4.211  1.00  0.00     0.136 A 
HETATM   21  N9  UNL     1     -23.783  25.247   3.679  1.00  0.00    -0.280 N 
HETATM   22  N8  UNL     1     -22.809  24.840   2.895  1.00  0.00    -0.240 N 
ATOM     23  H9  UNL     1     -24.667  24.768   3.852  1.00  0.00     0.189 HD
ATOM     24  H8  UNL     1     -22.827  23.974   2.356  1.00  0.00     0.208 HD
BRANCH  20  25
HETATM   25  C3  UNL     1     -24.114  27.274   5.140  1.00  0.00     0.289 C 
HETATM   26  N2  UNL     1     -23.454  27.680   6.351  1.00  0.00    -0.264 N 
ATOM     27  H2  UNL     1     -22.499  27.370   6.531  1.00  0.00     0.190 HD
HETATM   28  O1  UNL     1     -25.277  27.630   4.881  1.00  0.00    -0.264 OA
BRANCH  26  29
HETATM   29  N1  UNL     1     -24.090  28.478   7.264  1.00  0.00    -0.301 N 
HETATM   30  C2  UNL     1     -24.599  28.051   8.352  1.00  0.00     0.042 C 
HETATM   31  C1  UNL     1     -24.523  26.615   8.700  1.00  0.00     0.071 C 
ATOM     32  H1  UNL     1     -24.161  29.476   7.061  1.00  0.00     0.186 HD
BRANCH  30  33
HETATM   33  C14 UNL     1     -25.274  28.991   9.275  1.00  0.00     0.109 A 
HETATM   34  C15 UNL     1     -25.012  29.282  10.581  1.00  0.00     0.181 A 
HETATM   35  N10 UNL     1     -25.879  30.218  11.055  1.00  0.00    -0.208 N 
HETATM   36  N14 UNL     1     -26.674  30.500  10.031  1.00  0.00    -0.255 N 
HETATM   37  C18 UNL     1     -26.349  29.788   8.939  1.00  0.00     0.277 A 
ATOM     38  H14 UNL     1     -27.438  31.175  10.067  1.00  0.00     0.191 HD
HETATM   39  O9  UNL     1     -26.884  29.800   7.800  1.00  0.00    -0.266 OA
BRANCH  34  40
HETATM   40  O7  UNL     1     -24.010  28.725  11.361  1.00  0.00    -0.344 OA
ATOM     41  H7  UNL     1     -23.921  27.807  11.588  1.00  0.00     0.219 HD
ENDBRANCH  34  40
BRANCH  35  42
HETATM   42  C16 UNL     1     -25.908  30.750  12.369  1.00  0.00     0.197 A 
HETATM   43  N11 UNL     1     -25.801  32.034  12.726  1.00  0.00    -0.220 N 
HETATM   44  O8  UNL     1     -25.882  32.116  14.042  1.00  0.00    -0.153 OA
ATOM     45  H11 UNL     1     -25.678  32.820  12.088  1.00  0.00     0.198 HD
HETATM   46  N12 UNL     1     -26.038  30.947  14.577  1.00  0.00    -0.222 N 
HETATM   47  C17 UNL     1     -26.060  30.060  13.566  1.00  0.00     0.169 A 
ATOM     48  H12 UNL     1     -26.127  30.740  15.571  1.00  0.00     0.198 HD
HETATM   49  N13 UNL     1     -26.192  28.815  13.697  1.00  0.00    -0.381 N 
ATOM     50 2H13 UNL     1     -26.208  28.143  12.930  1.00  0.00     0.157 HD
ATOM     51 1H13 UNL     1     -26.304  28.310  14.575  1.00  0.00     0.157 HD
ENDBRANCH  35  42
ENDBRANCH  30  33
ENDBRANCH  26  29
ENDBRANCH  20  25
ENDBRANCH  17  18
ENDBRANCH  16  17
BRANCH  16  52
HETATM   52  O2  UNL     1     -18.189  26.003   2.385  1.00  0.00    -0.391 OA
ATOM     53  H2  UNL     1     -17.386  25.519   2.535  1.00  0.00     0.210 HD
ENDBRANCH  16  52
ENDBRANCH  15  16
BRANCH  15  54
HETATM   54  O3  UNL     1     -18.642  23.209   2.172  1.00  0.00    -0.385 OA
ATOM     55  H3  UNL     1     -17.722  22.978   2.120  1.00  0.00     0.210 HD
ENDBRANCH  15  54
ENDBRANCH  11  15
BRANCH  14  56
HETATM   56  O5  UNL     1     -15.621  25.373   6.557  1.00  0.00    -0.339 OA
ATOM     57  H5  UNL     1     -15.933  25.722   7.383  1.00  0.00     0.220 HD
ENDBRANCH  14  56
ENDBRANCH   6   9
ENDBRANCH   1   5
TORSDOF 14
ENDMDL
MODEL 5
REMARK VINA RESULT: -9.212721928      2.617      3.896
REMARK  14 active torsions:
REMARK  status: ('A' for Active; 'I' for Inactive)
REMARK    1  A    between atoms: C2_2  and  C14_39 
REMARK    2  A    between atoms: N1_3  and  N2_5 
REMARK       I    between atoms: N2_5  and  C3_7 
REMARK    3  A    between atoms: C3_7  and  C4_9 
REMARK    4  A    between atoms: N3_11  and  C6_12 
REMARK    5  A    between atoms: C6_12  and  C7_13 
REMARK    6  A    between atoms: C7_13  and  O2_14 
REMARK    7  A    between atoms: C7_13  and  C8_16 
REMARK    8  A    between atoms: C8_16  and  O3_17 
REMARK    9  A    between atoms: C8_16  and  C9_19 
REMARK   10  A    between atoms: C10_22  and  C11_23 
REMARK       I    between atoms: C11_23  and  N5_25 
REMARK   11  A    between atoms: N5_25  and  N6_27 
REMARK   12  A    between atoms: C13_31  and  O5_32 
REMARK   13  A    between atoms: C15_40  and  O7_41 
REMARK   14  A    between atoms: N10_43  and  C16_44 
ROOT
HETATM    1  N6  UNL     1     -19.796  18.056   3.231  1.00  0.00    -0.234 N 
ATOM      2  H6  UNL     1     -20.271  17.920   4.123  1.00  0.00     0.199 HD
HETATM    3  C12 UNL     1     -19.243  16.971   2.560  1.00  0.00     0.198 C 
HETATM    4  N7  UNL     1     -18.762  16.076   2.002  1.00  0.00    -0.170 NA
ENDROOT
BRANCH   1   5
HETATM    5  N5  UNL     1     -19.697  19.332   2.677  1.00  0.00    -0.255 N 
HETATM    6  C11 UNL     1     -20.744  20.251   2.840  1.00  0.00     0.292 C 
HETATM    7  O4  UNL     1     -21.766  19.872   3.506  1.00  0.00    -0.264 OA
ATOM      8  H5  UNL     1     -18.864  19.597   2.153  1.00  0.00     0.191 HD
BRANCH   6   9
HETATM    9  C10 UNL     1     -20.759  21.595   2.315  1.00  0.00     0.163 A 
HETATM   10  N4  UNL     1     -21.802  22.474   2.417  1.00  0.00    -0.329 N 
HETATM   11  C9  UNL     1     -21.443  23.600   1.812  1.00  0.00     0.159 A 
ATOM     12  H4  UNL     1     -22.696  22.295   2.875  1.00  0.00     0.168 HD
HETATM   13  O6  UNL     1     -20.230  23.456   1.342  1.00  0.00    -0.270 OA
HETATM   14  C13 UNL     1     -19.776  22.241   1.629  1.00  0.00     0.218 A 
BRANCH  11  15
HETATM   15  C8  UNL     1     -22.303  24.833   1.692  1.00  0.00     0.223 C 
BRANCH  15  16
HETATM   16  C7  UNL     1     -22.282  25.586   2.991  1.00  0.00     0.174 C 
BRANCH  16  17
HETATM   17  C6  UNL     1     -21.130  26.506   3.190  1.00  0.00     0.184 C 
BRANCH  17  18
HETATM   18  N3  UNL     1     -19.825  25.940   3.066  1.00  0.00    -0.284 N 
HETATM   19  C5  UNL     1     -19.240  25.113   3.937  1.00  0.00     0.148 A 
HETATM   20  C4  UNL     1     -17.995  24.801   3.436  1.00  0.00     0.136 A 
HETATM   21  N9  UNL     1     -17.846  25.449   2.259  1.00  0.00    -0.280 N 
HETATM   22  N8  UNL     1     -18.956  26.125   2.061  1.00  0.00    -0.240 N 
ATOM     23  H9  UNL     1     -17.032  25.420   1.646  1.00  0.00     0.189 HD
ATOM     24  H8  UNL     1     -19.134  26.715   1.248  1.00  0.00     0.208 HD
BRANCH  20  25
HETATM   25  C3  UNL     1     -17.041  23.916   4.092  1.00  0.00     0.289 C 
HETATM   26  N2  UNL     1     -16.246  24.451   5.163  1.00  0.00    -0.264 N 
ATOM     27  H2  UNL     1     -16.366  25.426   5.440  1.00  0.00     0.190 HD
HETATM   28  O1  UNL     1     -16.927  22.735   3.723  1.00  0.00    -0.264 OA
BRANCH  26  29
HETATM   29  N1  UNL     1     -15.331  23.669   5.817  1.00  0.00    -0.301 N 
HETATM   30  C2  UNL     1     -15.169  23.669   7.082  1.00  0.00     0.042 C 
HETATM   31  C1  UNL     1     -15.993  24.545   7.942  1.00  0.00     0.071 C 
ATOM     32  H1  UNL     1     -14.745  23.050   5.259  1.00  0.00     0.186 HD
BRANCH  30  33
HETATM   33  C14 UNL     1     -14.147  22.792   7.699  1.00  0.00     0.109 A 
HETATM   34  C15 UNL     1     -14.119  21.436   7.836  1.00  0.00     0.181 A 
HETATM   35  N10 UNL     1     -12.981  21.033   8.463  1.00  0.00    -0.208 N 
HETATM   36  N14 UNL     1     -12.310  22.151   8.709  1.00  0.00    -0.255 N 
HETATM   37  C18 UNL     1     -12.971  23.235   8.268  1.00  0.00     0.277 A 
ATOM     38  H14 UNL     1     -11.403  22.185   9.176  1.00  0.00     0.191 HD
HETATM   39  O9  UNL     1     -12.634  24.445   8.332  1.00  0.00    -0.266 OA
BRANCH  34  40
HETATM   40  O7  UNL     1     -15.095  20.548   7.410  1.00  0.00    -0.344 OA
ATOM     41  H7  UNL     1     -15.558  19.921   7.952  1.00  0.00     0.219 HD
ENDBRANCH  34  40
BRANCH  35  42
HETATM   42  C16 UNL     1     -12.622  19.699   8.781  1.00  0.00     0.197 A 
HETATM   43  N11 UNL     1     -12.383  18.698   7.927  1.00  0.00    -0.220 N 
HETATM   44  O8  UNL     1     -12.073  17.616   8.617  1.00  0.00    -0.153 OA
ATOM     45  H11 UNL     1     -12.432  18.761   6.910  1.00  0.00     0.198 HD
HETATM   46  N12 UNL     1     -12.094  17.850   9.891  1.00  0.00    -0.222 N 
HETATM   47  C17 UNL     1     -12.434  19.143  10.041  1.00  0.00     0.169 A 
ATOM     48  H12 UNL     1     -11.893  17.183  10.636  1.00  0.00     0.198 HD
HETATM   49  N13 UNL     1     -12.560  19.737  11.143  1.00  0.00    -0.381 N 
ATOM     50 2H13 UNL     1     -12.817  20.717  11.256  1.00  0.00     0.157 HD
ATOM     51 1H13 UNL     1     -12.421  19.328  12.067  1.00  0.00     0.157 HD
ENDBRANCH  35  42
ENDBRANCH  30  33
ENDBRANCH  26  29
ENDBRANCH  20  25
ENDBRANCH  17  18
ENDBRANCH  16  17
BRANCH  16  52
HETATM   52  O2  UNL     1     -22.446  24.654   4.028  1.00  0.00    -0.391 OA
ATOM     53  H2  UNL     1     -23.333  24.613   4.367  1.00  0.00     0.210 HD
ENDBRANCH  16  52
ENDBRANCH  15  16
BRANCH  15  54
HETATM   54  O3  UNL     1     -21.817  25.550   0.609  1.00  0.00    -0.385 OA
ATOM     55  H3  UNL     1     -21.911  25.107  -0.225  1.00  0.00     0.210 HD
ENDBRANCH  15  54
ENDBRANCH  11  15
BRANCH  14  56
HETATM   56  O5  UNL     1     -18.507  21.776   1.265  1.00  0.00    -0.339 OA
ATOM     57  H5  UNL     1     -18.097  20.943   1.467  1.00  0.00     0.220 HD
ENDBRANCH  14  56
ENDBRANCH   6   9
ENDBRANCH   1   5
TORSDOF 14
ENDMDL
