MODEL 1
REMARK VINA RESULT: -8.126534201      0.000      0.000
REMARK  13 active torsions:
REMARK  status: ('A' for Active; 'I' for Inactive)
REMARK    1  A    between atoms: N1_1  and  C1_4 
REMARK    2  A    between atoms: C2_7  and  N3_8 
REMARK    3  A    between atoms: N3_8  and  N4_10 
REMARK    4  A    between atoms: N5_12  and  N6_14 
REMARK    5  A    between atoms: N6_14  and  O1_15 
REMARK    6  A    between atoms: N6_14  and  N7_17 
REMARK    7  A    between atoms: N7_17  and  O2_21 
REMARK    8  A    between atoms: C3_23  and  O3_24 
REMARK    9  A    between atoms: O3_24  and  C4_25 
REMARK       I    between atoms: C4_25  and  N9_27 
REMARK   10  A    between atoms: C5_30  and  C6_31 
REMARK   11  A    between atoms: C6_31  and  O5_32 
REMARK   12  A    between atoms: C6_31  and  O6_34 
REMARK   13  A    between atoms: C8_39  and  N11_40 
ROOT
HETATM    1  C1  UNL     1      10.056  83.109  -3.890  1.00  0.00     0.679 A 
HETATM    2  N2  UNL     1      10.276  81.781  -4.018  1.00  0.00    -0.173 N 
ATOM      3  H2  UNL     1       9.585  81.191  -4.481  1.00  0.00     0.186 HD
HETATM    4  C2  UNL     1      11.403  81.238  -3.532  1.00  0.00     0.174 A 
HETATM    5  C3  UNL     1      12.316  82.056  -2.913  1.00  0.00     0.170 A 
HETATM    6  C8  UNL     1      12.074  83.403  -2.794  1.00  0.00     0.153 A 
HETATM    7  N12 UNL     1      10.928  83.934  -3.291  1.00  0.00    -0.174 N 
ATOM      8  H12 UNL     1      10.734  84.932  -3.210  1.00  0.00     0.186 HD
ENDROOT
BRANCH   4   9
HETATM    9  N3  UNL     1      11.676  79.862  -3.641  1.00  0.00    -0.267 N 
ATOM     10  H3  UNL     1      10.961  79.199  -3.341  1.00  0.00     0.190 HD
BRANCH   9  11
HETATM   11  N4  UNL     1      12.879  79.363  -4.138  1.00  0.00    -0.227 N 
HETATM   12  N5  UNL     1      13.559  78.492  -3.515  1.00  0.00    -0.202 N 
ATOM     13  H5  UNL     1      13.200  78.155  -2.622  1.00  0.00     0.208 HD
ATOM     14  H4  UNL     1      13.223  79.710  -5.034  1.00  0.00     0.209 HD
BRANCH  12  15
HETATM   15  N6  UNL     1      14.752  77.972  -3.967  1.00  0.00     0.054 NA
BRANCH  15  16
HETATM   16  O1  UNL     1      15.713  78.926  -3.834  1.00  0.00    -0.272 OA
ATOM     17  H1  UNL     1      15.954  78.983  -2.917  1.00  0.00     0.241 HD
ENDBRANCH  15  16
BRANCH  15  18
HETATM   18  N7  UNL     1      14.712  77.575  -5.303  1.00  0.00    -0.077 N 
HETATM   19  N8  UNL     1      15.799  77.399  -5.960  1.00  0.00    -0.304 N 
ATOM     20  H82 UNL     1      16.673  77.562  -5.461  1.00  0.00     0.180 HD
ATOM     21  H81 UNL     1      15.769  77.109  -6.938  1.00  0.00     0.180 HD
BRANCH  18  22
HETATM   22  O2  UNL     1      13.542  77.357  -5.972  1.00  0.00    -0.255 OA
ATOM     23  H2  UNL     1      13.178  76.489  -6.097  1.00  0.00     0.248 HD
ENDBRANCH  18  22
ENDBRANCH  15  18
ENDBRANCH  12  15
ENDBRANCH   9  11
ENDBRANCH   4   9
BRANCH   5  24
HETATM   24  O3  UNL     1      13.505  81.570  -2.386  1.00  0.00    -0.252 OA
BRANCH  24  25
HETATM   25  C4  UNL     1      13.586  80.882  -1.200  1.00  0.00     0.393 C 
HETATM   26  O4  UNL     1      12.554  80.261  -0.841  1.00  0.00    -0.236 OA
HETATM   27  N9  UNL     1      14.805  80.875  -0.406  1.00  0.00    -0.180 N 
HETATM   28  N10 UNL     1      14.870  80.232   0.693  1.00  0.00    -0.281 N 
HETATM   29  C7  UNL     1      15.892  81.544  -0.811  1.00  0.00     0.171 A 
HETATM   30  C5  UNL     1      15.984  80.238   1.398  1.00  0.00     0.124 A 
ATOM     31  H10 UNL     1      14.059  79.713   1.028  1.00  0.00     0.188 HD
HETATM   32  S1  UNL     1      17.004  81.216   0.440  1.00  0.00    -0.039 SA
HETATM   33  S2  UNL     1      16.066  82.446  -2.187  1.00  0.00    -0.050 SA
BRANCH  30  34
HETATM   34  C6  UNL     1      16.228  79.535   2.712  1.00  0.00     0.314 C 
BRANCH  34  35
HETATM   35  O5  UNL     1      15.060  79.687   3.457  1.00  0.00    -0.365 OA
ATOM     36  H5  UNL     1      15.296  79.503   4.359  1.00  0.00     0.213 HD
ENDBRANCH  34  35
BRANCH  34  37
HETATM   37  O6  UNL     1      17.231  80.215   3.395  1.00  0.00    -0.365 OA
ATOM     38  H6  UNL     1      17.657  79.606   3.988  1.00  0.00     0.213 HD
ENDBRANCH  34  37
ENDBRANCH  30  34
ENDBRANCH  24  25
ENDBRANCH   5  24
BRANCH   1  39
HETATM   39  N1  UNL     1       8.941  83.589  -4.380  1.00  0.00    -0.234 N 
ATOM     40  H12 UNL     1       8.049  83.189  -4.091  1.00  0.00     0.174 HD
ATOM     41  H11 UNL     1       9.011  84.361  -5.044  1.00  0.00     0.174 HD
ENDBRANCH   1  39
BRANCH   6  42
HETATM   42  N11 UNL     1      12.897  84.207  -2.224  1.00  0.00    -0.383 N 
ATOM     43 2H11 UNL     1      13.648  83.793  -1.672  1.00  0.00     0.157 HD
ATOM     44 1H11 UNL     1      12.822  85.221  -2.306  1.00  0.00     0.157 HD
ENDBRANCH   6  42
TORSDOF 13
ENDMDL
MODEL 2
REMARK VINA RESULT: -7.958757561      1.096      1.512
REMARK  13 active torsions:
REMARK  status: ('A' for Active; 'I' for Inactive)
REMARK    1  A    between atoms: N1_1  and  C1_4 
REMARK    2  A    between atoms: C2_7  and  N3_8 
REMARK    3  A    between atoms: N3_8  and  N4_10 
REMARK    4  A    between atoms: N5_12  and  N6_14 
REMARK    5  A    between atoms: N6_14  and  O1_15 
REMARK    6  A    between atoms: N6_14  and  N7_17 
REMARK    7  A    between atoms: N7_17  and  O2_21 
REMARK    8  A    between atoms: C3_23  and  O3_24 
REMARK    9  A    between atoms: O3_24  and  C4_25 
REMARK       I    between atoms: C4_25  and  N9_27 
REMARK   10  A    between atoms: C5_30  and  C6_31 
REMARK   11  A    between atoms: C6_31  and  O5_32 
REMARK   12  A    between atoms: C6_31  and  O6_34 
REMARK   13  A    between atoms: C8_39  and  N11_40 
ROOT
HETATM    1  C1  UNL     1      10.142  82.222  -3.048  1.00  0.00     0.679 A 
HETATM    2  N2  UNL     1      10.641  80.996  -3.322  1.00  0.00    -0.173 N 
ATOM      3  H2  UNL     1      10.046  80.287  -3.749  1.00  0.00     0.186 HD
HETATM    4  C2  UNL     1      11.919  80.712  -3.031  1.00  0.00     0.174 A 
HETATM    5  C3  UNL     1      12.698  81.687  -2.456  1.00  0.00     0.170 A 
HETATM    6  C8  UNL     1      12.173  82.927  -2.187  1.00  0.00     0.153 A 
HETATM    7  N12 UNL     1      10.876  83.195  -2.488  1.00  0.00    -0.174 N 
ATOM      8  H12 UNL     1      10.472  84.111  -2.294  1.00  0.00     0.186 HD
ENDROOT
BRANCH   4   9
HETATM    9  N3  UNL     1      12.483  79.450  -3.297  1.00  0.00    -0.267 N 
ATOM     10  H3  UNL     1      12.176  78.653  -2.740  1.00  0.00     0.190 HD
BRANCH   9  11
HETATM   11  N4  UNL     1      13.442  79.241  -4.286  1.00  0.00    -0.227 N 
HETATM   12  N5  UNL     1      13.562  78.130  -4.888  1.00  0.00    -0.202 N 
ATOM     13  H5  UNL     1      12.926  77.375  -4.628  1.00  0.00     0.208 HD
ATOM     14  H4  UNL     1      14.069  80.007  -4.535  1.00  0.00     0.209 HD
BRANCH  12  15
HETATM   15  N6  UNL     1      14.493  77.877  -5.870  1.00  0.00     0.054 NA
BRANCH  15  16
HETATM   16  O1  UNL     1      14.259  76.635  -6.374  1.00  0.00    -0.272 OA
ATOM     17  H1  UNL     1      14.857  76.488  -7.097  1.00  0.00     0.241 HD
ENDBRANCH  15  16
BRANCH  15  18
HETATM   18  N7  UNL     1      15.809  77.920  -5.409  1.00  0.00    -0.077 N 
HETATM   19  N8  UNL     1      16.691  77.121  -5.888  1.00  0.00    -0.304 N 
ATOM     20  H82 UNL     1      16.381  76.468  -6.607  1.00  0.00     0.180 HD
ATOM     21  H81 UNL     1      17.653  77.153  -5.550  1.00  0.00     0.180 HD
BRANCH  18  22
HETATM   22  O2  UNL     1      16.223  78.794  -4.446  1.00  0.00    -0.255 OA
ATOM     23  H2  UNL     1      16.778  79.541  -4.636  1.00  0.00     0.248 HD
ENDBRANCH  18  22
ENDBRANCH  15  18
ENDBRANCH  12  15
ENDBRANCH   9  11
ENDBRANCH   4   9
BRANCH   5  24
HETATM   24  O3  UNL     1      14.029  81.470  -2.127  1.00  0.00    -0.252 OA
BRANCH  24  25
HETATM   25  C4  UNL     1      14.437  80.906  -0.942  1.00  0.00     0.393 C 
HETATM   26  O4  UNL     1      13.604  80.169  -0.357  1.00  0.00    -0.236 OA
HETATM   27  N9  UNL     1      15.763  81.153  -0.399  1.00  0.00    -0.180 N 
HETATM   28  N10 UNL     1      16.132  80.625   0.701  1.00  0.00    -0.281 N 
HETATM   29  C7  UNL     1      16.633  81.942  -1.042  1.00  0.00     0.171 A 
HETATM   30  C5  UNL     1      17.339  80.860   1.177  1.00  0.00     0.124 A 
ATOM     31  H10 UNL     1      15.493  80.018   1.215  1.00  0.00     0.188 HD
HETATM   32  S1  UNL     1      17.992  81.895  -0.012  1.00  0.00    -0.039 SA
HETATM   33  S2  UNL     1      16.402  82.739  -2.474  1.00  0.00    -0.050 SA
BRANCH  30  34
HETATM   34  C6  UNL     1      17.930  80.317   2.457  1.00  0.00     0.314 C 
BRANCH  34  35
HETATM   35  O5  UNL     1      16.859  80.118   3.325  1.00  0.00    -0.365 OA
ATOM     36  H5  UNL     1      16.198  79.651   2.827  1.00  0.00     0.213 HD
ENDBRANCH  34  35
BRANCH  34  37
HETATM   37  O6  UNL     1      18.730  81.303   3.025  1.00  0.00    -0.365 OA
ATOM     38  H6  UNL     1      19.493  81.426   2.472  1.00  0.00     0.213 HD
ENDBRANCH  34  37
ENDBRANCH  30  34
ENDBRANCH  24  25
ENDBRANCH   5  24
BRANCH   1  39
HETATM   39  N1  UNL     1       8.889  82.450  -3.352  1.00  0.00    -0.234 N 
ATOM     40  H12 UNL     1       8.321  81.700  -3.745  1.00  0.00     0.174 HD
ATOM     41  H11 UNL     1       8.523  83.386  -3.178  1.00  0.00     0.174 HD
ENDBRANCH   1  39
BRANCH   6  42
HETATM   42  N11 UNL     1      12.860  83.869  -1.651  1.00  0.00    -0.383 N 
ATOM     43 2H11 UNL     1      13.664  84.216  -2.173  1.00  0.00     0.157 HD
ATOM     44 1H11 UNL     1      12.629  84.271  -0.742  1.00  0.00     0.157 HD
ENDBRANCH   6  42
TORSDOF 13
ENDMDL
MODEL 3
REMARK VINA RESULT: -7.632503468      2.918      6.421
REMARK  13 active torsions:
REMARK  status: ('A' for Active; 'I' for Inactive)
REMARK    1  A    between atoms: N1_1  and  C1_4 
REMARK    2  A    between atoms: C2_7  and  N3_8 
REMARK    3  A    between atoms: N3_8  and  N4_10 
REMARK    4  A    between atoms: N5_12  and  N6_14 
REMARK    5  A    between atoms: N6_14  and  O1_15 
REMARK    6  A    between atoms: N6_14  and  N7_17 
REMARK    7  A    between atoms: N7_17  and  O2_21 
REMARK    8  A    between atoms: C3_23  and  O3_24 
REMARK    9  A    between atoms: O3_24  and  C4_25 
REMARK       I    between atoms: C4_25  and  N9_27 
REMARK   10  A    between atoms: C5_30  and  C6_31 
REMARK   11  A    between atoms: C6_31  and  O5_32 
REMARK   12  A    between atoms: C6_31  and  O6_34 
REMARK   13  A    between atoms: C8_39  and  N11_40 
ROOT
HETATM    1  C1  UNL     1      14.296  79.709   2.123  1.00  0.00     0.679 A 
HETATM    2  N2  UNL     1      13.198  79.527   1.355  1.00  0.00    -0.173 N 
ATOM      3  H2  UNL     1      12.327  79.206   1.777  1.00  0.00     0.186 HD
HETATM    4  C2  UNL     1      13.256  79.769   0.037  1.00  0.00     0.174 A 
HETATM    5  C3  UNL     1      14.442  80.201  -0.505  1.00  0.00     0.170 A 
HETATM    6  C8  UNL     1      15.545  80.380   0.293  1.00  0.00     0.153 A 
HETATM    7  N12 UNL     1      15.468  80.129   1.625  1.00  0.00    -0.174 N 
ATOM      8  H12 UNL     1      16.279  80.257   2.230  1.00  0.00     0.186 HD
ENDROOT
BRANCH   4   9
HETATM    9  N3  UNL     1      12.140  79.595  -0.804  1.00  0.00    -0.267 N 
ATOM     10  H3  UNL     1      11.679  78.686  -0.817  1.00  0.00     0.190 HD
BRANCH   9  11
HETATM   11  N4  UNL     1      11.638  80.608  -1.618  1.00  0.00    -0.227 N 
HETATM   12  N5  UNL     1      11.687  80.545  -2.885  1.00  0.00    -0.202 N 
ATOM     13  H5  UNL     1      12.110  79.718  -3.305  1.00  0.00     0.208 HD
ATOM     14  H4  UNL     1      11.216  81.428  -1.181  1.00  0.00     0.209 HD
BRANCH  12  15
HETATM   15  N6  UNL     1      11.205  81.521  -3.729  1.00  0.00     0.054 NA
BRANCH  15  16
HETATM   16  O1  UNL     1      12.255  82.268  -4.164  1.00  0.00    -0.272 OA
ATOM     17  H1  UNL     1      12.365  83.003  -3.573  1.00  0.00     0.241 HD
ENDBRANCH  15  16
BRANCH  15  18
HETATM   18  N7  UNL     1      10.285  82.374  -3.120  1.00  0.00    -0.077 N 
HETATM   19  N8  UNL     1       9.072  82.423  -3.534  1.00  0.00    -0.304 N 
ATOM     20  H82 UNL     1       8.827  81.816  -4.317  1.00  0.00     0.180 HD
ATOM     21  H81 UNL     1       8.400  83.047  -3.089  1.00  0.00     0.180 HD
BRANCH  18  22
HETATM   22  O2  UNL     1      10.614  83.186  -2.073  1.00  0.00    -0.255 OA
ATOM     23  H2  UNL     1      11.360  83.774  -2.096  1.00  0.00     0.248 HD
ENDBRANCH  18  22
ENDBRANCH  15  18
ENDBRANCH  12  15
ENDBRANCH   9  11
ENDBRANCH   4   9
BRANCH   5  24
HETATM   24  O3  UNL     1      14.580  80.474  -1.859  1.00  0.00    -0.252 OA
BRANCH  24  25
HETATM   25  C4  UNL     1      14.752  79.503  -2.816  1.00  0.00     0.393 C 
HETATM   26  O4  UNL     1      14.338  78.352  -2.527  1.00  0.00    -0.236 OA
HETATM   27  N9  UNL     1      15.378  79.798  -4.095  1.00  0.00    -0.180 N 
HETATM   28  N10 UNL     1      15.533  78.890  -4.977  1.00  0.00    -0.281 N 
HETATM   29  C7  UNL     1      15.810  81.033  -4.379  1.00  0.00     0.171 A 
HETATM   30  C5  UNL     1      16.103  79.177  -6.129  1.00  0.00     0.124 A 
ATOM     31  H10 UNL     1      15.214  77.939  -4.789  1.00  0.00     0.188 HD
HETATM   32  S1  UNL     1      16.441  80.841  -5.952  1.00  0.00    -0.039 SA
HETATM   33  S2  UNL     1      15.728  82.376  -3.416  1.00  0.00    -0.050 SA
BRANCH  30  34
HETATM   34  C6  UNL     1      16.360  78.226  -7.275  1.00  0.00     0.314 C 
BRANCH  34  35
HETATM   35  O5  UNL     1      15.233  78.288  -8.091  1.00  0.00    -0.365 OA
ATOM     36  H5  UNL     1      15.255  77.507  -8.632  1.00  0.00     0.213 HD
ENDBRANCH  34  35
BRANCH  34  37
HETATM   37  O6  UNL     1      16.419  76.932  -6.768  1.00  0.00    -0.365 OA
ATOM     38  H6  UNL     1      17.135  76.885  -6.146  1.00  0.00     0.213 HD
ENDBRANCH  34  37
ENDBRANCH  30  34
ENDBRANCH  24  25
ENDBRANCH   5  24
BRANCH   1  39
HETATM   39  N1  UNL     1      14.189  79.459   3.404  1.00  0.00    -0.234 N 
ATOM     40  H12 UNL     1      13.443  78.849   3.738  1.00  0.00     0.174 HD
ATOM     41  H11 UNL     1      14.869  79.892   4.029  1.00  0.00     0.174 HD
ENDBRANCH   1  39
BRANCH   6  42
HETATM   42  N11 UNL     1      16.675  80.782  -0.166  1.00  0.00    -0.383 N 
ATOM     43 2H11 UNL     1      16.698  81.107  -1.132  1.00  0.00     0.157 HD
ATOM     44 1H11 UNL     1      17.527  80.786   0.394  1.00  0.00     0.157 HD
ENDBRANCH   6  42
TORSDOF 13
ENDMDL
MODEL 4
REMARK VINA RESULT: -7.586213604      3.042      3.861
REMARK  13 active torsions:
REMARK  status: ('A' for Active; 'I' for Inactive)
REMARK    1  A    between atoms: N1_1  and  C1_4 
REMARK    2  A    between atoms: C2_7  and  N3_8 
REMARK    3  A    between atoms: N3_8  and  N4_10 
REMARK    4  A    between atoms: N5_12  and  N6_14 
REMARK    5  A    between atoms: N6_14  and  O1_15 
REMARK    6  A    between atoms: N6_14  and  N7_17 
REMARK    7  A    between atoms: N7_17  and  O2_21 
REMARK    8  A    between atoms: C3_23  and  O3_24 
REMARK    9  A    between atoms: O3_24  and  C4_25 
REMARK       I    between atoms: C4_25  and  N9_27 
REMARK   10  A    between atoms: C5_30  and  C6_31 
REMARK   11  A    between atoms: C6_31  and  O5_32 
REMARK   12  A    between atoms: C6_31  and  O6_34 
REMARK   13  A    between atoms: C8_39  and  N11_40 
ROOT
HETATM    1  C1  UNL     1      16.145  83.837  -6.132  1.00  0.00     0.679 A 
HETATM    2  N2  UNL     1      16.590  82.567  -6.263  1.00  0.00    -0.173 N 
ATOM      3  H2  UNL     1      17.290  82.341  -6.968  1.00  0.00     0.186 HD
HETATM    4  C2  UNL     1      16.108  81.603  -5.463  1.00  0.00     0.174 A 
HETATM    5  C3  UNL     1      15.166  81.935  -4.521  1.00  0.00     0.170 A 
HETATM    6  C8  UNL     1      14.728  83.232  -4.404  1.00  0.00     0.153 A 
HETATM    7  N12 UNL     1      15.226  84.194  -5.222  1.00  0.00    -0.174 N 
ATOM      8  H12 UNL     1      14.910  85.161  -5.147  1.00  0.00     0.186 HD
ENDROOT
BRANCH   4   9
HETATM    9  N3  UNL     1      16.540  80.267  -5.562  1.00  0.00    -0.267 N 
ATOM     10  H3  UNL     1      17.413  80.002  -5.106  1.00  0.00     0.190 HD
BRANCH   9  11
HETATM   11  N4  UNL     1      15.828  79.288  -6.253  1.00  0.00    -0.227 N 
HETATM   12  N5  UNL     1      14.833  78.688  -5.743  1.00  0.00    -0.202 N 
ATOM     13  H5  UNL     1      14.557  78.942  -4.794  1.00  0.00     0.208 HD
ATOM     14  H4  UNL     1      16.116  79.047  -7.202  1.00  0.00     0.209 HD
BRANCH  12  15
HETATM   15  N6  UNL     1      14.100  77.716  -6.387  1.00  0.00     0.054 NA
BRANCH  15  16
HETATM   16  O1  UNL     1      13.811  76.733  -5.492  1.00  0.00    -0.272 OA
ATOM     17  H1  UNL     1      13.776  75.906  -5.956  1.00  0.00     0.241 HD
ENDBRANCH  15  16
BRANCH  15  18
HETATM   18  N7  UNL     1      14.772  77.140  -7.465  1.00  0.00    -0.077 N 
HETATM   19  N8  UNL     1      15.284  75.969  -7.360  1.00  0.00    -0.304 N 
ATOM     20  H82 UNL     1      15.174  75.495  -6.464  1.00  0.00     0.180 HD
ATOM     21  H81 UNL     1      15.775  75.548  -8.149  1.00  0.00     0.180 HD
BRANCH  18  22
HETATM   22  O2  UNL     1      14.920  77.775  -8.664  1.00  0.00    -0.255 OA
ATOM     23  H2  UNL     1      15.272  78.654  -8.739  1.00  0.00     0.248 HD
ENDBRANCH  18  22
ENDBRANCH  15  18
ENDBRANCH  12  15
ENDBRANCH   9  11
ENDBRANCH   4   9
BRANCH   5  24
HETATM   24  O3  UNL     1      14.621  80.995  -3.657  1.00  0.00    -0.252 OA
BRANCH  24  25
HETATM   25  C4  UNL     1      15.159  80.688  -2.431  1.00  0.00     0.393 C 
HETATM   26  O4  UNL     1      16.404  80.815  -2.318  1.00  0.00    -0.236 OA
HETATM   27  N9  UNL     1      14.327  80.240  -1.325  1.00  0.00    -0.180 N 
HETATM   28  N10 UNL     1      14.836  79.958  -0.191  1.00  0.00    -0.281 N 
HETATM   29  C7  UNL     1      13.002  80.113  -1.471  1.00  0.00     0.171 A 
HETATM   30  C5  UNL     1      14.064  79.554   0.798  1.00  0.00     0.124 A 
ATOM     31  H10 UNL     1      15.842  80.045  -0.049  1.00  0.00     0.188 HD
HETATM   32  S1  UNL     1      12.519  79.577   0.074  1.00  0.00    -0.039 SA
HETATM   33  S2  UNL     1      12.104  80.414  -2.828  1.00  0.00    -0.050 SA
BRANCH  30  34
HETATM   34  C6  UNL     1      14.503  79.182   2.195  1.00  0.00     0.314 C 
BRANCH  34  35
HETATM   35  O5  UNL     1      14.240  77.821   2.335  1.00  0.00    -0.365 OA
ATOM     36  H5  UNL     1      13.294  77.734   2.348  1.00  0.00     0.213 HD
ENDBRANCH  34  35
BRANCH  34  37
HETATM   37  O6  UNL     1      13.685  79.844   3.104  1.00  0.00    -0.365 OA
ATOM     38  H6  UNL     1      12.780  79.702   2.854  1.00  0.00     0.213 HD
ENDBRANCH  34  37
ENDBRANCH  30  34
ENDBRANCH  24  25
ENDBRANCH   5  24
BRANCH   1  39
HETATM   39  N1  UNL     1      16.646  84.741  -6.935  1.00  0.00    -0.234 N 
ATOM     40  H12 UNL     1      17.470  84.519  -7.493  1.00  0.00     0.174 HD
ATOM     41  H11 UNL     1      16.182  85.649  -6.973  1.00  0.00     0.174 HD
ENDBRANCH   1  39
BRANCH   6  42
HETATM   42  N11 UNL     1      13.849  83.591  -3.540  1.00  0.00    -0.383 N 
ATOM     43 2H11 UNL     1      13.302  82.854  -3.096  1.00  0.00     0.157 HD
ATOM     44 1H11 UNL     1      13.689  84.567  -3.291  1.00  0.00     0.157 HD
ENDBRANCH   6  42
TORSDOF 13
ENDMDL
MODEL 5
REMARK VINA RESULT: -7.262131497      2.829      3.633
REMARK  13 active torsions:
REMARK  status: ('A' for Active; 'I' for Inactive)
REMARK    1  A    between atoms: N1_1  and  C1_4 
REMARK    2  A    between atoms: C2_7  and  N3_8 
REMARK    3  A    between atoms: N3_8  and  N4_10 
REMARK    4  A    between atoms: N5_12  and  N6_14 
REMARK    5  A    between atoms: N6_14  and  O1_15 
REMARK    6  A    between atoms: N6_14  and  N7_17 
REMARK    7  A    between atoms: N7_17  and  O2_21 
REMARK    8  A    between atoms: C3_23  and  O3_24 
REMARK    9  A    between atoms: O3_24  and  C4_25 
REMARK       I    between atoms: C4_25  and  N9_27 
REMARK   10  A    between atoms: C5_30  and  C6_31 
REMARK   11  A    between atoms: C6_31  and  O5_32 
REMARK   12  A    between atoms: C6_31  and  O6_34 
REMARK   13  A    between atoms: C8_39  and  N11_40 
ROOT
HETATM    1  C1  UNL     1      15.486  84.438  -5.715  1.00  0.00     0.679 A 
HETATM    2  N2  UNL     1      16.080  83.298  -6.135  1.00  0.00    -0.173 N 
ATOM      3  H2  UNL     1      16.704  83.315  -6.941  1.00  0.00     0.186 HD
HETATM    4  C2  UNL     1      15.846  82.144  -5.492  1.00  0.00     0.174 A 
HETATM    5  C3  UNL     1      15.001  82.150  -4.410  1.00  0.00     0.170 A 
HETATM    6  C8  UNL     1      14.408  83.319  -3.997  1.00  0.00     0.153 A 
HETATM    7  N12 UNL     1      14.657  84.477  -4.661  1.00  0.00    -0.174 N 
ATOM      8  H12 UNL     1      14.224  85.353  -4.367  1.00  0.00     0.186 HD
ENDROOT
BRANCH   4   9
HETATM    9  N3  UNL     1      16.440  80.932  -5.893  1.00  0.00    -0.267 N 
ATOM     10  H3  UNL     1      17.405  80.949  -6.223  1.00  0.00     0.190 HD
BRANCH   9  11
HETATM   11  N4  UNL     1      15.769  79.711  -5.860  1.00  0.00    -0.227 N 
HETATM   12  N5  UNL     1      16.287  78.668  -5.355  1.00  0.00    -0.202 N 
ATOM     13  H5  UNL     1      17.227  78.743  -4.964  1.00  0.00     0.208 HD
ATOM     14  H4  UNL     1      14.830  79.654  -6.254  1.00  0.00     0.209 HD
BRANCH  12  15
HETATM   15  N6  UNL     1      15.664  77.441  -5.300  1.00  0.00     0.054 NA
BRANCH  15  16
HETATM   16  O1  UNL     1      15.677  76.898  -6.548  1.00  0.00    -0.272 OA
ATOM     17  H1  UNL     1      15.950  75.992  -6.477  1.00  0.00     0.241 HD
ENDBRANCH  15  16
BRANCH  15  18
HETATM   18  N7  UNL     1      14.339  77.513  -4.869  1.00  0.00    -0.077 N 
HETATM   19  N8  UNL     1      14.043  77.278  -3.643  1.00  0.00    -0.304 N 
ATOM     20  H82 UNL     1      14.814  77.042  -3.018  1.00  0.00     0.180 HD
ATOM     21  H81 UNL     1      13.075  77.330  -3.328  1.00  0.00     0.180 HD
BRANCH  18  22
HETATM   22  O2  UNL     1      13.308  77.828  -5.705  1.00  0.00    -0.255 OA
ATOM     23  H2  UNL     1      12.848  77.176  -6.220  1.00  0.00     0.248 HD
ENDBRANCH  18  22
ENDBRANCH  15  18
ENDBRANCH  12  15
ENDBRANCH   9  11
ENDBRANCH   4   9
BRANCH   5  24
HETATM   24  O3  UNL     1      14.710  80.998  -3.692  1.00  0.00    -0.252 OA
BRANCH  24  25
HETATM   25  C4  UNL     1      15.232  80.724  -2.451  1.00  0.00     0.393 C 
HETATM   26  O4  UNL     1      16.466  80.913  -2.308  1.00  0.00    -0.236 OA
HETATM   27  N9  UNL     1      14.395  80.241  -1.364  1.00  0.00    -0.180 N 
HETATM   28  N10 UNL     1      14.889  79.989  -0.215  1.00  0.00    -0.281 N 
HETATM   29  C7  UNL     1      13.082  80.048  -1.541  1.00  0.00     0.171 A 
HETATM   30  C5  UNL     1      14.114  79.553   0.757  1.00  0.00     0.124 A 
ATOM     31  H10 UNL     1      15.886  80.127  -0.049  1.00  0.00     0.188 HD
HETATM   32  S1  UNL     1      12.588  79.496  -0.005  1.00  0.00    -0.039 SA
HETATM   33  S2  UNL     1      12.204  80.297  -2.922  1.00  0.00    -0.050 SA
BRANCH  30  34
HETATM   34  C6  UNL     1      14.535  79.210   2.167  1.00  0.00     0.314 C 
BRANCH  34  35
HETATM   35  O5  UNL     1      14.306  77.844   2.318  1.00  0.00    -0.365 OA
ATOM     36  H5  UNL     1      14.211  77.492   1.441  1.00  0.00     0.213 HD
ENDBRANCH  34  35
BRANCH  34  37
HETATM   37  O6  UNL     1      13.682  79.861   3.052  1.00  0.00    -0.365 OA
ATOM     38  H6  UNL     1      13.420  79.244   3.725  1.00  0.00     0.213 HD
ENDBRANCH  34  37
ENDBRANCH  30  34
ENDBRANCH  24  25
ENDBRANCH   5  24
BRANCH   1  39
HETATM   39  N1  UNL     1      15.746  85.537  -6.375  1.00  0.00    -0.234 N 
ATOM     40  H12 UNL     1      15.629  86.441  -5.918  1.00  0.00     0.174 HD
ATOM     41  H11 UNL     1      16.064  85.445  -7.341  1.00  0.00     0.174 HD
ENDBRANCH   1  39
BRANCH   6  42
HETATM   42  N11 UNL     1      13.612  83.375  -2.993  1.00  0.00    -0.383 N 
ATOM     43 2H11 UNL     1      12.738  82.853  -3.059  1.00  0.00     0.157 HD
ATOM     44 1H11 UNL     1      13.823  83.912  -2.151  1.00  0.00     0.157 HD
ENDBRANCH   6  42
TORSDOF 13
ENDMDL
