MODEL 1
REMARK VINA RESULT: -5.414160251      0.000      0.000
REMARK  6 active torsions:
REMARK  status: ('A' for Active; 'I' for Inactive)
REMARK    1  A    between atoms: C2_2  and  O1_4 
REMARK    2  A    between atoms: O1_4  and  C4_5 
REMARK    3  A    between atoms: C5_10  and  C6_11 
REMARK    4  A    between atoms: C6_11  and  C7_12 
REMARK    5  A    between atoms: C7_12  and  N3_13 
REMARK    6  A    between atoms: C7_12  and  C8_17 
ROOT
HETATM    1  C4  UNL     1      84.768  -2.127  43.818  1.00  0.00     0.182 A 
HETATM    2  N1  UNL     1      84.558  -1.518  44.978  1.00  0.00    -0.278 N 
ATOM      3  H1  UNL     1      84.088  -0.654  45.249  1.00  0.00     0.189 HD
HETATM    4  N2  UNL     1      85.192  -2.461  45.644  1.00  0.00    -0.298 N 
ATOM      5  H2  UNL     1      85.409  -2.622  46.628  1.00  0.00     0.186 HD
HETATM    6  C5  UNL     1      85.437  -3.132  44.491  1.00  0.00     0.080 A 
ENDROOT
BRANCH   6   7
HETATM    7  C6  UNL     1      86.126  -4.405  44.161  1.00  0.00     0.103 C 
BRANCH   7   8
HETATM    8  C7  UNL     1      85.106  -5.477  43.755  1.00  0.00     0.250 C 
BRANCH   8   9
HETATM    9  N3  UNL     1      85.048  -6.535  44.754  1.00  0.00    -0.069 N 
ATOM     10  H33 UNL     1      84.778  -7.429  44.344  1.00  0.00     0.275 HD
ATOM     11  H32 UNL     1      85.977  -6.794  45.086  1.00  0.00     0.275 HD
ATOM     12  H31 UNL     1      84.432  -6.270  45.523  1.00  0.00     0.275 HD
ENDBRANCH   8   9
BRANCH   8  13
HETATM   13  C8  UNL     1      85.524  -6.092  42.474  1.00  0.00     0.264 C 
HETATM   14  O2  UNL     1      85.548  -5.388  41.477  1.00  0.00    -0.305 OA
ENDBRANCH   8  13
ENDBRANCH   7   8
ENDBRANCH   6   7
BRANCH   1  15
HETATM   15  O1  UNL     1      84.500  -1.954  42.475  1.00  0.00    -0.329 OA
BRANCH  15  16
HETATM   16  C2  UNL     1      85.053  -0.924  41.690  1.00  0.00     0.122 C 
HETATM   17  C1  UNL     1      84.451   0.419  41.944  1.00  0.00     0.040 C 
HETATM   18  C3  UNL     1      86.549  -0.839  41.836  1.00  0.00     0.040 C 
ENDBRANCH  15  16
ENDBRANCH   1  15
TORSDOF 6
ENDMDL
MODEL 2
REMARK VINA RESULT: -5.210955830      1.594      1.740
REMARK  6 active torsions:
REMARK  status: ('A' for Active; 'I' for Inactive)
REMARK    1  A    between atoms: C2_2  and  O1_4 
REMARK    2  A    between atoms: O1_4  and  C4_5 
REMARK    3  A    between atoms: C5_10  and  C6_11 
REMARK    4  A    between atoms: C6_11  and  C7_12 
REMARK    5  A    between atoms: C7_12  and  N3_13 
REMARK    6  A    between atoms: C7_12  and  C8_17 
ROOT
HETATM    1  C4  UNL     1      84.779  -2.085  43.790  1.00  0.00     0.182 A 
HETATM    2  N1  UNL     1      84.280  -1.654  44.942  1.00  0.00    -0.278 N 
ATOM      3  H1  UNL     1      83.482  -1.070  45.194  1.00  0.00     0.189 HD
HETATM    4  N2  UNL     1      85.215  -2.272  45.633  1.00  0.00    -0.298 N 
ATOM      5  H2  UNL     1      85.433  -2.360  46.626  1.00  0.00     0.186 HD
HETATM    6  C5  UNL     1      85.770  -2.745  44.490  1.00  0.00     0.080 A 
ENDROOT
BRANCH   6   7
HETATM    7  C6  UNL     1      86.939  -3.609  44.188  1.00  0.00     0.103 C 
BRANCH   7   8
HETATM    8  C7  UNL     1      86.483  -5.041  43.882  1.00  0.00     0.250 C 
BRANCH   8   9
HETATM    9  N3  UNL     1      85.683  -5.076  42.665  1.00  0.00    -0.069 N 
ATOM     10  H33 UNL     1      85.329  -6.014  42.471  1.00  0.00     0.275 HD
ATOM     11  H32 UNL     1      84.791  -4.597  42.785  1.00  0.00     0.275 HD
ATOM     12  H31 UNL     1      86.211  -4.701  41.877  1.00  0.00     0.275 HD
ENDBRANCH   8   9
BRANCH   8  13
HETATM   13  C8  UNL     1      85.633  -5.533  44.991  1.00  0.00     0.264 C 
HETATM   14  O2  UNL     1      86.039  -5.393  46.134  1.00  0.00    -0.305 OA
ENDBRANCH   8  13
ENDBRANCH   7   8
ENDBRANCH   6   7
BRANCH   1  15
HETATM   15  O1  UNL     1      84.527  -1.995  42.436  1.00  0.00    -0.329 OA
BRANCH  15  16
HETATM   16  C2  UNL     1      84.995  -0.950  41.616  1.00  0.00     0.122 C 
HETATM   17  C1  UNL     1      84.453   0.392  41.980  1.00  0.00     0.040 C 
HETATM   18  C3  UNL     1      86.499  -0.889  41.579  1.00  0.00     0.040 C 
ENDBRANCH  15  16
ENDBRANCH   1  15
TORSDOF 6
ENDMDL
MODEL 3
REMARK VINA RESULT: -5.094762854      1.412      1.669
REMARK  6 active torsions:
REMARK  status: ('A' for Active; 'I' for Inactive)
REMARK    1  A    between atoms: C2_2  and  O1_4 
REMARK    2  A    between atoms: O1_4  and  C4_5 
REMARK    3  A    between atoms: C5_10  and  C6_11 
REMARK    4  A    between atoms: C6_11  and  C7_12 
REMARK    5  A    between atoms: C7_12  and  N3_13 
REMARK    6  A    between atoms: C7_12  and  C8_17 
ROOT
HETATM    1  C4  UNL     1      84.858  -2.010  43.487  1.00  0.00     0.182 A 
HETATM    2  N1  UNL     1      84.367  -1.863  44.712  1.00  0.00    -0.278 N 
ATOM      3  H1  UNL     1      83.524  -1.432  45.089  1.00  0.00     0.189 HD
HETATM    4  N2  UNL     1      85.393  -2.490  45.249  1.00  0.00    -0.298 N 
ATOM      5  H2  UNL     1      85.663  -2.738  46.202  1.00  0.00     0.186 HD
HETATM    6  C5  UNL     1      85.945  -2.673  44.024  1.00  0.00     0.080 A 
ENDROOT
BRANCH   6   7
HETATM    7  C6  UNL     1      87.185  -3.325  43.535  1.00  0.00     0.103 C 
BRANCH   7   8
HETATM    8  C7  UNL     1      86.991  -4.845  43.443  1.00  0.00     0.250 C 
BRANCH   8   9
HETATM    9  N3  UNL     1      88.279  -5.524  43.390  1.00  0.00    -0.069 N 
ATOM     10  H33 UNL     1      89.038  -4.921  43.707  1.00  0.00     0.275 HD
ATOM     11  H32 UNL     1      88.352  -6.251  44.102  1.00  0.00     0.275 HD
ATOM     12  H31 UNL     1      88.453  -5.892  42.454  1.00  0.00     0.275 HD
ENDBRANCH   8   9
BRANCH   8  13
HETATM   13  C8  UNL     1      86.260  -5.172  42.197  1.00  0.00     0.264 C 
HETATM   14  O2  UNL     1      85.153  -5.678  42.294  1.00  0.00    -0.305 OA
ENDBRANCH   8  13
ENDBRANCH   7   8
ENDBRANCH   6   7
BRANCH   1  15
HETATM   15  O1  UNL     1      84.538  -1.696  42.181  1.00  0.00    -0.329 OA
BRANCH  15  16
HETATM   16  C2  UNL     1      84.721  -0.421  41.612  1.00  0.00     0.122 C 
HETATM   17  C1  UNL     1      86.149   0.009  41.538  1.00  0.00     0.040 C 
HETATM   18  C3  UNL     1      84.095  -0.314  40.246  1.00  0.00     0.040 C 
ENDBRANCH  15  16
ENDBRANCH   1  15
TORSDOF 6
ENDMDL
MODEL 4
REMARK VINA RESULT: -5.081938064      1.754      1.916
REMARK  6 active torsions:
REMARK  status: ('A' for Active; 'I' for Inactive)
REMARK    1  A    between atoms: C2_2  and  O1_4 
REMARK    2  A    between atoms: O1_4  and  C4_5 
REMARK    3  A    between atoms: C5_10  and  C6_11 
REMARK    4  A    between atoms: C6_11  and  C7_12 
REMARK    5  A    between atoms: C7_12  and  N3_13 
REMARK    6  A    between atoms: C7_12  and  C8_17 
ROOT
HETATM    1  C4  UNL     1      84.839  -2.587  43.785  1.00  0.00     0.182 A 
HETATM    2  N1  UNL     1      84.997  -2.208  45.047  1.00  0.00    -0.278 N 
ATOM      3  H1  UNL     1      84.794  -1.350  45.559  1.00  0.00     0.189 HD
HETATM    4  N2  UNL     1      85.520  -3.370  45.381  1.00  0.00    -0.298 N 
ATOM      5  H2  UNL     1      85.881  -3.772  46.247  1.00  0.00     0.186 HD
HETATM    6  C5  UNL     1      85.382  -3.816  44.108  1.00  0.00     0.080 A 
ENDROOT
BRANCH   6   7
HETATM    7  C6  UNL     1      85.692  -5.094  43.420  1.00  0.00     0.103 C 
BRANCH   7   8
HETATM    8  C7  UNL     1      86.877  -4.914  42.462  1.00  0.00     0.250 C 
BRANCH   8   9
HETATM    9  N3  UNL     1      87.204  -6.174  41.808  1.00  0.00    -0.069 N 
ATOM     10  H33 UNL     1      88.179  -6.435  41.956  1.00  0.00     0.275 HD
ATOM     11  H32 UNL     1      86.761  -6.967  42.271  1.00  0.00     0.275 HD
ATOM     12  H31 UNL     1      86.970  -6.135  40.816  1.00  0.00     0.275 HD
ENDBRANCH   8   9
BRANCH   8  13
HETATM   13  C8  UNL     1      88.069  -4.485  43.231  1.00  0.00     0.264 C 
HETATM   14  O2  UNL     1      88.702  -5.336  43.835  1.00  0.00    -0.305 OA
ENDBRANCH   8  13
ENDBRANCH   7   8
ENDBRANCH   6   7
BRANCH   1  15
HETATM   15  O1  UNL     1      84.363  -2.089  42.589  1.00  0.00    -0.329 OA
BRANCH  15  16
HETATM   16  C2  UNL     1      85.015  -1.093  41.837  1.00  0.00     0.122 C 
HETATM   17  C1  UNL     1      84.478   0.283  42.062  1.00  0.00     0.040 C 
HETATM   18  C3  UNL     1      86.503  -1.093  42.064  1.00  0.00     0.040 C 
ENDBRANCH  15  16
ENDBRANCH   1  15
TORSDOF 6
ENDMDL
MODEL 5
REMARK VINA RESULT: -5.006764542      2.135      4.473
REMARK  6 active torsions:
REMARK  status: ('A' for Active; 'I' for Inactive)
REMARK    1  A    between atoms: C2_2  and  O1_4 
REMARK    2  A    between atoms: O1_4  and  C4_5 
REMARK    3  A    between atoms: C5_10  and  C6_11 
REMARK    4  A    between atoms: C6_11  and  C7_12 
REMARK    5  A    between atoms: C7_12  and  N3_13 
REMARK    6  A    between atoms: C7_12  and  C8_17 
ROOT
HETATM    1  C4  UNL     1      85.399  -5.562  43.368  1.00  0.00     0.182 A 
HETATM    2  N1  UNL     1      85.176  -6.581  44.189  1.00  0.00    -0.278 N 
ATOM      3  H1  UNL     1      84.999  -7.576  44.050  1.00  0.00     0.189 HD
HETATM    4  N2  UNL     1      85.274  -5.809  45.251  1.00  0.00    -0.298 N 
ATOM      5  H2  UNL     1      85.202  -5.961  46.258  1.00  0.00     0.186 HD
HETATM    6  C5  UNL     1      85.507  -4.729  44.465  1.00  0.00     0.080 A 
ENDROOT
BRANCH   6   7
HETATM    7  C6  UNL     1      85.771  -3.292  44.732  1.00  0.00     0.103 C 
BRANCH   7   8
HETATM    8  C7  UNL     1      84.724  -2.416  44.032  1.00  0.00     0.250 C 
BRANCH   8   9
HETATM    9  N3  UNL     1      85.202  -1.990  42.724  1.00  0.00    -0.069 N 
ATOM     10  H33 UNL     1      86.013  -2.531  42.422  1.00  0.00     0.275 HD
ATOM     11  H32 UNL     1      84.556  -2.256  41.980  1.00  0.00     0.275 HD
ATOM     12  H31 UNL     1      85.393  -0.988  42.719  1.00  0.00     0.275 HD
ENDBRANCH   8   9
BRANCH   8  13
HETATM   13  C8  UNL     1      84.484  -1.198  44.840  1.00  0.00     0.264 C 
HETATM   14  O2  UNL     1      84.820  -1.210  46.014  1.00  0.00    -0.305 OA
ENDBRANCH   8  13
ENDBRANCH   7   8
ENDBRANCH   6   7
BRANCH   1  15
HETATM   15  O1  UNL     1      85.503  -5.304  42.016  1.00  0.00    -0.329 OA
BRANCH  15  16
HETATM   16  C2  UNL     1      86.716  -5.017  41.361  1.00  0.00     0.122 C 
HETATM   17  C1  UNL     1      87.591  -6.210  41.159  1.00  0.00     0.040 C 
HETATM   18  C3  UNL     1      86.499  -4.325  40.041  1.00  0.00     0.040 C 
ENDBRANCH  15  16
ENDBRANCH   1  15
TORSDOF 6
ENDMDL
