MODEL 1
REMARK VINA RESULT: -7.308960475      0.000      0.000
REMARK  9 active torsions:
REMARK  status: ('A' for Active; 'I' for Inactive)
REMARK    1  A    between atoms: N2_6  and  C5_7 
REMARK    2  A    between atoms: C5_7  and  O1_8 
REMARK    3  A    between atoms: C5_7  and  N3_10 
REMARK    4  A    between atoms: N3_10  and  C6_11 
REMARK    5  A    between atoms: N4_14  and  C9_15 
REMARK    6  A    between atoms: C9_15  and  C10_16 
REMARK    7  A    between atoms: C10_16  and  C11_17 
REMARK    8  A    between atoms: C10_16  and  N6_20 
REMARK    9  A    between atoms: C18_27  and  C19_28 
ROOT
HETATM    1  C6  UNL     1      -5.390  12.147  23.966  1.00  0.00     0.129 A 
HETATM    2  C7  UNL     1      -6.460  12.207  23.065  1.00  0.00     0.063 A 
HETATM    3  C8  UNL     1      -6.598  11.346  22.029  1.00  0.00     0.094 A 
HETATM    4  N4  UNL     1      -5.669  10.366  21.827  1.00  0.00    -0.363 N 
HETATM    5  C17 UNL     1      -4.638  10.265  22.653  1.00  0.00     0.110 A 
HETATM    6  C18 UNL     1      -4.463  11.137  23.741  1.00  0.00     0.085 A 
ENDROOT
BRANCH   1   7
HETATM    7  N3  UNL     1      -5.174  13.161  24.882  1.00  0.00    -0.364 NA
BRANCH   7   8
HETATM    8  C5  UNL     1      -4.967  14.132  25.762  1.00  0.00     0.296 C 
BRANCH   8   9
HETATM    9  N2  UNL     1      -5.914  15.075  26.305  1.00  0.00    -0.333 N 
HETATM   10  C4  UNL     1      -7.344  14.929  26.174  1.00  0.00     0.155 C 
HETATM   11  C3  UNL     1      -7.940  16.335  26.194  1.00  0.00     0.256 C 
HETATM   12  N1  UNL     1      -7.160  17.295  25.463  1.00  0.00    -0.072 N 
HETATM   13  C1  UNL     1      -7.770  18.592  25.697  1.00  0.00     0.272 C 
HETATM   14  C2  UNL     1      -7.212  17.041  24.021  1.00  0.00     0.272 C 
HETATM   15  C21 UNL     1      -5.802  17.397  25.924  1.00  0.00     0.256 C 
HETATM   16  C20 UNL     1      -5.453  16.280  26.929  1.00  0.00     0.155 C 
ENDBRANCH   8   9
BRANCH   8  17
HETATM   17  O1  UNL     1      -3.774  14.369  26.293  1.00  0.00    -0.321 OA
ATOM     18  H1  UNL     1      -3.892  14.776  27.143  1.00  0.00     0.222 HD
ENDBRANCH   8  17
ENDBRANCH   7   8
ENDBRANCH   1   7
BRANCH   6  19
HETATM   19  C19 UNL     1      -3.417  10.818  24.658  1.00  0.00     0.269 C 
HETATM   20  N7  UNL     1      -2.136  11.407  24.582  1.00  0.00    -0.057 NA
HETATM   21  O3  UNL     1      -3.600   9.980  25.590  1.00  0.00    -0.271 OA
ENDBRANCH   6  19
BRANCH   4  22
HETATM   22  C9  UNL     1      -5.861   9.442  20.740  1.00  0.00     0.162 C 
BRANCH  22  23
HETATM   23  C10 UNL     1      -7.218   9.486  20.142  1.00  0.00     0.196 C 
BRANCH  23  24
HETATM   24  C11 UNL     1      -7.212  10.039  18.785  1.00  0.00     0.256 C 
HETATM   25  N5  UNL     1      -6.397  11.133  18.451  1.00  0.00    -0.060 NA
HETATM   26  O2  UNL     1      -7.935   9.558  17.866  1.00  0.00    -0.274 OA
ENDBRANCH  23  24
BRANCH  23  27
HETATM   27  N6  UNL     1      -7.879   8.196  20.152  1.00  0.00    -0.352 N 
HETATM   28  C12 UNL     1      -7.220   7.050  19.807  1.00  0.00     0.091 A 
HETATM   29  C13 UNL     1      -7.823   5.811  19.821  1.00  0.00     0.017 A 
HETATM   30  C14 UNL     1      -9.147   5.702  20.196  1.00  0.00     0.003 A 
HETATM   31  C15 UNL     1      -9.815   6.869  20.547  1.00  0.00     0.017 A 
HETATM   32  C16 UNL     1      -9.164   8.075  20.514  1.00  0.00     0.091 A 
ENDBRANCH  23  27
ENDBRANCH  22  23
ENDBRANCH   4  22
TORSDOF 9
ENDMDL
MODEL 2
REMARK VINA RESULT: -7.302598048      3.748      8.940
REMARK  9 active torsions:
REMARK  status: ('A' for Active; 'I' for Inactive)
REMARK    1  A    between atoms: N2_6  and  C5_7 
REMARK    2  A    between atoms: C5_7  and  O1_8 
REMARK    3  A    between atoms: C5_7  and  N3_10 
REMARK    4  A    between atoms: N3_10  and  C6_11 
REMARK    5  A    between atoms: N4_14  and  C9_15 
REMARK    6  A    between atoms: C9_15  and  C10_16 
REMARK    7  A    between atoms: C10_16  and  C11_17 
REMARK    8  A    between atoms: C10_16  and  N6_20 
REMARK    9  A    between atoms: C18_27  and  C19_28 
ROOT
HETATM    1  C6  UNL     1      -6.652  10.467  20.205  1.00  0.00     0.129 A 
HETATM    2  C7  UNL     1      -6.520   9.801  21.430  1.00  0.00     0.063 A 
HETATM    3  C8  UNL     1      -5.665  10.206  22.398  1.00  0.00     0.094 A 
HETATM    4  N4  UNL     1      -4.884  11.308  22.203  1.00  0.00    -0.363 N 
HETATM    5  C17 UNL     1      -4.973  11.976  21.061  1.00  0.00     0.110 A 
HETATM    6  C18 UNL     1      -5.850  11.589  20.035  1.00  0.00     0.085 A 
ENDROOT
BRANCH   1   7
HETATM    7  N3  UNL     1      -7.379   9.910  19.168  1.00  0.00    -0.364 NA
BRANCH   7   8
HETATM    8  C5  UNL     1      -8.077   9.378  18.173  1.00  0.00     0.296 C 
BRANCH   8   9
HETATM    9  N2  UNL     1      -8.771   8.113  18.134  1.00  0.00    -0.333 N 
HETATM   10  C4  UNL     1     -10.154   7.955  18.512  1.00  0.00     0.155 C 
HETATM   11  C3  UNL     1     -10.317   6.524  19.022  1.00  0.00     0.256 C 
HETATM   12  N1  UNL     1      -9.209   6.073  19.818  1.00  0.00    -0.072 N 
HETATM   13  C1  UNL     1      -9.443   4.667  20.099  1.00  0.00     0.272 C 
HETATM   14  C2  UNL     1      -9.155   6.773  21.104  1.00  0.00     0.272 C 
HETATM   15  C21 UNL     1      -7.947   6.146  19.133  1.00  0.00     0.256 C 
HETATM   16  C20 UNL     1      -8.062   6.914  17.800  1.00  0.00     0.155 C 
ENDBRANCH   8   9
BRANCH   8  17
HETATM   17  O1  UNL     1      -8.238   9.992  17.008  1.00  0.00    -0.321 OA
ATOM     18  H1  UNL     1      -9.005  10.550  17.059  1.00  0.00     0.222 HD
ENDBRANCH   8  17
ENDBRANCH   7   8
ENDBRANCH   1   7
BRANCH   6  19
HETATM   19  C19 UNL     1      -5.985  12.485  18.932  1.00  0.00     0.269 C 
HETATM   20  N7  UNL     1      -5.063  12.517  17.864  1.00  0.00    -0.057 NA
HETATM   21  O3  UNL     1      -6.953  13.301  18.870  1.00  0.00    -0.271 OA
ENDBRANCH   6  19
BRANCH   4  22
HETATM   22  C9  UNL     1      -4.013  11.738  23.265  1.00  0.00     0.162 C 
BRANCH  22  23
HETATM   23  C10 UNL     1      -2.776  10.928  23.397  1.00  0.00     0.196 C 
BRANCH  23  24
HETATM   24  C11 UNL     1      -1.585  11.649  22.941  1.00  0.00     0.256 C 
HETATM   25  N5  UNL     1      -1.278  11.753  21.574  1.00  0.00    -0.060 NA
HETATM   26  O2  UNL     1      -0.790  12.202  23.753  1.00  0.00    -0.274 OA
ENDBRANCH  23  24
BRANCH  23  27
HETATM   27  N6  UNL     1      -2.574  10.429  24.742  1.00  0.00    -0.352 N 
HETATM   28  C12 UNL     1      -3.179  11.009  25.821  1.00  0.00     0.091 A 
HETATM   29  C13 UNL     1      -3.010  10.545  27.108  1.00  0.00     0.017 A 
HETATM   30  C14 UNL     1      -2.201   9.451  27.337  1.00  0.00     0.003 A 
HETATM   31  C15 UNL     1      -1.587   8.863  26.239  1.00  0.00     0.017 A 
HETATM   32  C16 UNL     1      -1.790   9.367  24.980  1.00  0.00     0.091 A 
ENDBRANCH  23  27
ENDBRANCH  22  23
ENDBRANCH   4  22
TORSDOF 9
ENDMDL
MODEL 3
REMARK VINA RESULT: -7.119882049      0.673      1.406
REMARK  9 active torsions:
REMARK  status: ('A' for Active; 'I' for Inactive)
REMARK    1  A    between atoms: N2_6  and  C5_7 
REMARK    2  A    between atoms: C5_7  and  O1_8 
REMARK    3  A    between atoms: C5_7  and  N3_10 
REMARK    4  A    between atoms: N3_10  and  C6_11 
REMARK    5  A    between atoms: N4_14  and  C9_15 
REMARK    6  A    between atoms: C9_15  and  C10_16 
REMARK    7  A    between atoms: C10_16  and  C11_17 
REMARK    8  A    between atoms: C10_16  and  N6_20 
REMARK    9  A    between atoms: C18_27  and  C19_28 
ROOT
HETATM    1  C6  UNL     1      -5.391  12.384  23.693  1.00  0.00     0.129 A 
HETATM    2  C7  UNL     1      -6.395  12.461  22.719  1.00  0.00     0.063 A 
HETATM    3  C8  UNL     1      -6.537  11.542  21.735  1.00  0.00     0.094 A 
HETATM    4  N4  UNL     1      -5.679  10.483  21.660  1.00  0.00    -0.363 N 
HETATM    5  C17 UNL     1      -4.712  10.363  22.560  1.00  0.00     0.110 A 
HETATM    6  C18 UNL     1      -4.536  11.293  23.597  1.00  0.00     0.085 A 
ENDROOT
BRANCH   1   7
HETATM    7  N3  UNL     1      -5.153  13.441  24.553  1.00  0.00    -0.364 NA
BRANCH   7   8
HETATM    8  C5  UNL     1      -4.924  14.456  25.376  1.00  0.00     0.296 C 
BRANCH   8   9
HETATM    9  N2  UNL     1      -5.624  15.714  25.472  1.00  0.00    -0.333 N 
HETATM   10  C4  UNL     1      -5.906  16.372  26.725  1.00  0.00     0.155 C 
HETATM   11  C3  UNL     1      -7.179  17.191  26.524  1.00  0.00     0.256 C 
HETATM   12  N1  UNL     1      -8.169  16.518  25.729  1.00  0.00    -0.072 N 
HETATM   13  C1  UNL     1      -9.244  17.471  25.508  1.00  0.00     0.272 C 
HETATM   14  C2  UNL     1      -8.740  15.373  26.442  1.00  0.00     0.272 C 
HETATM   15  C21 UNL     1      -7.693  16.135  24.427  1.00  0.00     0.256 C 
HETATM   16  C20 UNL     1      -6.168  16.327  24.297  1.00  0.00     0.155 C 
ENDBRANCH   8   9
BRANCH   8  17
HETATM   17  O1  UNL     1      -3.955  14.435  26.282  1.00  0.00    -0.321 OA
ATOM     18  H1  UNL     1      -3.240  13.902  25.953  1.00  0.00     0.222 HD
ENDBRANCH   8  17
ENDBRANCH   7   8
ENDBRANCH   1   7
BRANCH   6  19
HETATM   19  C19 UNL     1      -3.578  10.962  24.602  1.00  0.00     0.269 C 
HETATM   20  N7  UNL     1      -2.284  11.526  24.632  1.00  0.00    -0.057 NA
HETATM   21  O3  UNL     1      -3.856  10.134  25.520  1.00  0.00    -0.271 OA
ENDBRANCH   6  19
BRANCH   4  22
HETATM   22  C9  UNL     1      -5.876   9.502  20.627  1.00  0.00     0.162 C 
BRANCH  22  23
HETATM   23  C10 UNL     1      -7.240   9.507  20.041  1.00  0.00     0.196 C 
BRANCH  23  24
HETATM   24  C11 UNL     1      -7.255  10.005  18.664  1.00  0.00     0.256 C 
HETATM   25  N5  UNL     1      -6.476  11.112  18.284  1.00  0.00    -0.060 NA
HETATM   26  O2  UNL     1      -7.962   9.465  17.767  1.00  0.00    -0.274 OA
ENDBRANCH  23  24
BRANCH  23  27
HETATM   27  N6  UNL     1      -7.885   8.211  20.109  1.00  0.00    -0.352 N 
HETATM   28  C12 UNL     1      -9.194   8.079  20.475  1.00  0.00     0.091 A 
HETATM   29  C13 UNL     1      -9.831   6.858  20.536  1.00  0.00     0.017 A 
HETATM   30  C14 UNL     1      -9.135   5.710  20.217  1.00  0.00     0.003 A 
HETATM   31  C15 UNL     1      -7.804   5.846  19.845  1.00  0.00     0.017 A 
HETATM   32  C16 UNL     1      -7.221   7.086  19.802  1.00  0.00     0.091 A 
ENDBRANCH  23  27
ENDBRANCH  22  23
ENDBRANCH   4  22
TORSDOF 9
ENDMDL
MODEL 4
REMARK VINA RESULT: -7.068750510      3.397      8.786
REMARK  9 active torsions:
REMARK  status: ('A' for Active; 'I' for Inactive)
REMARK    1  A    between atoms: N2_6  and  C5_7 
REMARK    2  A    between atoms: C5_7  and  O1_8 
REMARK    3  A    between atoms: C5_7  and  N3_10 
REMARK    4  A    between atoms: N3_10  and  C6_11 
REMARK    5  A    between atoms: N4_14  and  C9_15 
REMARK    6  A    between atoms: C9_15  and  C10_16 
REMARK    7  A    between atoms: C10_16  and  C11_17 
REMARK    8  A    between atoms: C10_16  and  N6_20 
REMARK    9  A    between atoms: C18_27  and  C19_28 
ROOT
HETATM    1  C6  UNL     1      -6.941  10.572  20.885  1.00  0.00     0.129 A 
HETATM    2  C7  UNL     1      -5.677   9.979  21.002  1.00  0.00     0.063 A 
HETATM    3  C8  UNL     1      -4.783  10.338  21.953  1.00  0.00     0.094 A 
HETATM    4  N4  UNL     1      -5.095  11.317  22.851  1.00  0.00    -0.363 N 
HETATM    5  C17 UNL     1      -6.280  11.909  22.784  1.00  0.00     0.110 A 
HETATM    6  C18 UNL     1      -7.235  11.561  21.815  1.00  0.00     0.085 A 
ENDROOT
BRANCH   1   7
HETATM    7  N3  UNL     1      -7.742  10.326  19.784  1.00  0.00    -0.364 NA
BRANCH   7   8
HETATM    8  C5  UNL     1      -8.511  10.092  18.729  1.00  0.00     0.296 C 
BRANCH   8   9
HETATM    9  N2  UNL     1      -9.173   8.868  18.349  1.00  0.00    -0.333 N 
HETATM   10  C4  UNL     1     -10.540   8.563  18.697  1.00  0.00     0.155 C 
HETATM   11  C3  UNL     1     -10.650   7.042  18.785  1.00  0.00     0.256 C 
HETATM   12  N1  UNL     1      -9.508   6.422  19.397  1.00  0.00    -0.072 N 
HETATM   13  C1  UNL     1      -9.696   4.987  19.274  1.00  0.00     0.272 C 
HETATM   14  C2  UNL     1      -9.433   6.733  20.827  1.00  0.00     0.272 C 
HETATM   15  C21 UNL     1      -8.268   6.726  18.734  1.00  0.00     0.256 C 
HETATM   16  C20 UNL     1      -8.443   7.834  17.675  1.00  0.00     0.155 C 
ENDBRANCH   8   9
BRANCH   8  17
HETATM   17  O1  UNL     1      -8.790  11.027  17.830  1.00  0.00    -0.321 OA
ATOM     18  H1  UNL     1      -8.586  11.878  18.199  1.00  0.00     0.222 HD
ENDBRANCH   8  17
ENDBRANCH   7   8
ENDBRANCH   1   7
BRANCH   6  19
HETATM   19  C19 UNL     1      -8.533  12.139  21.955  1.00  0.00     0.269 C 
HETATM   20  N7  UNL     1      -8.949  13.262  21.206  1.00  0.00    -0.057 NA
HETATM   21  O3  UNL     1      -9.375  11.661  22.772  1.00  0.00    -0.271 OA
ENDBRANCH   6  19
BRANCH   4  22
HETATM   22  C9  UNL     1      -4.140  11.652  23.874  1.00  0.00     0.162 C 
BRANCH  22  23
HETATM   23  C10 UNL     1      -2.933  10.788  23.879  1.00  0.00     0.196 C 
BRANCH  23  24
HETATM   24  C11 UNL     1      -1.733  11.503  23.441  1.00  0.00     0.256 C 
HETATM   25  N5  UNL     1      -1.381  11.566  22.082  1.00  0.00    -0.060 NA
HETATM   26  O2  UNL     1      -0.969  12.090  24.260  1.00  0.00    -0.274 OA
ENDBRANCH  23  24
BRANCH  23  27
HETATM   27  N6  UNL     1      -2.698  10.160  25.164  1.00  0.00    -0.352 N 
HETATM   28  C12 UNL     1      -3.377  10.545  26.286  1.00  0.00     0.091 A 
HETATM   29  C13 UNL     1      -3.178   9.955  27.516  1.00  0.00     0.017 A 
HETATM   30  C14 UNL     1      -2.261   8.932  27.640  1.00  0.00     0.003 A 
HETATM   31  C15 UNL     1      -1.573   8.542  26.499  1.00  0.00     0.017 A 
HETATM   32  C16 UNL     1      -1.810   9.164  25.300  1.00  0.00     0.091 A 
ENDBRANCH  23  27
ENDBRANCH  22  23
ENDBRANCH   4  22
TORSDOF 9
ENDMDL
MODEL 5
REMARK VINA RESULT: -7.021409686      4.020      8.728
REMARK  9 active torsions:
REMARK  status: ('A' for Active; 'I' for Inactive)
REMARK    1  A    between atoms: N2_6  and  C5_7 
REMARK    2  A    between atoms: C5_7  and  O1_8 
REMARK    3  A    between atoms: C5_7  and  N3_10 
REMARK    4  A    between atoms: N3_10  and  C6_11 
REMARK    5  A    between atoms: N4_14  and  C9_15 
REMARK    6  A    between atoms: C9_15  and  C10_16 
REMARK    7  A    between atoms: C10_16  and  C11_17 
REMARK    8  A    between atoms: C10_16  and  N6_20 
REMARK    9  A    between atoms: C18_27  and  C19_28 
ROOT
HETATM    1  C6  UNL     1      -6.490  10.398  19.664  1.00  0.00     0.129 A 
HETATM    2  C7  UNL     1      -5.639  11.491  19.870  1.00  0.00     0.063 A 
HETATM    3  C8  UNL     1      -5.025  11.732  21.053  1.00  0.00     0.094 A 
HETATM    4  N4  UNL     1      -5.225  10.892  22.110  1.00  0.00    -0.363 N 
HETATM    5  C17 UNL     1      -6.020   9.841  21.966  1.00  0.00     0.110 A 
HETATM    6  C18 UNL     1      -6.670   9.556  20.754  1.00  0.00     0.085 A 
ENDROOT
BRANCH   1   7
HETATM    7  N3  UNL     1      -7.253  10.299  18.515  1.00  0.00    -0.364 NA
BRANCH   7   8
HETATM    8  C5  UNL     1      -7.986  10.202  17.413  1.00  0.00     0.296 C 
BRANCH   8   9
HETATM    9  N2  UNL     1      -9.418  10.302  17.270  1.00  0.00    -0.333 N 
HETATM   10  C4  UNL     1     -10.306  10.611  18.364  1.00  0.00     0.155 C 
HETATM   11  C3  UNL     1     -11.648   9.953  18.051  1.00  0.00     0.256 C 
HETATM   12  N1  UNL     1     -11.520   8.648  17.466  1.00  0.00    -0.072 N 
HETATM   13  C1  UNL     1     -12.859   8.224  17.095  1.00  0.00     0.272 C 
HETATM   14  C2  UNL     1     -11.005   7.676  18.433  1.00  0.00     0.272 C 
HETATM   15  C21 UNL     1     -10.743   8.638  16.255  1.00  0.00     0.256 C 
HETATM   16  C20 UNL     1     -10.039   9.990  16.017  1.00  0.00     0.155 C 
ENDBRANCH   8   9
BRANCH   8  17
HETATM   17  O1  UNL     1      -7.449   9.990  16.218  1.00  0.00    -0.321 OA
ATOM     18  H1  UNL     1      -6.623   9.534  16.329  1.00  0.00     0.222 HD
ENDBRANCH   8  17
ENDBRANCH   7   8
ENDBRANCH   1   7
BRANCH   6  19
HETATM   19  C19 UNL     1      -7.354   8.305  20.669  1.00  0.00     0.269 C 
HETATM   20  N7  UNL     1      -8.550   8.045  21.372  1.00  0.00    -0.057 NA
HETATM   21  O3  UNL     1      -6.904   7.364  19.950  1.00  0.00    -0.271 OA
ENDBRANCH   6  19
BRANCH   4  22
HETATM   22  C9  UNL     1      -4.531  11.151  23.344  1.00  0.00     0.162 C 
BRANCH  22  23
HETATM   23  C10 UNL     1      -3.209  10.485  23.444  1.00  0.00     0.196 C 
BRANCH  23  24
HETATM   24  C11 UNL     1      -2.134  11.285  22.854  1.00  0.00     0.256 C 
HETATM   25  N5  UNL     1      -1.761  12.522  23.407  1.00  0.00    -0.060 NA
HETATM   26  O2  UNL     1      -1.501  10.900  21.830  1.00  0.00    -0.274 OA
ENDBRANCH  23  24
BRANCH  23  27
HETATM   27  N6  UNL     1      -2.868  10.117  24.804  1.00  0.00    -0.352 N 
HETATM   28  C12 UNL     1      -1.801   9.312  25.084  1.00  0.00     0.091 A 
HETATM   29  C13 UNL     1      -1.450   8.959  26.370  1.00  0.00     0.017 A 
HETATM   30  C14 UNL     1      -2.195   9.429  27.432  1.00  0.00     0.003 A 
HETATM   31  C15 UNL     1      -3.280  10.248  27.145  1.00  0.00     0.017 A 
HETATM   32  C16 UNL     1      -3.583  10.566  25.847  1.00  0.00     0.091 A 
ENDBRANCH  23  27
ENDBRANCH  22  23
ENDBRANCH   4  22
TORSDOF 9
ENDMDL
