MODEL 1
REMARK VINA RESULT: -8.357263615      0.000      0.000
REMARK  4 active torsions:
REMARK  status: ('A' for Active; 'I' for Inactive)
REMARK    1  A    between atoms: N2_8  and  C6_9 
REMARK    2  A    between atoms: C6_9  and  C7_10 
REMARK    3  A    between atoms: C7_10  and  C8_11 
REMARK    4  A    between atoms: C8_11  and  N3_12 
ROOT
HETATM    1  C1  UNL     1     -10.521 204.429 110.169  1.00  0.00     0.068 C 
HETATM    2  C2  UNL     1     -11.486 204.101 111.259  1.00  0.00     0.007 A 
HETATM    3  C3  UNL     1     -12.688 203.451 111.080  1.00  0.00     0.036 A 
HETATM    4  C4  UNL     1     -13.292 203.337 112.305  1.00  0.00    -0.004 A 
HETATM    5  C5  UNL     1     -12.464 203.919 113.249  1.00  0.00     0.111 A 
HETATM    6  N1  UNL     1     -11.393 204.362 112.570  1.00  0.00    -0.346 N 
ATOM      7  H1  UNL     1     -10.602 204.841 113.002  1.00  0.00     0.167 HD
HETATM    8  N2  UNL     1     -12.861 203.948 114.620  1.00  0.00    -0.358 N 
HETATM    9  C14 UNL     1     -14.297 204.012 114.816  1.00  0.00     0.028 C 
HETATM   10  C15 UNL     1     -14.731 203.933 116.238  1.00  0.00     0.038 C 
HETATM   11  C16 UNL     1     -14.793 205.328 114.247  1.00  0.00     0.038 C 
HETATM   12  C17 UNL     1     -15.015 202.918 114.064  1.00  0.00     0.044 C 
HETATM   13  C18 UNL     1     -14.584 202.706 112.661  1.00  0.00    -0.015 C 
HETATM   14  C19 UNL     1     -14.344 201.191 112.511  1.00  0.00     0.020 C 
HETATM   15  C20 UNL     1     -15.680 203.035 111.669  1.00  0.00     0.020 C 
ENDROOT
BRANCH   8  16
HETATM   16  C6  UNL     1     -11.882 203.911 115.655  1.00  0.00     0.127 C 
BRANCH  16  17
HETATM   17  C7  UNL     1     -11.395 205.249 116.145  1.00  0.00     0.050 C 
BRANCH  17  18
HETATM   18  C8  UNL     1      -9.921 205.319 116.318  1.00  0.00     0.274 C 
BRANCH  18  19
HETATM   19  N3  UNL     1      -9.169 205.101 115.079  1.00  0.00     0.091 N 
HETATM   20  C9  UNL     1      -9.001 206.426 114.466  1.00  0.00     0.302 C 
HETATM   21  C10 UNL     1      -7.993 206.388 113.368  1.00  0.00     0.302 C 
HETATM   22  N4  UNL     1      -7.729 205.029 112.948  1.00  0.00     0.087 N 
HETATM   23  C11 UNL     1      -6.783 205.132 111.835  1.00  0.00     0.310 C 
HETATM   24  C12 UNL     1      -7.198 204.238 114.019  1.00  0.00     0.302 C 
HETATM   25  C13 UNL     1      -7.860 204.524 115.339  1.00  0.00     0.302 C 
ENDBRANCH  18  19
ENDBRANCH  17  18
ENDBRANCH  16  17
ENDBRANCH   8  16
TORSDOF 4
ENDMDL
MODEL 2
REMARK VINA RESULT: -8.185313691      1.496      1.747
REMARK  4 active torsions:
REMARK  status: ('A' for Active; 'I' for Inactive)
REMARK    1  A    between atoms: N2_8  and  C6_9 
REMARK    2  A    between atoms: C6_9  and  C7_10 
REMARK    3  A    between atoms: C7_10  and  C8_11 
REMARK    4  A    between atoms: C8_11  and  N3_12 
ROOT
HETATM    1  C1  UNL     1     -11.456 204.785 109.419  1.00  0.00     0.068 C 
HETATM    2  C2  UNL     1     -11.938 204.025 110.609  1.00  0.00     0.007 A 
HETATM    3  C3  UNL     1     -13.190 203.461 110.733  1.00  0.00     0.036 A 
HETATM    4  C4  UNL     1     -13.261 202.855 111.960  1.00  0.00    -0.004 A 
HETATM    5  C5  UNL     1     -12.049 203.042 112.602  1.00  0.00     0.111 A 
HETATM    6  N1  UNL     1     -11.289 203.749 111.749  1.00  0.00    -0.346 N 
ATOM      7  H1  UNL     1     -10.333 204.043 111.946  1.00  0.00     0.167 HD
HETATM    8  N2  UNL     1     -11.852 202.516 113.915  1.00  0.00    -0.358 N 
HETATM    9  C14 UNL     1     -13.064 202.454 114.711  1.00  0.00     0.028 C 
HETATM   10  C15 UNL     1     -12.896 201.807 116.042  1.00  0.00     0.038 C 
HETATM   11  C16 UNL     1     -13.553 203.872 114.938  1.00  0.00     0.038 C 
HETATM   12  C17 UNL     1     -14.172 201.724 113.991  1.00  0.00     0.044 C 
HETATM   13  C18 UNL     1     -14.376 202.096 112.571  1.00  0.00    -0.015 C 
HETATM   14  C19 UNL     1     -14.436 200.771 111.785  1.00  0.00     0.020 C 
HETATM   15  C20 UNL     1     -15.719 202.757 112.338  1.00  0.00     0.020 C 
ENDROOT
BRANCH   8  16
HETATM   16  C6  UNL     1     -10.557 202.103 114.340  1.00  0.00     0.127 C 
BRANCH  16  17
HETATM   17  C7  UNL     1      -9.858 203.026 115.304  1.00  0.00     0.050 C 
BRANCH  17  18
HETATM   18  C8  UNL     1      -9.372 204.283 114.678  1.00  0.00     0.274 C 
BRANCH  18  19
HETATM   19  N3  UNL     1      -8.106 204.133 113.954  1.00  0.00     0.091 N 
HETATM   20  C9  UNL     1      -8.233 204.951 112.741  1.00  0.00     0.302 C 
HETATM   21  C10 UNL     1      -6.912 205.135 112.073  1.00  0.00     0.302 C 
HETATM   22  N4  UNL     1      -5.943 204.178 112.563  1.00  0.00     0.087 N 
HETATM   23  C11 UNL     1      -4.721 204.419 111.792  1.00  0.00     0.310 C 
HETATM   24  C12 UNL     1      -5.716 204.327 113.970  1.00  0.00     0.302 C 
HETATM   25  C13 UNL     1      -6.979 204.609 114.738  1.00  0.00     0.302 C 
ENDBRANCH  18  19
ENDBRANCH  17  18
ENDBRANCH  16  17
ENDBRANCH   8  16
TORSDOF 4
ENDMDL
MODEL 3
REMARK VINA RESULT: -8.095745642      0.994      1.363
REMARK  4 active torsions:
REMARK  status: ('A' for Active; 'I' for Inactive)
REMARK    1  A    between atoms: N2_8  and  C6_9 
REMARK    2  A    between atoms: C6_9  and  C7_10 
REMARK    3  A    between atoms: C7_10  and  C8_11 
REMARK    4  A    between atoms: C8_11  and  N3_12 
ROOT
HETATM    1  C1  UNL     1     -10.816 204.366 109.667  1.00  0.00     0.068 C 
HETATM    2  C2  UNL     1     -11.691 204.013 110.823  1.00  0.00     0.007 A 
HETATM    3  C3  UNL     1     -13.009 203.621 110.726  1.00  0.00     0.036 A 
HETATM    4  C4  UNL     1     -13.475 203.389 111.994  1.00  0.00    -0.004 A 
HETATM    5  C5  UNL     1     -12.443 203.639 112.884  1.00  0.00     0.111 A 
HETATM    6  N1  UNL     1     -11.395 204.010 112.131  1.00  0.00    -0.346 N 
ATOM      7  H1  UNL     1     -10.481 204.261 112.509  1.00  0.00     0.167 HD
HETATM    8  N2  UNL     1     -12.662 203.485 114.286  1.00  0.00    -0.358 N 
HETATM    9  C14 UNL     1     -14.026 203.755 114.702  1.00  0.00     0.028 C 
HETATM   10  C15 UNL     1     -14.296 203.492 116.143  1.00  0.00     0.038 C 
HETATM   11  C16 UNL     1     -14.321 205.217 114.429  1.00  0.00     0.038 C 
HETATM   12  C17 UNL     1     -15.025 202.954 113.903  1.00  0.00     0.044 C 
HETATM   13  C18 UNL     1     -14.813 202.933 112.436  1.00  0.00    -0.015 C 
HETATM   14  C19 UNL     1     -14.889 201.452 112.014  1.00  0.00     0.020 C 
HETATM   15  C20 UNL     1     -15.933 203.619 111.683  1.00  0.00     0.020 C 
ENDROOT
BRANCH   8  16
HETATM   16  C6  UNL     1     -11.594 203.093 115.143  1.00  0.00     0.127 C 
BRANCH  16  17
HETATM   17  C7  UNL     1     -10.937 204.203 115.921  1.00  0.00     0.050 C 
BRANCH  17  18
HETATM   18  C8  UNL     1     -10.445 205.316 115.068  1.00  0.00     0.274 C 
BRANCH  18  19
HETATM   19  N3  UNL     1      -8.984 205.439 115.040  1.00  0.00     0.091 N 
HETATM   20  C9  UNL     1      -8.497 204.313 114.231  1.00  0.00     0.302 C 
HETATM   21  C10 UNL     1      -7.062 204.493 113.865  1.00  0.00     0.302 C 
HETATM   22  N4  UNL     1      -6.436 205.504 114.690  1.00  0.00     0.087 N 
HETATM   23  C11 UNL     1      -5.031 205.539 114.279  1.00  0.00     0.310 C 
HETATM   24  C12 UNL     1      -7.064 206.782 114.528  1.00  0.00     0.302 C 
HETATM   25  C13 UNL     1      -8.562 206.688 114.427  1.00  0.00     0.302 C 
ENDBRANCH  18  19
ENDBRANCH  17  18
ENDBRANCH  16  17
ENDBRANCH   8  16
TORSDOF 4
ENDMDL
MODEL 4
REMARK VINA RESULT: -8.050374520      1.532      3.951
REMARK  4 active torsions:
REMARK  status: ('A' for Active; 'I' for Inactive)
REMARK    1  A    between atoms: N2_8  and  C6_9 
REMARK    2  A    between atoms: C6_9  and  C7_10 
REMARK    3  A    between atoms: C7_10  and  C8_11 
REMARK    4  A    between atoms: C8_11  and  N3_12 
ROOT
HETATM    1  C1  UNL     1     -11.506 201.269 116.895  1.00  0.00     0.068 C 
HETATM    2  C2  UNL     1     -12.146 201.938 115.725  1.00  0.00     0.007 A 
HETATM    3  C3  UNL     1     -13.316 202.667 115.774  1.00  0.00     0.036 A 
HETATM    4  C4  UNL     1     -13.585 203.118 114.509  1.00  0.00    -0.004 A 
HETATM    5  C5  UNL     1     -12.581 202.668 113.668  1.00  0.00     0.111 A 
HETATM    6  N1  UNL     1     -11.742 201.965 114.447  1.00  0.00    -0.346 N 
ATOM      7  H1  UNL     1     -10.897 201.506 114.107  1.00  0.00     0.167 HD
HETATM    8  N2  UNL     1     -12.622 202.988 112.278  1.00  0.00    -0.358 N 
HETATM    9  C14 UNL     1     -13.965 203.135 111.747  1.00  0.00     0.028 C 
HETATM   10  C15 UNL     1     -14.023 203.576 110.326  1.00  0.00     0.038 C 
HETATM   11  C16 UNL     1     -14.662 201.792 111.850  1.00  0.00     0.038 C 
HETATM   12  C17 UNL     1     -14.784 204.111 112.556  1.00  0.00     0.044 C 
HETATM   13  C18 UNL     1     -14.708 203.956 114.029  1.00  0.00    -0.015 C 
HETATM   14  C19 UNL     1     -14.427 205.362 114.593  1.00  0.00     0.020 C 
HETATM   15  C20 UNL     1     -16.035 203.543 114.632  1.00  0.00     0.020 C 
ENDROOT
BRANCH   8  16
HETATM   16  C6  UNL     1     -11.415 203.140 111.537  1.00  0.00     0.127 C 
BRANCH  16  17
HETATM   17  C7  UNL     1     -10.857 204.537 111.473  1.00  0.00     0.050 C 
BRANCH  17  18
HETATM   18  C8  UNL     1      -9.513 204.669 112.094  1.00  0.00     0.274 C 
BRANCH  18  19
HETATM   19  N3  UNL     1      -9.494 204.389 113.532  1.00  0.00     0.091 N 
HETATM   20  C9  UNL     1      -8.079 204.391 113.928  1.00  0.00     0.302 C 
HETATM   21  C10 UNL     1      -7.934 204.428 115.412  1.00  0.00     0.302 C 
HETATM   22  N4  UNL     1      -9.177 204.078 116.066  1.00  0.00     0.087 N 
HETATM   23  C11 UNL     1      -8.888 204.088 117.502  1.00  0.00     0.310 C 
HETATM   24  C12 UNL     1     -10.226 204.996 115.734  1.00  0.00     0.302 C 
HETATM   25  C13 UNL     1     -10.204 205.408 114.287  1.00  0.00     0.302 C 
ENDBRANCH  18  19
ENDBRANCH  17  18
ENDBRANCH  16  17
ENDBRANCH   8  16
TORSDOF 4
ENDMDL
MODEL 5
REMARK VINA RESULT: -7.928565656      2.226      4.020
REMARK  4 active torsions:
REMARK  status: ('A' for Active; 'I' for Inactive)
REMARK    1  A    between atoms: N2_8  and  C6_9 
REMARK    2  A    between atoms: C6_9  and  C7_10 
REMARK    3  A    between atoms: C7_10  and  C8_11 
REMARK    4  A    between atoms: C8_11  and  N3_12 
ROOT
HETATM    1  C1  UNL     1     -11.251 204.806 109.510  1.00  0.00     0.068 C 
HETATM    2  C2  UNL     1     -11.829 204.022 110.640  1.00  0.00     0.007 A 
HETATM    3  C3  UNL     1     -13.065 203.411 110.627  1.00  0.00     0.036 A 
HETATM    4  C4  UNL     1     -13.245 202.795 111.838  1.00  0.00    -0.004 A 
HETATM    5  C5  UNL     1     -12.117 203.023 112.608  1.00  0.00     0.111 A 
HETATM    6  N1  UNL     1     -11.298 203.764 111.843  1.00  0.00    -0.346 N 
ATOM      7  H1  UNL     1     -10.379 204.092 112.143  1.00  0.00     0.167 HD
HETATM    8  N2  UNL     1     -12.044 202.498 113.933  1.00  0.00    -0.358 N 
HETATM    9  C14 UNL     1     -13.331 202.385 114.594  1.00  0.00     0.028 C 
HETATM   10  C15 UNL     1     -13.283 201.738 115.934  1.00  0.00     0.038 C 
HETATM   11  C16 UNL     1     -13.895 203.783 114.769  1.00  0.00     0.038 C 
HETATM   12  C17 UNL     1     -14.326 201.619 113.757  1.00  0.00     0.044 C 
HETATM   13  C18 UNL     1     -14.390 201.991 112.324  1.00  0.00    -0.015 C 
HETATM   14  C19 UNL     1     -14.314 200.670 111.534  1.00  0.00     0.020 C 
HETATM   15  C20 UNL     1     -15.724 202.602 111.949  1.00  0.00     0.020 C 
ENDROOT
BRANCH   8  16
HETATM   16  C6  UNL     1     -10.787 202.132 114.495  1.00  0.00     0.127 C 
BRANCH  16  17
HETATM   17  C7  UNL     1      -9.934 203.269 114.991  1.00  0.00     0.050 C 
BRANCH  17  18
HETATM   18  C8  UNL     1      -9.665 203.219 116.451  1.00  0.00     0.274 C 
BRANCH  18  19
HETATM   19  N3  UNL     1     -10.861 203.398 117.280  1.00  0.00     0.091 N 
HETATM   20  C9  UNL     1     -10.477 202.998 118.640  1.00  0.00     0.302 C 
HETATM   21  C10 UNL     1     -11.502 203.422 119.637  1.00  0.00     0.302 C 
HETATM   22  N4  UNL     1     -12.749 203.767 118.989  1.00  0.00     0.087 N 
HETATM   23  C11 UNL     1     -13.680 204.101 120.068  1.00  0.00     0.310 C 
HETATM   24  C12 UNL     1     -12.586 204.861 118.077  1.00  0.00     0.302 C 
HETATM   25  C13 UNL     1     -11.304 204.782 117.294  1.00  0.00     0.302 C 
ENDBRANCH  18  19
ENDBRANCH  17  18
ENDBRANCH  16  17
ENDBRANCH   8  16
TORSDOF 4
ENDMDL
