MODEL 1
REMARK VINA RESULT: -8.573151760      0.000      0.000
REMARK  5 active torsions:
REMARK  status: ('A' for Active; 'I' for Inactive)
REMARK    1  A    between atoms: C1_2  and  O2_3 
REMARK    2  A    between atoms: C1_2  and  C13_15 
REMARK    3  A    between atoms: O2_3  and  C2_4 
REMARK    4  A    between atoms: C2_4  and  C3_5 
REMARK    5  A    between atoms: C19_22  and  C20_23 
ROOT
HETATM    1  O1  UNL     1      -9.402 205.527 112.349  1.00  0.00    -0.265 OA
HETATM    2  C1  UNL     1      -9.821 204.404 112.682  1.00  0.00     0.266 C 
ENDROOT
BRANCH   2   3
HETATM    3  O2  UNL     1     -10.755 203.797 111.922  1.00  0.00    -0.320 OA
BRANCH   3   4
HETATM    4  C2  UNL     1     -11.963 204.177 111.478  1.00  0.00     0.188 C 
BRANCH   4   5
HETATM    5  C3  UNL     1     -13.240 203.693 112.056  1.00  0.00    -0.017 C 
HETATM    6  C4  UNL     1     -12.880 202.279 112.572  1.00  0.00     0.016 C 
HETATM    7  C5  UNL     1     -14.037 201.554 113.150  1.00  0.00    -0.013 C 
HETATM    8  C6  UNL     1     -15.072 201.342 112.087  1.00  0.00     0.009 C 
HETATM    9  C10 UNL     1     -14.546 202.368 114.320  1.00  0.00     0.009 C 
HETATM   10  C7  UNL     1     -15.453 202.705 111.565  1.00  0.00    -0.013 C 
HETATM   11  C8  UNL     1     -16.110 203.442 112.731  1.00  0.00     0.009 C 
HETATM   12  C12 UNL     1     -14.301 203.458 110.993  1.00  0.00     0.016 C 
HETATM   13  C9  UNL     1     -15.032 203.672 113.751  1.00  0.00    -0.013 C 
HETATM   14  C11 UNL     1     -13.863 204.451 113.156  1.00  0.00     0.016 C 
ENDBRANCH   4   5
ENDBRANCH   3   4
ENDBRANCH   2   3
BRANCH   2  15
HETATM   15  C13 UNL     1      -9.336 203.687 113.897  1.00  0.00     0.134 C 
HETATM   16  C14 UNL     1     -10.476 203.684 114.929  1.00  0.00     0.005 C 
HETATM   17  C15 UNL     1     -10.933 205.119 115.021  1.00  0.00     0.036 C 
HETATM   18  C18 UNL     1      -9.872 203.281 116.247  1.00  0.00     0.036 C 
HETATM   19  C16 UNL     1      -9.737 205.949 115.422  1.00  0.00     0.274 C 
HETATM   20  N1  UNL     1      -8.550 205.181 115.675  1.00  0.00     0.104 N 
HETATM   21  C17 UNL     1      -8.896 204.286 116.793  1.00  0.00     0.274 C 
HETATM   22  C19 UNL     1      -8.172 204.305 114.574  1.00  0.00     0.336 C 
BRANCH  22  23
HETATM   23  C20 UNL     1      -7.185 204.974 113.728  1.00  0.00     0.208 C 
HETATM   24  O3  UNL     1      -6.887 206.194 113.826  1.00  0.00    -0.646 OA
HETATM   25  O4  UNL     1      -6.491 204.273 112.721  1.00  0.00    -0.646 OA
ENDBRANCH  22  23
ENDBRANCH   2  15
TORSDOF 5
ENDMDL
MODEL 2
REMARK VINA RESULT: -8.539558441      3.787      5.112
REMARK  5 active torsions:
REMARK  status: ('A' for Active; 'I' for Inactive)
REMARK    1  A    between atoms: C1_2  and  O2_3 
REMARK    2  A    between atoms: C1_2  and  C13_15 
REMARK    3  A    between atoms: O2_3  and  C2_4 
REMARK    4  A    between atoms: C2_4  and  C3_5 
REMARK    5  A    between atoms: C19_22  and  C20_23 
ROOT
HETATM    1  O1  UNL     1     -14.773 202.925 117.435  1.00  0.00    -0.265 OA
HETATM    2  C1  UNL     1     -14.435 204.041 117.001  1.00  0.00     0.266 C 
ENDROOT
BRANCH   2   3
HETATM    3  O2  UNL     1     -15.049 204.536 115.907  1.00  0.00    -0.320 OA
BRANCH   3   4
HETATM    4  C2  UNL     1     -15.716 203.963 114.893  1.00  0.00     0.188 C 
BRANCH   4   5
HETATM    5  C3  UNL     1     -15.076 203.544 113.623  1.00  0.00    -0.017 C 
HETATM    6  C4  UNL     1     -14.449 202.174 113.978  1.00  0.00     0.016 C 
HETATM    7  C5  UNL     1     -13.684 201.572 112.860  1.00  0.00    -0.013 C 
HETATM    8  C6  UNL     1     -12.530 202.464 112.510  1.00  0.00     0.009 C 
HETATM    9  C10 UNL     1     -14.645 201.367 111.709  1.00  0.00     0.009 C 
HETATM   10  C7  UNL     1     -13.107 203.810 112.149  1.00  0.00    -0.013 C 
HETATM   11  C8  UNL     1     -13.944 203.594 110.889  1.00  0.00     0.009 C 
HETATM   12  C12 UNL     1     -13.894 204.427 113.255  1.00  0.00     0.016 C 
HETATM   13  C9  UNL     1     -15.108 202.736 111.292  1.00  0.00    -0.013 C 
HETATM   14  C11 UNL     1     -15.910 203.382 112.418  1.00  0.00     0.016 C 
ENDBRANCH   4   5
ENDBRANCH   3   4
ENDBRANCH   2   3
BRANCH   2  15
HETATM   15  C13 UNL     1     -13.371 204.869 117.638  1.00  0.00     0.134 C 
HETATM   16  C14 UNL     1     -12.201 204.978 116.646  1.00  0.00     0.005 C 
HETATM   17  C15 UNL     1     -11.911 203.563 116.215  1.00  0.00     0.036 C 
HETATM   18  C18 UNL     1     -11.020 205.503 117.418  1.00  0.00     0.036 C 
HETATM   19  C16 UNL     1     -11.594 202.768 117.460  1.00  0.00     0.274 C 
HETATM   20  N1  UNL     1     -11.577 203.549 118.665  1.00  0.00     0.104 N 
HETATM   21  C17 UNL     1     -10.515 204.550 118.465  1.00  0.00     0.274 C 
HETATM   22  C19 UNL     1     -12.798 204.313 118.886  1.00  0.00     0.336 C 
BRANCH  22  23
HETATM   23  C20 UNL     1     -13.701 203.559 119.757  1.00  0.00     0.208 C 
HETATM   24  O3  UNL     1     -14.651 204.076 120.400  1.00  0.00    -0.646 OA
HETATM   25  O4  UNL     1     -13.552 202.169 119.932  1.00  0.00    -0.646 OA
ENDBRANCH  22  23
ENDBRANCH   2  15
TORSDOF 5
ENDMDL
MODEL 3
REMARK VINA RESULT: -8.512315820      3.799      5.127
REMARK  5 active torsions:
REMARK  status: ('A' for Active; 'I' for Inactive)
REMARK    1  A    between atoms: C1_2  and  O2_3 
REMARK    2  A    between atoms: C1_2  and  C13_15 
REMARK    3  A    between atoms: O2_3  and  C2_4 
REMARK    4  A    between atoms: C2_4  and  C3_5 
REMARK    5  A    between atoms: C19_22  and  C20_23 
ROOT
HETATM    1  O1  UNL     1     -14.798 202.992 117.396  1.00  0.00    -0.265 OA
HETATM    2  C1  UNL     1     -14.413 204.108 117.001  1.00  0.00     0.266 C 
ENDROOT
BRANCH   2   3
HETATM    3  O2  UNL     1     -14.984 204.654 115.909  1.00  0.00    -0.320 OA
BRANCH   3   4
HETATM    4  C2  UNL     1     -15.672 204.135 114.879  1.00  0.00     0.188 C 
BRANCH   4   5
HETATM    5  C3  UNL     1     -15.044 203.378 113.770  1.00  0.00    -0.017 C 
HETATM    6  C4  UNL     1     -13.910 204.320 113.297  1.00  0.00     0.016 C 
HETATM    7  C5  UNL     1     -13.163 203.796 112.129  1.00  0.00    -0.013 C 
HETATM    8  C6  UNL     1     -14.093 203.669 110.960  1.00  0.00     0.009 C 
HETATM    9  C10 UNL     1     -12.542 202.479 112.540  1.00  0.00     0.009 C 
HETATM   10  C7  UNL     1     -15.210 202.748 111.384  1.00  0.00    -0.013 C 
HETATM   11  C8  UNL     1     -14.569 201.384 111.636  1.00  0.00     0.009 C 
HETATM   12  C12 UNL     1     -15.966 203.248 112.567  1.00  0.00     0.016 C 
HETATM   13  C9  UNL     1     -13.683 201.545 112.837  1.00  0.00    -0.013 C 
HETATM   14  C11 UNL     1     -14.468 202.049 114.043  1.00  0.00     0.016 C 
ENDBRANCH   4   5
ENDBRANCH   3   4
ENDBRANCH   2   3
BRANCH   2  15
HETATM   15  C13 UNL     1     -13.336 204.880 117.686  1.00  0.00     0.134 C 
HETATM   16  C14 UNL     1     -12.142 204.980 116.722  1.00  0.00     0.005 C 
HETATM   17  C15 UNL     1     -11.889 203.568 116.255  1.00  0.00     0.036 C 
HETATM   18  C18 UNL     1     -10.962 205.442 117.534  1.00  0.00     0.036 C 
HETATM   19  C16 UNL     1     -11.626 202.727 117.481  1.00  0.00     0.274 C 
HETATM   20  N1  UNL     1     -11.610 203.471 118.709  1.00  0.00     0.104 N 
HETATM   21  C17 UNL     1     -10.511 204.441 118.562  1.00  0.00     0.274 C 
HETATM   22  C19 UNL     1     -12.810 204.269 118.928  1.00  0.00     0.336 C 
BRANCH  22  23
HETATM   23  C20 UNL     1     -13.755 203.520 119.756  1.00  0.00     0.208 C 
HETATM   24  O3  UNL     1     -14.703 204.049 120.394  1.00  0.00    -0.646 OA
HETATM   25  O4  UNL     1     -13.656 202.121 119.893  1.00  0.00    -0.646 OA
ENDBRANCH  22  23
ENDBRANCH   2  15
TORSDOF 5
ENDMDL
MODEL 4
REMARK VINA RESULT: -8.497424235      3.914      5.275
REMARK  5 active torsions:
REMARK  status: ('A' for Active; 'I' for Inactive)
REMARK    1  A    between atoms: C1_2  and  O2_3 
REMARK    2  A    between atoms: C1_2  and  C13_15 
REMARK    3  A    between atoms: O2_3  and  C2_4 
REMARK    4  A    between atoms: C2_4  and  C3_5 
REMARK    5  A    between atoms: C19_22  and  C20_23 
ROOT
HETATM    1  O1  UNL     1     -14.813 203.058 117.579  1.00  0.00    -0.265 OA
HETATM    2  C1  UNL     1     -14.375 204.172 117.234  1.00  0.00     0.266 C 
ENDROOT
BRANCH   2   3
HETATM    3  O2  UNL     1     -14.883 204.768 116.138  1.00  0.00    -0.320 OA
BRANCH   3   4
HETATM    4  C2  UNL     1     -15.531 204.302 115.058  1.00  0.00     0.188 C 
BRANCH   4   5
HETATM    5  C3  UNL     1     -14.850 203.684 113.896  1.00  0.00    -0.017 C 
HETATM    6  C4  UNL     1     -15.997 203.494 112.874  1.00  0.00     0.016 C 
HETATM    7  C5  UNL     1     -15.565 202.821 111.626  1.00  0.00    -0.013 C 
HETATM    8  C6  UNL     1     -15.083 201.439 111.949  1.00  0.00     0.009 C 
HETATM    9  C10 UNL     1     -14.501 203.687 110.986  1.00  0.00     0.009 C 
HETATM   10  C7  UNL     1     -13.955 201.585 112.939  1.00  0.00    -0.013 C 
HETATM   11  C8  UNL     1     -12.835 202.323 112.208  1.00  0.00     0.009 C 
HETATM   12  C12 UNL     1     -14.364 202.274 114.196  1.00  0.00     0.016 C 
HETATM   13  C9  UNL     1     -13.342 203.712 111.944  1.00  0.00    -0.013 C 
HETATM   14  C11 UNL     1     -13.748 204.410 113.238  1.00  0.00     0.016 C 
ENDBRANCH   4   5
ENDBRANCH   3   4
ENDBRANCH   2   3
BRANCH   2  15
HETATM   15  C13 UNL     1     -13.302 204.886 117.984  1.00  0.00     0.134 C 
HETATM   16  C14 UNL     1     -12.082 205.013 117.056  1.00  0.00     0.005 C 
HETATM   17  C15 UNL     1     -11.844 203.623 116.520  1.00  0.00     0.036 C 
HETATM   18  C18 UNL     1     -10.915 205.409 117.918  1.00  0.00     0.036 C 
HETATM   19  C16 UNL     1     -11.626 202.714 117.707  1.00  0.00     0.274 C 
HETATM   20  N1  UNL     1     -11.627 203.392 118.972  1.00  0.00     0.104 N 
HETATM   21  C17 UNL     1     -10.508 204.347 118.903  1.00  0.00     0.274 C 
HETATM   22  C19 UNL     1     -12.818 204.200 119.205  1.00  0.00     0.336 C 
BRANCH  22  23
HETATM   23  C20 UNL     1     -13.796 203.427 119.969  1.00  0.00     0.208 C 
HETATM   24  O3  UNL     1     -14.761 203.939 120.595  1.00  0.00    -0.646 OA
HETATM   25  O4  UNL     1     -13.712 202.023 120.053  1.00  0.00    -0.646 OA
ENDBRANCH  22  23
ENDBRANCH   2  15
TORSDOF 5
ENDMDL
MODEL 5
REMARK VINA RESULT: -8.487315060      1.657      2.629
REMARK  5 active torsions:
REMARK  status: ('A' for Active; 'I' for Inactive)
REMARK    1  A    between atoms: C1_2  and  O2_3 
REMARK    2  A    between atoms: C1_2  and  C13_15 
REMARK    3  A    between atoms: O2_3  and  C2_4 
REMARK    4  A    between atoms: C2_4  and  C3_5 
REMARK    5  A    between atoms: C19_22  and  C20_23 
ROOT
HETATM    1  O1  UNL     1      -9.802 203.020 114.662  1.00  0.00    -0.265 OA
HETATM    2  C1  UNL     1     -10.025 203.776 113.699  1.00  0.00     0.266 C 
ENDROOT
BRANCH   2   3
HETATM    3  O2  UNL     1     -10.647 203.288 112.608  1.00  0.00    -0.320 OA
BRANCH   3   4
HETATM    4  C2  UNL     1     -11.659 203.741 111.851  1.00  0.00     0.188 C 
BRANCH   4   5
HETATM    5  C3  UNL     1     -13.088 203.595 112.218  1.00  0.00    -0.017 C 
HETATM    6  C4  UNL     1     -13.151 202.179 112.841  1.00  0.00     0.016 C 
HETATM    7  C5  UNL     1     -14.520 201.773 113.237  1.00  0.00    -0.013 C 
HETATM    8  C6  UNL     1     -15.393 201.715 112.020  1.00  0.00     0.009 C 
HETATM    9  C10 UNL     1     -15.008 202.766 114.270  1.00  0.00     0.009 C 
HETATM   10  C7  UNL     1     -15.362 203.085 111.389  1.00  0.00    -0.013 C 
HETATM   11  C8  UNL     1     -16.009 204.035 112.396  1.00  0.00     0.009 C 
HETATM   12  C12 UNL     1     -13.992 203.520 110.997  1.00  0.00     0.016 C 
HETATM   13  C9  UNL     1     -15.084 204.098 113.577  1.00  0.00    -0.013 C 
HETATM   14  C11 UNL     1     -13.688 204.553 113.164  1.00  0.00     0.016 C 
ENDBRANCH   4   5
ENDBRANCH   3   4
ENDBRANCH   2   3
BRANCH   2  15
HETATM   15  C13 UNL     1      -9.631 205.215 113.693  1.00  0.00     0.134 C 
HETATM   16  C14 UNL     1      -8.315 205.340 112.906  1.00  0.00     0.005 C 
HETATM   17  C15 UNL     1      -7.397 204.300 113.499  1.00  0.00     0.036 C 
HETATM   18  C18 UNL     1      -7.757 206.706 113.201  1.00  0.00     0.036 C 
HETATM   19  C16 UNL     1      -7.268 204.600 114.973  1.00  0.00     0.274 C 
HETATM   20  N1  UNL     1      -7.959 205.787 115.392  1.00  0.00     0.104 N 
HETATM   21  C17 UNL     1      -7.338 206.887 114.634  1.00  0.00     0.274 C 
HETATM   22  C19 UNL     1      -9.369 205.806 115.025  1.00  0.00     0.336 C 
BRANCH  22  23
HETATM   23  C20 UNL     1     -10.176 205.316 116.143  1.00  0.00     0.208 C 
HETATM   24  O3  UNL     1      -9.692 204.810 117.190  1.00  0.00    -0.646 OA
HETATM   25  O4  UNL     1     -11.583 205.383 116.112  1.00  0.00    -0.646 OA
ENDBRANCH  22  23
ENDBRANCH   2  15
TORSDOF 5
ENDMDL
