MODEL 1
REMARK VINA RESULT: -7.808882059      0.000      0.000
REMARK  14 active torsions:
REMARK  status: ('A' for Active; 'I' for Inactive)
REMARK    1  A    between atoms: C3_3  and  C4_4 
REMARK       I    between atoms: C4_4  and  N1_6 
REMARK    2  A    between atoms: N1_6  and  C5_8 
REMARK    3  A    between atoms: C5_8  and  C6_9 
REMARK    4  A    between atoms: C6_9  and  N2_10 
REMARK    5  A    between atoms: C10_14  and  O2_15 
REMARK    6  A    between atoms: C11_17  and  C12_18 
REMARK    7  A    between atoms: C12_18  and  C13_19 
REMARK    8  A    between atoms: C16_24  and  O3_25 
REMARK    9  A    between atoms: C17_27  and  C18_28 
REMARK   10  A    between atoms: C18_28  and  C19_29 
REMARK   11  A    between atoms: C19_29  and  N4_30 
REMARK   12  A    between atoms: C27_44  and  C28_45 
REMARK   13  A    between atoms: C28_45  and  C29_46 
REMARK   14  A    between atoms: C32_51  and  O6_52 
ROOT
HETATM    1  C1  UNL     1      11.829  24.826   6.306  1.00  0.00     0.054 C 
HETATM    2  C2  UNL     1      10.593  24.576   5.511  1.00  0.00     0.007 C 
HETATM    3  C3  UNL     1      10.797  24.067   4.269  1.00  0.00     0.077 C 
HETATM    4  C10 UNL     1       9.811  23.719   3.304  1.00  0.00     0.104 C 
HETATM    5  C11 UNL     1       8.881  24.475   2.365  1.00  0.00     0.045 C 
HETATM    6  N3  UNL     1       7.586  23.933   2.443  1.00  0.00    -0.340 N 
ATOM      7  H3  UNL     1       7.500  23.162   1.781  1.00  0.00     0.167 HD
HETATM    8  C16 UNL     1       6.398  24.096   3.113  1.00  0.00     0.139 C 
HETATM    9  C17 UNL     1       5.356  25.138   3.100  1.00  0.00     0.161 C 
HETATM   10  N5  UNL     1       4.713  25.267   4.425  1.00  0.00    -0.347 N 
ATOM     11  H5  UNL     1       4.580  24.406   4.956  1.00  0.00     0.163 HD
HETATM   12  C22 UNL     1       4.271  26.445   5.023  1.00  0.00     0.246 C 
HETATM   13  O4  UNL     1       3.056  26.399   5.462  1.00  0.00    -0.271 OA
HETATM   14  C23 UNL     1       4.933  27.738   5.247  1.00  0.00     0.106 C 
HETATM   15  C24 UNL     1       4.691  28.102   6.699  1.00  0.00     0.048 C 
HETATM   16  C25 UNL     1       4.051  28.786   4.495  1.00  0.00     0.048 C 
HETATM   17  N6  UNL     1       6.236  27.943   4.772  1.00  0.00    -0.342 N 
ATOM     18  H6  UNL     1       6.265  28.211   3.788  1.00  0.00     0.163 HD
HETATM   19  C26 UNL     1       7.510  27.861   5.355  1.00  0.00     0.241 C 
HETATM   20  O5  UNL     1       8.430  28.582   4.875  1.00  0.00    -0.271 OA
HETATM   21  C27 UNL     1       7.949  27.018   6.498  1.00  0.00     0.176 C 
HETATM   22  N7  UNL     1       8.260  25.685   6.151  1.00  0.00    -0.357 N 
ATOM     23  H7  UNL     1       7.448  25.231   5.731  1.00  0.00     0.162 HD
HETATM   24  C32 UNL     1       9.342  24.795   6.205  1.00  0.00     0.143 C 
ENDROOT
BRANCH   3  25
HETATM   25  C4  UNL     1      12.217  23.800   3.824  1.00  0.00     0.255 C 
HETATM   26  O1  UNL     1      13.065  24.690   3.637  1.00  0.00    -0.268 OA
HETATM   27  N1  UNL     1      12.705  22.489   3.588  1.00  0.00    -0.355 N 
ATOM     28  H1  UNL     1      12.045  21.724   3.721  1.00  0.00     0.162 HD
BRANCH  27  29
HETATM   29  C5  UNL     1      14.016  22.137   3.185  1.00  0.00     0.151 C 
BRANCH  29  30
HETATM   30  C6  UNL     1      14.807  21.567   4.332  1.00  0.00     0.255 C 
BRANCH  30  31
HETATM   31  N2  UNL     1      15.266  20.235   3.949  1.00  0.00    -0.077 N 
HETATM   32  C7  UNL     1      15.016  19.935   2.566  1.00  0.00     0.271 C 
HETATM   33  C8  UNL     1      16.683  20.103   4.197  1.00  0.00     0.271 C 
HETATM   34  C9  UNL     1      14.566  19.305   4.821  1.00  0.00     0.271 C 
ENDBRANCH  30  31
ENDBRANCH  29  30
ENDBRANCH  27  29
ENDBRANCH   3  25
BRANCH   4  35
HETATM   35  O2  UNL     1       9.603  22.441   3.124  1.00  0.00    -0.358 OA
ATOM     36  H2  UNL     1       9.147  21.987   3.823  1.00  0.00     0.217 HD
ENDBRANCH   4  35
BRANCH  24  37
HETATM   37  O6  UNL     1       9.122  23.889   7.205  1.00  0.00    -0.346 OA
ATOM     38  H6  UNL     1       9.836  23.845   7.829  1.00  0.00     0.219 HD
ENDBRANCH  24  37
BRANCH   5  39
HETATM   39  C12 UNL     1       9.212  25.893   2.273  1.00  0.00     0.064 C 
BRANCH  39  40
HETATM   40  C13 UNL     1       8.180  26.794   1.662  1.00  0.00    -0.017 C 
HETATM   41  C14 UNL     1       7.759  26.290   0.282  1.00  0.00     0.010 C 
HETATM   42  C15 UNL     1       8.713  28.219   1.536  1.00  0.00     0.010 C 
ENDBRANCH  39  40
ENDBRANCH   5  39
BRANCH  21  43
HETATM   43  C28 UNL     1       8.870  27.871   7.292  1.00  0.00     0.038 C 
BRANCH  43  44
HETATM   44  C29 UNL     1       9.118  27.326   8.670  1.00  0.00    -0.020 C 
HETATM   45  C30 UNL     1       8.451  28.241   9.717  1.00  0.00     0.009 C 
HETATM   46  C31 UNL     1      10.613  27.296   8.985  1.00  0.00     0.009 C 
ENDBRANCH  43  44
ENDBRANCH  21  43
BRANCH   8  47
HETATM   47  O3  UNL     1       6.107  23.126   3.951  1.00  0.00    -0.348 OA
ATOM     48  H3  UNL     1       5.182  23.041   4.151  1.00  0.00     0.219 HD
ENDBRANCH   8  47
BRANCH   9  49
HETATM   49  C18 UNL     1       4.353  24.992   2.015  1.00  0.00     0.064 C 
BRANCH  49  50
HETATM   50  C19 UNL     1       3.902  26.182   1.279  1.00  0.00     0.273 C 
BRANCH  50  51
HETATM   51  N4  UNL     1       2.700  26.827   1.759  1.00  0.00     0.080 N 
HETATM   52  C20 UNL     1       1.734  25.771   2.115  1.00  0.00     0.309 C 
HETATM   53  C21 UNL     1       2.078  27.545   0.641  1.00  0.00     0.309 C 
ENDBRANCH  50  51
ENDBRANCH  49  50
ENDBRANCH   9  49
TORSDOF 14
ENDMDL
MODEL 2
REMARK VINA RESULT: -7.801220794      0.927      1.210
REMARK  14 active torsions:
REMARK  status: ('A' for Active; 'I' for Inactive)
REMARK    1  A    between atoms: C3_3  and  C4_4 
REMARK       I    between atoms: C4_4  and  N1_6 
REMARK    2  A    between atoms: N1_6  and  C5_8 
REMARK    3  A    between atoms: C5_8  and  C6_9 
REMARK    4  A    between atoms: C6_9  and  N2_10 
REMARK    5  A    between atoms: C10_14  and  O2_15 
REMARK    6  A    between atoms: C11_17  and  C12_18 
REMARK    7  A    between atoms: C12_18  and  C13_19 
REMARK    8  A    between atoms: C16_24  and  O3_25 
REMARK    9  A    between atoms: C17_27  and  C18_28 
REMARK   10  A    between atoms: C18_28  and  C19_29 
REMARK   11  A    between atoms: C19_29  and  N4_30 
REMARK   12  A    between atoms: C27_44  and  C28_45 
REMARK   13  A    between atoms: C28_45  and  C29_46 
REMARK   14  A    between atoms: C32_51  and  O6_52 
ROOT
HETATM    1  C1  UNL     1      11.801  24.808   6.350  1.00  0.00     0.054 C 
HETATM    2  C2  UNL     1      10.570  24.562   5.547  1.00  0.00     0.007 C 
HETATM    3  C3  UNL     1      10.781  24.043   4.310  1.00  0.00     0.077 C 
HETATM    4  C10 UNL     1       9.801  23.695   3.339  1.00  0.00     0.104 C 
HETATM    5  C11 UNL     1       8.884  24.450   2.387  1.00  0.00     0.045 C 
HETATM    6  N3  UNL     1       7.585  23.918   2.457  1.00  0.00    -0.340 N 
ATOM      7  H3  UNL     1       7.499  23.143   1.800  1.00  0.00     0.167 HD
HETATM    8  C16 UNL     1       6.392  24.093   3.117  1.00  0.00     0.139 C 
HETATM    9  C17 UNL     1       5.357  25.142   3.087  1.00  0.00     0.161 C 
HETATM   10  N5  UNL     1       4.704  25.284   4.406  1.00  0.00    -0.347 N 
ATOM     11  H5  UNL     1       4.560  24.428   4.941  1.00  0.00     0.163 HD
HETATM   12  C22 UNL     1       4.265  26.470   4.992  1.00  0.00     0.246 C 
HETATM   13  O4  UNL     1       3.046  26.435   5.421  1.00  0.00    -0.271 OA
HETATM   14  C23 UNL     1       4.933  27.759   5.213  1.00  0.00     0.106 C 
HETATM   15  C24 UNL     1       4.682  28.135   6.660  1.00  0.00     0.048 C 
HETATM   16  C25 UNL     1       4.065  28.808   4.447  1.00  0.00     0.048 C 
HETATM   17  N6  UNL     1       6.242  27.953   4.747  1.00  0.00    -0.342 N 
ATOM     18  H6  UNL     1       6.281  28.213   3.762  1.00  0.00     0.163 HD
HETATM   19  C26 UNL     1       7.510  27.866   5.342  1.00  0.00     0.241 C 
HETATM   20  O5  UNL     1       8.439  28.578   4.865  1.00  0.00    -0.271 OA
HETATM   21  C27 UNL     1       7.934  27.028   6.494  1.00  0.00     0.176 C 
HETATM   22  N7  UNL     1       8.239  25.691   6.159  1.00  0.00    -0.357 N 
ATOM     23  H7  UNL     1       7.428  25.239   5.735  1.00  0.00     0.162 HD
HETATM   24  C32 UNL     1       9.314  24.794   6.229  1.00  0.00     0.143 C 
ENDROOT
BRANCH   3  25
HETATM   25  C4  UNL     1      12.203  23.763   3.879  1.00  0.00     0.255 C 
HETATM   26  O1  UNL     1      13.047  24.648   3.652  1.00  0.00    -0.268 OA
HETATM   27  N1  UNL     1      12.698  22.446   3.703  1.00  0.00    -0.355 N 
ATOM     28  H1  UNL     1      12.042  21.684   3.870  1.00  0.00     0.162 HD
BRANCH  27  29
HETATM   29  C5  UNL     1      14.011  22.083   3.317  1.00  0.00     0.151 C 
BRANCH  29  30
HETATM   30  C6  UNL     1      14.708  21.314   4.407  1.00  0.00     0.255 C 
BRANCH  30  31
HETATM   31  N2  UNL     1      15.227  20.077   3.829  1.00  0.00    -0.077 N 
HETATM   32  C7  UNL     1      14.944  19.955   2.426  1.00  0.00     0.271 C 
HETATM   33  C8  UNL     1      16.657  19.998   4.016  1.00  0.00     0.271 C 
HETATM   34  C9  UNL     1      14.613  18.995   4.584  1.00  0.00     0.271 C 
ENDBRANCH  30  31
ENDBRANCH  29  30
ENDBRANCH  27  29
ENDBRANCH   3  25
BRANCH   4  35
HETATM   35  O2  UNL     1       9.586  22.417   3.166  1.00  0.00    -0.358 OA
ATOM     36  H2  UNL     1       8.815  22.186   2.661  1.00  0.00     0.217 HD
ENDBRANCH   4  35
BRANCH  24  37
HETATM   37  O6  UNL     1       9.079  23.896   7.232  1.00  0.00    -0.346 OA
ATOM     38  H6  UNL     1       8.180  23.908   7.537  1.00  0.00     0.219 HD
ENDBRANCH  24  37
BRANCH   5  39
HETATM   39  C12 UNL     1       9.225  25.866   2.288  1.00  0.00     0.064 C 
BRANCH  39  40
HETATM   40  C13 UNL     1       8.197  26.772   1.678  1.00  0.00    -0.017 C 
HETATM   41  C14 UNL     1       7.773  26.271   0.298  1.00  0.00     0.010 C 
HETATM   42  C15 UNL     1       8.737  28.194   1.553  1.00  0.00     0.010 C 
ENDBRANCH  39  40
ENDBRANCH   5  39
BRANCH  21  43
HETATM   43  C28 UNL     1       8.854  27.880   7.290  1.00  0.00     0.038 C 
BRANCH  43  44
HETATM   44  C29 UNL     1       9.124  27.319   8.658  1.00  0.00    -0.020 C 
HETATM   45  C30 UNL     1       8.376  28.154   9.717  1.00  0.00     0.009 C 
HETATM   46  C31 UNL     1      10.612  27.392   8.995  1.00  0.00     0.009 C 
ENDBRANCH  43  44
ENDBRANCH  21  43
BRANCH   8  47
HETATM   47  O3  UNL     1       6.088  23.131   3.959  1.00  0.00    -0.348 OA
ATOM     48  H3  UNL     1       5.288  22.662   3.750  1.00  0.00     0.219 HD
ENDBRANCH   8  47
BRANCH   9  49
HETATM   49  C18 UNL     1       4.363  24.995   1.995  1.00  0.00     0.064 C 
BRANCH  49  50
HETATM   50  C19 UNL     1       3.065  24.362   2.274  1.00  0.00     0.273 C 
BRANCH  50  51
HETATM   51  N4  UNL     1       2.947  22.955   1.959  1.00  0.00     0.080 N 
HETATM   52  C20 UNL     1       1.688  22.765   1.216  1.00  0.00     0.309 C 
HETATM   53  C21 UNL     1       2.762  22.212   3.210  1.00  0.00     0.309 C 
ENDBRANCH  50  51
ENDBRANCH  49  50
ENDBRANCH   9  49
TORSDOF 14
ENDMDL
MODEL 3
REMARK VINA RESULT: -6.507677646      3.346      9.302
REMARK  14 active torsions:
REMARK  status: ('A' for Active; 'I' for Inactive)
REMARK    1  A    between atoms: C3_3  and  C4_4 
REMARK       I    between atoms: C4_4  and  N1_6 
REMARK    2  A    between atoms: N1_6  and  C5_8 
REMARK    3  A    between atoms: C5_8  and  C6_9 
REMARK    4  A    between atoms: C6_9  and  N2_10 
REMARK    5  A    between atoms: C10_14  and  O2_15 
REMARK    6  A    between atoms: C11_17  and  C12_18 
REMARK    7  A    between atoms: C12_18  and  C13_19 
REMARK    8  A    between atoms: C16_24  and  O3_25 
REMARK    9  A    between atoms: C17_27  and  C18_28 
REMARK   10  A    between atoms: C18_28  and  C19_29 
REMARK   11  A    between atoms: C19_29  and  N4_30 
REMARK   12  A    between atoms: C27_44  and  C28_45 
REMARK   13  A    between atoms: C28_45  and  C29_46 
REMARK   14  A    between atoms: C32_51  and  O6_52 
ROOT
HETATM    1  C1  UNL     1       0.925  29.295   4.233  1.00  0.00     0.054 C 
HETATM    2  C2  UNL     1       2.226  28.674   3.858  1.00  0.00     0.007 C 
HETATM    3  C3  UNL     1       2.162  27.749   2.867  1.00  0.00     0.077 C 
HETATM    4  C10 UNL     1       3.238  27.012   2.299  1.00  0.00     0.104 C 
HETATM    5  C11 UNL     1       4.118  25.847   2.731  1.00  0.00     0.045 C 
HETATM    6  N3  UNL     1       5.465  26.141   2.454  1.00  0.00    -0.340 N 
ATOM      7  H3  UNL     1       5.687  25.853   1.501  1.00  0.00     0.167 HD
HETATM    8  C16 UNL     1       6.581  26.688   3.038  1.00  0.00     0.139 C 
HETATM    9  C17 UNL     1       7.482  26.251   4.120  1.00  0.00     0.161 C 
HETATM   10  N5  UNL     1       8.025  27.408   4.863  1.00  0.00    -0.347 N 
ATOM     11  H5  UNL     1       8.235  28.245   4.319  1.00  0.00     0.163 HD
HETATM   12  C22 UNL     1       8.278  27.472   6.232  1.00  0.00     0.246 C 
HETATM   13  O4  UNL     1       9.461  27.893   6.538  1.00  0.00    -0.271 OA
HETATM   14  C23 UNL     1       7.446  27.147   7.398  1.00  0.00     0.106 C 
HETATM   15  C24 UNL     1       7.554  28.323   8.348  1.00  0.00     0.048 C 
HETATM   16  C25 UNL     1       8.230  26.033   8.164  1.00  0.00     0.048 C 
HETATM   17  N6  UNL     1       6.157  26.628   7.210  1.00  0.00    -0.342 N 
ATOM     18  H6  UNL     1       6.152  25.620   7.049  1.00  0.00     0.163 HD
HETATM   19  C26 UNL     1       4.872  27.192   7.194  1.00  0.00     0.241 C 
HETATM   20  O5  UNL     1       3.898  26.458   7.523  1.00  0.00    -0.271 OA
HETATM   21  C27 UNL     1       4.478  28.579   6.833  1.00  0.00     0.176 C 
HETATM   22  N7  UNL     1       4.359  28.807   5.445  1.00  0.00    -0.357 N 
ATOM     23  H7  UNL     1       5.245  28.611   4.977  1.00  0.00     0.162 HD
HETATM   24  C32 UNL     1       3.398  29.219   4.511  1.00  0.00     0.143 C 
ENDROOT
BRANCH   3  25
HETATM   25  C4  UNL     1       0.815  27.450   2.247  1.00  0.00     0.255 C 
HETATM   26  O1  UNL     1       0.388  27.998   1.216  1.00  0.00    -0.268 OA
HETATM   27  N1  UNL     1      -0.080  26.498   2.798  1.00  0.00    -0.355 N 
ATOM     28  H1  UNL     1       0.222  26.024   3.649  1.00  0.00     0.162 HD
BRANCH  27  29
HETATM   29  C5  UNL     1      -1.350  26.139   2.286  1.00  0.00     0.151 C 
BRANCH  29  30
HETATM   30  C6  UNL     1      -1.349  24.730   1.755  1.00  0.00     0.255 C 
BRANCH  30  31
HETATM   31  N2  UNL     1      -1.525  24.791   0.307  1.00  0.00    -0.077 N 
HETATM   32  C7  UNL     1      -0.279  24.859  -0.404  1.00  0.00     0.271 C 
HETATM   33  C8  UNL     1      -2.254  23.633  -0.157  1.00  0.00     0.271 C 
HETATM   34  C9  UNL     1      -2.340  25.969   0.053  1.00  0.00     0.271 C 
ENDBRANCH  30  31
ENDBRANCH  29  30
ENDBRANCH  27  29
ENDBRANCH   3  25
BRANCH   4  35
HETATM   35  O2  UNL     1       3.617  27.371   1.101  1.00  0.00    -0.358 OA
ATOM     36  H2  UNL     1       4.518  27.177   0.869  1.00  0.00     0.217 HD
ENDBRANCH   4  35
BRANCH  24  37
HETATM   37  O6  UNL     1       3.672  30.502   4.128  1.00  0.00    -0.346 OA
ATOM     38  H6  UNL     1       3.008  31.122   4.405  1.00  0.00     0.219 HD
ENDBRANCH  24  37
BRANCH   5  39
HETATM   39  C12 UNL     1       3.616  25.183   3.930  1.00  0.00     0.064 C 
BRANCH  39  40
HETATM   40  C13 UNL     1       2.974  23.839   3.745  1.00  0.00    -0.017 C 
HETATM   41  C14 UNL     1       3.959  22.713   4.057  1.00  0.00     0.010 C 
HETATM   42  C15 UNL     1       2.462  23.678   2.316  1.00  0.00     0.010 C 
ENDBRANCH  39  40
ENDBRANCH   5  39
BRANCH  21  43
HETATM   43  C28 UNL     1       3.411  28.953   7.797  1.00  0.00     0.038 C 
BRANCH  43  44
HETATM   44  C29 UNL     1       2.601  30.131   7.333  1.00  0.00    -0.020 C 
HETATM   45  C30 UNL     1       3.242  31.436   7.848  1.00  0.00     0.009 C 
HETATM   46  C31 UNL     1       1.182  30.073   7.895  1.00  0.00     0.009 C 
ENDBRANCH  43  44
ENDBRANCH  21  43
BRANCH   8  47
HETATM   47  O3  UNL     1       6.944  27.850   2.543  1.00  0.00    -0.348 OA
ATOM     48  H3  UNL     1       7.059  28.536   3.189  1.00  0.00     0.219 HD
ENDBRANCH   8  47
BRANCH   9  49
HETATM   49  C18 UNL     1       8.557  25.322   3.689  1.00  0.00     0.064 C 
BRANCH  49  50
HETATM   50  C19 UNL     1       8.207  23.967   3.237  1.00  0.00     0.273 C 
BRANCH  50  51
HETATM   51  N4  UNL     1       8.985  23.427   2.143  1.00  0.00     0.080 N 
HETATM   52  C20 UNL     1       9.777  22.300   2.669  1.00  0.00     0.309 C 
HETATM   53  C21 UNL     1       9.977  24.428   1.738  1.00  0.00     0.309 C 
ENDBRANCH  50  51
ENDBRANCH  49  50
ENDBRANCH   9  49
TORSDOF 14
ENDMDL
MODEL 4
REMARK VINA RESULT: -6.346308601      4.064     10.666
REMARK  14 active torsions:
REMARK  status: ('A' for Active; 'I' for Inactive)
REMARK    1  A    between atoms: C3_3  and  C4_4 
REMARK       I    between atoms: C4_4  and  N1_6 
REMARK    2  A    between atoms: N1_6  and  C5_8 
REMARK    3  A    between atoms: C5_8  and  C6_9 
REMARK    4  A    between atoms: C6_9  and  N2_10 
REMARK    5  A    between atoms: C10_14  and  O2_15 
REMARK    6  A    between atoms: C11_17  and  C12_18 
REMARK    7  A    between atoms: C12_18  and  C13_19 
REMARK    8  A    between atoms: C16_24  and  O3_25 
REMARK    9  A    between atoms: C17_27  and  C18_28 
REMARK   10  A    between atoms: C18_28  and  C19_29 
REMARK   11  A    between atoms: C19_29  and  N4_30 
REMARK   12  A    between atoms: C27_44  and  C28_45 
REMARK   13  A    between atoms: C28_45  and  C29_46 
REMARK   14  A    between atoms: C32_51  and  O6_52 
ROOT
HETATM    1  C1  UNL     1       0.609  25.615   5.039  1.00  0.00     0.054 C 
HETATM    2  C2  UNL     1       1.891  26.051   5.660  1.00  0.00     0.007 C 
HETATM    3  C3  UNL     1       1.771  26.978   6.646  1.00  0.00     0.077 C 
HETATM    4  C10 UNL     1       2.814  27.559   7.418  1.00  0.00     0.104 C 
HETATM    5  C11 UNL     1       3.908  28.592   7.183  1.00  0.00     0.045 C 
HETATM    6  N3  UNL     1       5.128  28.114   7.695  1.00  0.00    -0.340 N 
ATOM      7  H3  UNL     1       5.207  28.370   8.679  1.00  0.00     0.167 HD
HETATM    8  C16 UNL     1       6.248  27.418   7.311  1.00  0.00     0.139 C 
HETATM    9  C17 UNL     1       7.384  27.726   6.424  1.00  0.00     0.161 C 
HETATM   10  N5  UNL     1       7.893  26.504   5.764  1.00  0.00    -0.347 N 
ATOM     11  H5  UNL     1       7.883  25.647   6.317  1.00  0.00     0.163 HD
HETATM   12  C22 UNL     1       8.383  26.405   4.464  1.00  0.00     0.246 C 
HETATM   13  O4  UNL     1       9.534  25.824   4.369  1.00  0.00    -0.271 OA
HETATM   14  C23 UNL     1       7.833  26.840   3.173  1.00  0.00     0.106 C 
HETATM   15  C24 UNL     1       7.954  25.660   2.230  1.00  0.00     0.048 C 
HETATM   16  C25 UNL     1       8.888  27.835   2.591  1.00  0.00     0.048 C 
HETATM   17  N6  UNL     1       6.614  27.533   3.136  1.00  0.00    -0.342 N 
ATOM     18  H6  UNL     1       6.716  28.531   3.318  1.00  0.00     0.163 HD
HETATM   19  C26 UNL     1       5.284  27.151   2.903  1.00  0.00     0.241 C 
HETATM   20  O5  UNL     1       4.495  28.012   2.419  1.00  0.00    -0.271 OA
HETATM   21  C27 UNL     1       4.645  25.832   3.151  1.00  0.00     0.176 C 
HETATM   22  N7  UNL     1       4.242  25.624   4.488  1.00  0.00    -0.357 N 
ATOM     23  H7  UNL     1       5.044  25.696   5.114  1.00  0.00     0.162 HD
HETATM   24  C32 UNL     1       3.078  25.349   5.219  1.00  0.00     0.143 C 
ENDROOT
BRANCH   3  25
HETATM   25  C4  UNL     1       0.386  27.460   7.016  1.00  0.00     0.255 C 
HETATM   26  O1  UNL     1      -0.230  28.345   6.397  1.00  0.00    -0.268 OA
HETATM   27  N1  UNL     1      -0.335  26.925   8.114  1.00  0.00    -0.355 N 
ATOM     28  H1  UNL     1       0.129  26.200   8.658  1.00  0.00     0.162 HD
BRANCH  27  29
HETATM   29  C5  UNL     1      -1.636  27.299   8.529  1.00  0.00     0.151 C 
BRANCH  29  30
HETATM   30  C6  UNL     1      -1.937  26.788   9.913  1.00  0.00     0.255 C 
BRANCH  30  31
HETATM   31  N2  UNL     1      -2.468  27.897  10.701  1.00  0.00    -0.077 N 
HETATM   32  C7  UNL     1      -1.458  28.569  11.469  1.00  0.00     0.271 C 
HETATM   33  C8  UNL     1      -3.105  28.864   9.837  1.00  0.00     0.271 C 
HETATM   34  C9  UNL     1      -3.488  27.321  11.564  1.00  0.00     0.271 C 
ENDBRANCH  30  31
ENDBRANCH  29  30
ENDBRANCH  27  29
ENDBRANCH   3  25
BRANCH   4  35
HETATM   35  O2  UNL     1       2.913  27.153   8.657  1.00  0.00    -0.358 OA
ATOM     36  H2  UNL     1       2.126  26.785   9.042  1.00  0.00     0.217 HD
ENDBRANCH   4  35
BRANCH  24  37
HETATM   37  O6  UNL     1       3.100  24.040   5.614  1.00  0.00    -0.346 OA
ATOM     38  H6  UNL     1       3.574  23.907   6.426  1.00  0.00     0.219 HD
ENDBRANCH  24  37
BRANCH   5  39
HETATM   39  C12 UNL     1       3.731  29.318   5.929  1.00  0.00     0.064 C 
BRANCH  39  40
HETATM   40  C13 UNL     1       2.949  30.596   5.989  1.00  0.00    -0.017 C 
HETATM   41  C14 UNL     1       1.979  30.703   4.812  1.00  0.00     0.010 C 
HETATM   42  C15 UNL     1       3.885  31.802   5.981  1.00  0.00     0.010 C 
ENDBRANCH  39  40
ENDBRANCH   5  39
BRANCH  21  43
HETATM   43  C28 UNL     1       3.733  25.608   1.999  1.00  0.00     0.038 C 
BRANCH  43  44
HETATM   44  C29 UNL     1       3.798  24.201   1.477  1.00  0.00    -0.020 C 
HETATM   45  C30 UNL     1       3.579  24.203  -0.049  1.00  0.00     0.009 C 
HETATM   46  C31 UNL     1       2.695  23.339   2.089  1.00  0.00     0.009 C 
ENDBRANCH  43  44
ENDBRANCH  21  43
BRANCH   8  47
HETATM   47  O3  UNL     1       6.352  26.218   7.836  1.00  0.00    -0.348 OA
ATOM     48  H3  UNL     1       5.779  25.566   7.448  1.00  0.00     0.219 HD
ENDBRANCH   8  47
BRANCH   9  49
HETATM   49  C18 UNL     1       8.477  28.498   7.067  1.00  0.00     0.064 C 
BRANCH  49  50
HETATM   50  C19 UNL     1       9.027  28.044   8.353  1.00  0.00     0.273 C 
BRANCH  50  51
HETATM   51  N4  UNL     1       9.959  26.940   8.308  1.00  0.00     0.080 N 
HETATM   52  C20 UNL     1       9.430  25.869   9.172  1.00  0.00     0.309 C 
HETATM   53  C21 UNL     1      11.210  27.359   8.950  1.00  0.00     0.309 C 
ENDBRANCH  50  51
ENDBRANCH  49  50
ENDBRANCH   9  49
TORSDOF 14
ENDMDL
MODEL 5
REMARK VINA RESULT: -6.315891618      3.202      9.945
REMARK  14 active torsions:
REMARK  status: ('A' for Active; 'I' for Inactive)
REMARK    1  A    between atoms: C3_3  and  C4_4 
REMARK       I    between atoms: C4_4  and  N1_6 
REMARK    2  A    between atoms: N1_6  and  C5_8 
REMARK    3  A    between atoms: C5_8  and  C6_9 
REMARK    4  A    between atoms: C6_9  and  N2_10 
REMARK    5  A    between atoms: C10_14  and  O2_15 
REMARK    6  A    between atoms: C11_17  and  C12_18 
REMARK    7  A    between atoms: C12_18  and  C13_19 
REMARK    8  A    between atoms: C16_24  and  O3_25 
REMARK    9  A    between atoms: C17_27  and  C18_28 
REMARK   10  A    between atoms: C18_28  and  C19_29 
REMARK   11  A    between atoms: C19_29  and  N4_30 
REMARK   12  A    between atoms: C27_44  and  C28_45 
REMARK   13  A    between atoms: C28_45  and  C29_46 
REMARK   14  A    between atoms: C32_51  and  O6_52 
ROOT
HETATM    1  C1  UNL     1       0.938  29.217   4.181  1.00  0.00     0.054 C 
HETATM    2  C2  UNL     1       2.256  28.626   3.813  1.00  0.00     0.007 C 
HETATM    3  C3  UNL     1       2.219  27.710   2.811  1.00  0.00     0.077 C 
HETATM    4  C10 UNL     1       3.316  27.002   2.246  1.00  0.00     0.104 C 
HETATM    5  C11 UNL     1       4.215  25.850   2.674  1.00  0.00     0.045 C 
HETATM    6  N3  UNL     1       5.558  26.174   2.414  1.00  0.00    -0.340 N 
ATOM      7  H3  UNL     1       5.795  25.900   1.460  1.00  0.00     0.167 HD
HETATM    8  C16 UNL     1       6.657  26.737   3.014  1.00  0.00     0.139 C 
HETATM    9  C17 UNL     1       7.557  26.307   4.100  1.00  0.00     0.161 C 
HETATM   10  N5  UNL     1       8.069  27.467   4.861  1.00  0.00    -0.347 N 
ATOM     11  H5  UNL     1       8.267  28.313   4.327  1.00  0.00     0.163 HD
HETATM   12  C22 UNL     1       8.308  27.520   6.232  1.00  0.00     0.246 C 
HETATM   13  O4  UNL     1       9.479  27.962   6.554  1.00  0.00    -0.271 OA
HETATM   14  C23 UNL     1       7.471  27.167   7.387  1.00  0.00     0.106 C 
HETATM   15  C24 UNL     1       7.547  28.334   8.351  1.00  0.00     0.048 C 
HETATM   16  C25 UNL     1       8.271  26.061   8.149  1.00  0.00     0.048 C 
HETATM   17  N6  UNL     1       6.195  26.623   7.180  1.00  0.00    -0.342 N 
ATOM     18  H6  UNL     1       6.212  25.618   7.009  1.00  0.00     0.163 HD
HETATM   19  C26 UNL     1       4.899  27.162   7.158  1.00  0.00     0.241 C 
HETATM   20  O5  UNL     1       3.937  26.405   7.470  1.00  0.00    -0.271 OA
HETATM   21  C27 UNL     1       4.480  28.544   6.808  1.00  0.00     0.176 C 
HETATM   22  N7  UNL     1       4.370  28.785   5.421  1.00  0.00    -0.357 N 
ATOM     23  H7  UNL     1       5.264  28.612   4.960  1.00  0.00     0.162 HD
HETATM   24  C32 UNL     1       3.409  29.188   4.483  1.00  0.00     0.143 C 
ENDROOT
BRANCH   3  25
HETATM   25  C4  UNL     1       0.885  27.391   2.175  1.00  0.00     0.255 C 
HETATM   26  O1  UNL     1       0.069  26.579   2.644  1.00  0.00    -0.268 OA
HETATM   27  N1  UNL     1       0.448  28.010   0.976  1.00  0.00    -0.355 N 
ATOM     28  H1  UNL     1       1.086  28.680   0.547  1.00  0.00     0.162 HD
BRANCH  27  29
HETATM   29  C5  UNL     1      -0.784  27.790   0.314  1.00  0.00     0.151 C 
BRANCH  29  30
HETATM   30  C6  UNL     1      -1.714  28.962   0.483  1.00  0.00     0.255 C 
BRANCH  30  31
HETATM   31  N2  UNL     1      -2.886  28.506   1.226  1.00  0.00    -0.077 N 
HETATM   32  C7  UNL     1      -2.766  28.718   2.641  1.00  0.00     0.271 C 
HETATM   33  C8  UNL     1      -4.070  29.191   0.759  1.00  0.00     0.271 C 
HETATM   34  C9  UNL     1      -3.031  27.093   0.916  1.00  0.00     0.271 C 
ENDBRANCH  30  31
ENDBRANCH  29  30
ENDBRANCH  27  29
ENDBRANCH   3  25
BRANCH   4  35
HETATM   35  O2  UNL     1       3.699  27.381   1.055  1.00  0.00    -0.358 OA
ATOM     36  H2  UNL     1       3.682  26.716   0.377  1.00  0.00     0.217 HD
ENDBRANCH   4  35
BRANCH  24  37
HETATM   37  O6  UNL     1       3.662  30.480   4.116  1.00  0.00    -0.346 OA
ATOM     38  H6  UNL     1       3.741  31.067   4.858  1.00  0.00     0.219 HD
ENDBRANCH  24  37
BRANCH   5  39
HETATM   39  C12 UNL     1       3.715  25.163   3.861  1.00  0.00     0.064 C 
BRANCH  39  40
HETATM   40  C13 UNL     1       3.061  23.829   3.650  1.00  0.00    -0.017 C 
HETATM   41  C14 UNL     1       4.001  22.689   4.042  1.00  0.00     0.010 C 
HETATM   42  C15 UNL     1       2.643  23.658   2.192  1.00  0.00     0.010 C 
ENDBRANCH  39  40
ENDBRANCH   5  39
BRANCH  21  43
HETATM   43  C28 UNL     1       3.397  28.886   7.765  1.00  0.00     0.038 C 
BRANCH  43  44
HETATM   44  C29 UNL     1       2.575  30.060   7.312  1.00  0.00    -0.020 C 
HETATM   45  C30 UNL     1       3.202  31.366   7.840  1.00  0.00     0.009 C 
HETATM   46  C31 UNL     1       1.156  29.982   7.872  1.00  0.00     0.009 C 
ENDBRANCH  43  44
ENDBRANCH  21  43
BRANCH   8  47
HETATM   47  O3  UNL     1       7.001  27.911   2.534  1.00  0.00    -0.348 OA
ATOM     48  H3  UNL     1       7.647  27.879   1.838  1.00  0.00     0.219 HD
ENDBRANCH   8  47
BRANCH   9  49
HETATM   49  C18 UNL     1       8.654  25.405   3.670  1.00  0.00     0.064 C 
BRANCH  49  50
HETATM   50  C19 UNL     1       9.173  24.395   4.605  1.00  0.00     0.273 C 
BRANCH  50  51
HETATM   51  N4  UNL     1      10.327  24.770   5.392  1.00  0.00     0.080 N 
HETATM   52  C20 UNL     1      11.376  25.226   4.463  1.00  0.00     0.309 C 
HETATM   53  C21 UNL     1      10.876  23.562   6.018  1.00  0.00     0.309 C 
ENDBRANCH  50  51
ENDBRANCH  49  50
ENDBRANCH   9  49
TORSDOF 14
ENDMDL
