MODEL 1
REMARK VINA RESULT: -6.883043465      0.000      0.000
REMARK  6 active torsions:
REMARK  status: ('A' for Active; 'I' for Inactive)
REMARK    1  A    between atoms: C3_3  and  C5_5 
REMARK    2  A    between atoms: C6_6  and  N1_7 
REMARK    3  A    between atoms: N3_19  and  O1_20 
REMARK    4  A    between atoms: O1_20  and  C15_21 
REMARK    5  A    between atoms: C15_21  and  C16_22 
REMARK    6  A    between atoms: C18_25  and  O3_26 
ROOT
HETATM    1  C5  UNL     1      18.776  -1.864   9.770  1.00  0.00     0.051 A 
HETATM    2  C6  UNL     1      19.365  -2.523  10.821  1.00  0.00     0.073 A 
HETATM    3  C13 UNL     1      20.718  -2.645  10.553  1.00  0.00     0.067 A 
HETATM    4  C14 UNL     1      21.775  -3.282  11.420  1.00  0.00     0.073 C 
HETATM    5  N3  UNL     1      20.980  -2.080   9.361  1.00  0.00    -0.201 N 
HETATM    6  C18 UNL     1      19.822  -1.610   8.884  1.00  0.00     0.180 A 
ENDROOT
BRANCH   2   7
HETATM    7  N1  UNL     1      18.739  -3.007  11.968  1.00  0.00    -0.344 N 
HETATM    8  C7  UNL     1      18.208  -4.164  12.162  1.00  0.00     0.077 C 
HETATM    9  C8  UNL     1      18.260  -5.093  11.039  1.00  0.00     0.076 C 
HETATM   10  N2  UNL     1      17.666  -4.333  13.452  1.00  0.00    -0.380 N 
HETATM   11  C9  UNL     1      16.980  -5.859  10.789  1.00  0.00     0.007 C 
HETATM   12  C10 UNL     1      15.906  -5.592  11.814  1.00  0.00     0.002 C 
HETATM   13  C11 UNL     1      16.295  -6.280  13.104  1.00  0.00     0.020 C 
HETATM   14  C12 UNL     1      16.722  -5.208  14.064  1.00  0.00     0.121 C 
ATOM     15  H2  UNL     1      18.046  -3.659  14.115  1.00  0.00     0.160 HD
ATOM     16  H1  UNL     1      18.694  -2.361  12.755  1.00  0.00     0.167 HD
ENDBRANCH   2   7
BRANCH   1  17
HETATM   17  C3  UNL     1      17.396  -1.436   9.530  1.00  0.00    -0.049 C 
HETATM   18  C2  UNL     1      17.018  -0.181   9.500  1.00  0.00    -0.023 C 
HETATM   19  C1  UNL     1      15.561   0.121   9.251  1.00  0.00     0.036 C 
HETATM   20  C4  UNL     1      16.340  -2.479   9.313  1.00  0.00     0.049 C 
ENDBRANCH   1  17
BRANCH   6  21
HETATM   21  O3  UNL     1      19.735  -0.958   7.654  1.00  0.00    -0.344 OA
ATOM     22  H3  UNL     1      19.215  -1.224   6.904  1.00  0.00     0.219 HD
ENDBRANCH   6  21
BRANCH   5  23
HETATM   23  O1  UNL     1      22.231  -2.029   8.793  1.00  0.00    -0.268 OA
BRANCH  23  24
HETATM   24  C15 UNL     1      22.684  -2.989   7.884  1.00  0.00     0.236 C 
BRANCH  24  25
HETATM   25  C16 UNL     1      22.331  -2.651   6.456  1.00  0.00     0.171 A 
HETATM   26  C17 UNL     1      23.269  -2.042   5.555  1.00  0.00     0.202 A 
HETATM   27  O2  UNL     1      22.304  -1.250   6.236  1.00  0.00    -0.379 OA
ENDBRANCH  24  25
ENDBRANCH  23  24
ENDBRANCH   5  23
TORSDOF 6
ENDMDL
MODEL 2
REMARK VINA RESULT: -6.857452630      2.519      3.831
REMARK  6 active torsions:
REMARK  status: ('A' for Active; 'I' for Inactive)
REMARK    1  A    between atoms: C3_3  and  C5_5 
REMARK    2  A    between atoms: C6_6  and  N1_7 
REMARK    3  A    between atoms: N3_19  and  O1_20 
REMARK    4  A    between atoms: O1_20  and  C15_21 
REMARK    5  A    between atoms: C15_21  and  C16_22 
REMARK    6  A    between atoms: C18_25  and  O3_26 
ROOT
HETATM    1  C5  UNL     1      14.926  -1.759  10.465  1.00  0.00     0.051 A 
HETATM    2  C6  UNL     1      15.437  -2.999  10.763  1.00  0.00     0.073 A 
HETATM    3  C13 UNL     1      16.685  -3.107  10.172  1.00  0.00     0.067 A 
HETATM    4  C14 UNL     1      17.635  -4.277  10.231  1.00  0.00     0.073 C 
HETATM    5  N3  UNL     1      16.957  -1.965   9.515  1.00  0.00    -0.201 N 
HETATM    6  C18 UNL     1      15.908  -1.152   9.684  1.00  0.00     0.180 A 
ENDROOT
BRANCH   2   7
HETATM    7  N1  UNL     1      14.829  -4.001  11.515  1.00  0.00    -0.344 N 
HETATM    8  C7  UNL     1      14.894  -4.200  12.786  1.00  0.00     0.077 C 
HETATM    9  C8  UNL     1      15.713  -3.261  13.544  1.00  0.00     0.076 C 
HETATM   10  N2  UNL     1      14.142  -5.307  13.229  1.00  0.00    -0.380 N 
HETATM   11  C9  UNL     1      16.599  -3.894  14.593  1.00  0.00     0.007 C 
HETATM   12  C10 UNL     1      16.400  -5.383  14.733  1.00  0.00     0.002 C 
HETATM   13  C11 UNL     1      15.077  -5.626  15.423  1.00  0.00     0.020 C 
HETATM   14  C12 UNL     1      14.124  -6.142  14.383  1.00  0.00     0.121 C 
ATOM     15  H2  UNL     1      13.431  -5.580  12.551  1.00  0.00     0.160 HD
ATOM     16  H1  UNL     1      14.258  -4.665  10.991  1.00  0.00     0.167 HD
ENDBRANCH   2   7
BRANCH   1  17
HETATM   17  C3  UNL     1      13.676  -1.097  10.846  1.00  0.00    -0.049 C 
HETATM   18  C2  UNL     1      13.258  -0.989  12.083  1.00  0.00    -0.023 C 
HETATM   19  C1  UNL     1      11.945  -0.290  12.335  1.00  0.00     0.036 C 
HETATM   20  C4  UNL     1      12.808  -0.512   9.771  1.00  0.00     0.049 C 
ENDBRANCH   1  17
BRANCH   6  21
HETATM   21  O3  UNL     1      15.861   0.126   9.128  1.00  0.00    -0.344 OA
ATOM     22  H3  UNL     1      15.464   0.899   9.511  1.00  0.00     0.219 HD
ENDBRANCH   6  21
BRANCH   5  23
HETATM   23  O1  UNL     1      18.119  -1.739   8.815  1.00  0.00    -0.268 OA
BRANCH  23  24
HETATM   24  C15 UNL     1      19.302  -1.330   9.436  1.00  0.00     0.236 C 
BRANCH  24  25
HETATM   25  C16 UNL     1      20.536  -1.813   8.713  1.00  0.00     0.171 A 
HETATM   26  C17 UNL     1      21.497  -0.910   8.144  1.00  0.00     0.202 A 
HETATM   27  O2  UNL     1      20.493  -1.502   7.329  1.00  0.00    -0.379 OA
ENDBRANCH  24  25
ENDBRANCH  23  24
ENDBRANCH   5  23
TORSDOF 6
ENDMDL
MODEL 3
REMARK VINA RESULT: -6.763181424      2.708      3.955
REMARK  6 active torsions:
REMARK  status: ('A' for Active; 'I' for Inactive)
REMARK    1  A    between atoms: C3_3  and  C5_5 
REMARK    2  A    between atoms: C6_6  and  N1_7 
REMARK    3  A    between atoms: N3_19  and  O1_20 
REMARK    4  A    between atoms: O1_20  and  C15_21 
REMARK    5  A    between atoms: C15_21  and  C16_22 
REMARK    6  A    between atoms: C18_25  and  O3_26 
ROOT
HETATM    1  C5  UNL     1      15.246  -2.802  11.804  1.00  0.00     0.051 A 
HETATM    2  C6  UNL     1      16.381  -3.193  12.471  1.00  0.00     0.073 A 
HETATM    3  C13 UNL     1      17.447  -3.123  11.590  1.00  0.00     0.067 A 
HETATM    4  C14 UNL     1      18.895  -3.440  11.869  1.00  0.00     0.073 C 
HETATM    5  N3  UNL     1      16.999  -2.699  10.394  1.00  0.00    -0.201 N 
HETATM    6  C18 UNL     1      15.681  -2.505  10.513  1.00  0.00     0.180 A 
ENDROOT
BRANCH   2   7
HETATM    7  N1  UNL     1      16.477  -3.606  13.798  1.00  0.00    -0.344 N 
HETATM    8  C7  UNL     1      16.331  -4.791  14.281  1.00  0.00     0.077 C 
HETATM    9  C8  UNL     1      16.020  -5.844  13.321  1.00  0.00     0.076 C 
HETATM   10  N2  UNL     1      16.509  -4.863  15.677  1.00  0.00    -0.380 N 
HETATM   11  C9  UNL     1      14.945  -6.810  13.765  1.00  0.00     0.007 C 
HETATM   12  C10 UNL     1      14.457  -6.566  15.171  1.00  0.00     0.002 C 
HETATM   13  C11 UNL     1      15.532  -7.014  16.135  1.00  0.00     0.020 C 
HETATM   14  C12 UNL     1      16.152  -5.775  16.712  1.00  0.00     0.121 C 
ATOM     15  H2  UNL     1      17.023  -4.060  16.037  1.00  0.00     0.160 HD
ATOM     16  H1  UNL     1      16.690  -2.874  14.475  1.00  0.00     0.167 HD
ENDBRANCH   2   7
BRANCH   1  17
HETATM   17  C3  UNL     1      13.855  -2.652  12.239  1.00  0.00    -0.049 C 
HETATM   18  C2  UNL     1      13.317  -1.505  12.571  1.00  0.00    -0.023 C 
HETATM   19  C1  UNL     1      11.873  -1.493  13.012  1.00  0.00     0.036 C 
HETATM   20  C4  UNL     1      12.986  -3.872  12.324  1.00  0.00     0.049 C 
ENDBRANCH   1  17
BRANCH   6  21
HETATM   21  O3  UNL     1      14.896  -2.062   9.448  1.00  0.00    -0.344 OA
ATOM     22  H3  UNL     1      14.565  -1.182   9.313  1.00  0.00     0.219 HD
ENDBRANCH   6  21
BRANCH   5  23
HETATM   23  O1  UNL     1      17.801  -2.521   9.292  1.00  0.00    -0.268 OA
BRANCH  23  24
HETATM   24  C15 UNL     1      18.373  -1.286   8.970  1.00  0.00     0.236 C 
BRANCH  24  25
HETATM   25  C16 UNL     1      19.881  -1.312   9.018  1.00  0.00     0.171 A 
HETATM   26  C17 UNL     1      20.688  -1.332   7.830  1.00  0.00     0.202 A 
HETATM   27  O2  UNL     1      20.404  -2.537   8.530  1.00  0.00    -0.379 OA
ENDBRANCH  24  25
ENDBRANCH  23  24
ENDBRANCH   5  23
TORSDOF 6
ENDMDL
MODEL 4
REMARK VINA RESULT: -6.644334041      3.136      4.777
REMARK  6 active torsions:
REMARK  status: ('A' for Active; 'I' for Inactive)
REMARK    1  A    between atoms: C3_3  and  C5_5 
REMARK    2  A    between atoms: C6_6  and  N1_7 
REMARK    3  A    between atoms: N3_19  and  O1_20 
REMARK    4  A    between atoms: O1_20  and  C15_21 
REMARK    5  A    between atoms: C15_21  and  C16_22 
REMARK    6  A    between atoms: C18_25  and  O3_26 
ROOT
HETATM    1  C5  UNL     1      15.194  -3.233  12.303  1.00  0.00     0.051 A 
HETATM    2  C6  UNL     1      16.405  -3.485  12.899  1.00  0.00     0.073 A 
HETATM    3  C13 UNL     1      17.400  -3.304  11.953  1.00  0.00     0.067 A 
HETATM    4  C14 UNL     1      18.889  -3.450  12.142  1.00  0.00     0.073 C 
HETATM    5  N3  UNL     1      16.833  -2.948  10.786  1.00  0.00    -0.201 N 
HETATM    6  C18 UNL     1      15.511  -2.904  10.986  1.00  0.00     0.180 A 
ENDROOT
BRANCH   2   7
HETATM    7  N1  UNL     1      16.629  -3.869  14.219  1.00  0.00    -0.344 N 
HETATM    8  C7  UNL     1      16.660  -5.058  14.714  1.00  0.00     0.077 C 
HETATM    9  C8  UNL     1      16.425  -6.151  13.777  1.00  0.00     0.076 C 
HETATM   10  N2  UNL     1      16.927  -5.093  16.097  1.00  0.00    -0.380 N 
HETATM   11  C9  UNL     1      15.506  -7.238  14.288  1.00  0.00     0.007 C 
HETATM   12  C10 UNL     1      15.075  -7.041  15.720  1.00  0.00     0.002 C 
HETATM   13  C11 UNL     1      16.253  -7.343  16.620  1.00  0.00     0.020 C 
HETATM   14  C12 UNL     1      16.747  -6.031  17.155  1.00  0.00     0.121 C 
ATOM     15  H2  UNL     1      17.358  -4.228  16.424  1.00  0.00     0.160 HD
ATOM     16  H1  UNL     1      16.790  -3.110  14.881  1.00  0.00     0.167 HD
ENDBRANCH   2   7
BRANCH   1  17
HETATM   17  C3  UNL     1      13.824  -3.239  12.824  1.00  0.00    -0.049 C 
HETATM   18  C2  UNL     1      13.145  -2.151  13.093  1.00  0.00    -0.023 C 
HETATM   19  C1  UNL     1      11.744  -2.299  13.635  1.00  0.00     0.036 C 
HETATM   20  C4  UNL     1      13.149  -4.554  13.077  1.00  0.00     0.049 C 
ENDBRANCH   1  17
BRANCH   6  21
HETATM   21  O3  UNL     1      14.617  -2.566   9.971  1.00  0.00    -0.344 OA
ATOM     22  H3  UNL     1      14.789  -2.570   9.036  1.00  0.00     0.219 HD
ENDBRANCH   6  21
BRANCH   5  23
HETATM   23  O1  UNL     1      17.541  -2.691   9.636  1.00  0.00    -0.268 OA
BRANCH  23  24
HETATM   24  C15 UNL     1      18.249  -1.503   9.438  1.00  0.00     0.236 C 
BRANCH  24  25
HETATM   25  C16 UNL     1      17.503  -0.515   8.574  1.00  0.00     0.171 A 
HETATM   26  C17 UNL     1      16.363   0.217   9.052  1.00  0.00     0.202 A 
HETATM   27  O2  UNL     1      16.189  -0.962   8.276  1.00  0.00    -0.379 OA
ENDBRANCH  24  25
ENDBRANCH  23  24
ENDBRANCH   5  23
TORSDOF 6
ENDMDL
MODEL 5
REMARK VINA RESULT: -6.641074856      2.952      4.483
REMARK  6 active torsions:
REMARK  status: ('A' for Active; 'I' for Inactive)
REMARK    1  A    between atoms: C3_3  and  C5_5 
REMARK    2  A    between atoms: C6_6  and  N1_7 
REMARK    3  A    between atoms: N3_19  and  O1_20 
REMARK    4  A    between atoms: O1_20  and  C15_21 
REMARK    5  A    between atoms: C15_21  and  C16_22 
REMARK    6  A    between atoms: C18_25  and  O3_26 
ROOT
HETATM    1  C5  UNL     1      14.495  -2.857  11.150  1.00  0.00     0.051 A 
HETATM    2  C6  UNL     1      15.288  -3.950  11.403  1.00  0.00     0.073 A 
HETATM    3  C13 UNL     1      16.451  -3.821  10.663  1.00  0.00     0.067 A 
HETATM    4  C14 UNL     1      17.627  -4.765  10.623  1.00  0.00     0.073 C 
HETATM    5  N3  UNL     1      16.397  -2.676   9.958  1.00  0.00    -0.201 N 
HETATM    6  C18 UNL     1      15.227  -2.092  10.243  1.00  0.00     0.180 A 
ENDROOT
BRANCH   2   7
HETATM    7  N1  UNL     1      14.998  -5.024  12.241  1.00  0.00    -0.344 N 
HETATM    8  C7  UNL     1      14.983  -5.054  13.528  1.00  0.00     0.077 C 
HETATM    9  C8  UNL     1      15.317  -3.806  14.205  1.00  0.00     0.076 C 
HETATM   10  N2  UNL     1      14.634  -6.309  14.065  1.00  0.00    -0.380 N 
HETATM   11  C9  UNL     1      16.244  -3.955  15.391  1.00  0.00     0.007 C 
HETATM   12  C10 UNL     1      16.578  -5.389  15.719  1.00  0.00     0.002 C 
HETATM   13  C11 UNL     1      15.361  -6.034  16.342  1.00  0.00     0.020 C 
HETATM   14  C12 UNL     1      14.784  -6.969  15.319  1.00  0.00     0.121 C 
ATOM     15  H2  UNL     1      14.151  -6.893  13.383  1.00  0.00     0.160 HD
ATOM     16  H1  UNL     1      14.768  -5.901  11.774  1.00  0.00     0.167 HD
ENDBRANCH   2   7
BRANCH   1  17
HETATM   17  C3  UNL     1      13.187  -2.453  11.672  1.00  0.00    -0.049 C 
HETATM   18  C2  UNL     1      13.003  -1.412  12.447  1.00  0.00    -0.023 C 
HETATM   19  C1  UNL     1      11.603  -1.113  12.922  1.00  0.00     0.036 C 
HETATM   20  C4  UNL     1      11.980  -3.269  11.317  1.00  0.00     0.049 C 
ENDBRANCH   1  17
BRANCH   6  21
HETATM   21  O3  UNL     1      14.846  -0.876   9.676  1.00  0.00    -0.344 OA
ATOM     22  H3  UNL     1      15.300  -0.402   8.990  1.00  0.00     0.219 HD
ENDBRANCH   6  21
BRANCH   5  23
HETATM   23  O1  UNL     1      17.394  -2.244   9.117  1.00  0.00    -0.268 OA
BRANCH  23  24
HETATM   24  C15 UNL     1      18.264  -1.203   9.453  1.00  0.00     0.236 C 
BRANCH  24  25
HETATM   25  C16 UNL     1      19.666  -1.684   9.739  1.00  0.00     0.171 A 
HETATM   26  C17 UNL     1      20.724  -1.588   8.772  1.00  0.00     0.202 A 
HETATM   27  O2  UNL     1      20.011  -2.807   8.943  1.00  0.00    -0.379 OA
ENDBRANCH  24  25
ENDBRANCH  23  24
ENDBRANCH   5  23
TORSDOF 6
ENDMDL
