MODEL 1
REMARK VINA RESULT: -7.267649563      0.000      0.000
REMARK  8 active torsions:
REMARK  status: ('A' for Active; 'I' for Inactive)
REMARK    1  A    between atoms: O1_2  and  C2_3 
REMARK    2  A    between atoms: C3_4  and  O2_5 
REMARK    3  A    between atoms: C4_7  and  C5_8 
REMARK    4  A    between atoms: C5_8  and  N1_9 
REMARK    5  A    between atoms: N1_9  and  C6_11 
REMARK    6  A    between atoms: C12_19  and  C13_20 
REMARK    7  A    between atoms: C14_21  and  C16_23 
REMARK    8  A    between atoms: C19_26  and  O3_27 
ROOT
HETATM    1  C2  UNL     1      16.096  -5.400  14.195  1.00  0.00     0.139 A 
HETATM    2  C3  UNL     1      14.928  -4.777  14.510  1.00  0.00     0.130 A 
HETATM    3  C4  UNL     1      14.617  -3.546  13.950  1.00  0.00     0.084 A 
HETATM    4  N2  UNL     1      15.450  -2.947  13.091  1.00  0.00    -0.351 N 
ATOM      5  H2  UNL     1      15.208  -2.043  12.687  1.00  0.00     0.166 HD
HETATM    6  C12 UNL     1      16.634  -3.558  12.756  1.00  0.00     0.069 A 
HETATM    7  C19 UNL     1      16.967  -4.776  13.299  1.00  0.00     0.129 A 
ENDROOT
BRANCH   3   8
HETATM    8  C5  UNL     1      13.341  -2.944  14.343  1.00  0.00     0.116 C 
BRANCH   8   9
HETATM    9  N1  UNL     1      12.278  -3.130  13.678  1.00  0.00    -0.392 N 
ATOM     10  H1  UNL     1      11.625  -3.839  14.012  1.00  0.00     0.159 HD
BRANCH   9  11
HETATM   11  C6  UNL     1      11.929  -2.400  12.474  1.00  0.00     0.081 C 
HETATM   12  C7  UNL     1      12.440  -3.159  11.287  1.00  0.00     0.025 C 
HETATM   13  C8  UNL     1      12.487  -2.343  10.030  1.00  0.00     0.002 C 
HETATM   14  C9  UNL     1      13.266  -1.082  10.215  1.00  0.00     0.000 C 
HETATM   15  C10 UNL     1      12.642  -0.285  11.321  1.00  0.00     0.002 C 
HETATM   16  C11 UNL     1      12.523  -1.023  12.608  1.00  0.00     0.025 C 
ENDBRANCH   9  11
ENDBRANCH   8   9
ENDBRANCH   3   8
BRANCH   2  17
HETATM   17  O2  UNL     1      14.040  -5.364  15.394  1.00  0.00    -0.356 OA
ATOM     18  H2  UNL     1      13.755  -4.894  16.169  1.00  0.00     0.218 HD
ENDBRANCH   2  17
BRANCH   1  19
HETATM   19  O1  UNL     1      16.479  -6.629  14.713  1.00  0.00    -0.351 OA
HETATM   20  C1  UNL     1      17.118  -6.828  15.931  1.00  0.00     0.210 C 
ENDBRANCH   1  19
BRANCH   6  21
HETATM   21  C13 UNL     1      17.520  -2.835  11.843  1.00  0.00     0.035 C 
HETATM   22  C14 UNL     1      17.398  -2.697  10.567  1.00  0.00    -0.078 C 
HETATM   23  C15 UNL     1      16.283  -3.276   9.786  1.00  0.00     0.044 C 
BRANCH  22  24
HETATM   24  C16 UNL     1      18.404  -1.921   9.762  1.00  0.00     0.006 C 
HETATM   25  C17 UNL     1      17.740  -1.031   8.749  1.00  0.00     0.014 C 
HETATM   26  C18 UNL     1      19.288  -1.189  10.718  1.00  0.00     0.014 C 
ENDBRANCH  22  24
ENDBRANCH   6  21
BRANCH   7  27
HETATM   27  O3  UNL     1      18.180  -5.404  12.968  1.00  0.00    -0.356 OA
ATOM     28  H3  UNL     1      18.985  -5.105  13.375  1.00  0.00     0.218 HD
ENDBRANCH   7  27
TORSDOF 8
ENDMDL
MODEL 2
REMARK VINA RESULT: -7.067178253      2.882      5.328
REMARK  8 active torsions:
REMARK  status: ('A' for Active; 'I' for Inactive)
REMARK    1  A    between atoms: O1_2  and  C2_3 
REMARK    2  A    between atoms: C3_4  and  O2_5 
REMARK    3  A    between atoms: C4_7  and  C5_8 
REMARK    4  A    between atoms: C5_8  and  N1_9 
REMARK    5  A    between atoms: N1_9  and  C6_11 
REMARK    6  A    between atoms: C12_19  and  C13_20 
REMARK    7  A    between atoms: C14_21  and  C16_23 
REMARK    8  A    between atoms: C19_26  and  O3_27 
ROOT
HETATM    1  C2  UNL     1      18.544  -1.874   9.382  1.00  0.00     0.139 A 
HETATM    2  C3  UNL     1      17.390  -1.154   9.338  1.00  0.00     0.130 A 
HETATM    3  C4  UNL     1      16.182  -1.743   9.683  1.00  0.00     0.084 A 
HETATM    4  N2  UNL     1      16.122  -3.023  10.067  1.00  0.00    -0.351 N 
ATOM      5  H2  UNL     1      15.227  -3.443  10.317  1.00  0.00     0.166 HD
HETATM    6  C12 UNL     1      17.273  -3.770  10.121  1.00  0.00     0.069 A 
HETATM    7  C19 UNL     1      18.482  -3.211   9.783  1.00  0.00     0.129 A 
ENDROOT
BRANCH   3   8
HETATM    8  C5  UNL     1      14.988  -0.898   9.606  1.00  0.00     0.116 C 
BRANCH   8   9
HETATM    9  N1  UNL     1      13.854  -1.300  10.004  1.00  0.00    -0.392 N 
ATOM     10  H1  UNL     1      13.147  -1.506   9.297  1.00  0.00     0.159 HD
BRANCH   9  11
HETATM   11  C6  UNL     1      13.496  -1.487  11.396  1.00  0.00     0.081 C 
HETATM   12  C7  UNL     1      12.908  -2.856  11.562  1.00  0.00     0.025 C 
HETATM   13  C8  UNL     1      12.156  -3.033  12.847  1.00  0.00     0.002 C 
HETATM   14  C9  UNL     1      11.101  -1.990  13.021  1.00  0.00     0.000 C 
HETATM   15  C10 UNL     1      11.747  -0.637  12.988  1.00  0.00     0.002 C 
HETATM   16  C11 UNL     1      12.545  -0.376  11.759  1.00  0.00     0.025 C 
ENDBRANCH   9  11
ENDBRANCH   8   9
ENDBRANCH   3   8
BRANCH   2  17
HETATM   17  O2  UNL     1      17.411   0.173   8.946  1.00  0.00    -0.356 OA
ATOM     18  H2  UNL     1      16.802   0.488   8.288  1.00  0.00     0.218 HD
ENDBRANCH   2  17
BRANCH   1  19
HETATM   19  O1  UNL     1      19.789  -1.359   9.053  1.00  0.00    -0.351 OA
HETATM   20  C1  UNL     1      20.342  -1.338   7.778  1.00  0.00     0.210 C 
ENDBRANCH   1  19
BRANCH   6  21
HETATM   21  C13 UNL     1      17.136  -5.174  10.511  1.00  0.00     0.035 C 
HETATM   22  C14 UNL     1      16.965  -5.653  11.696  1.00  0.00    -0.078 C 
HETATM   23  C15 UNL     1      16.872  -4.813  12.910  1.00  0.00     0.044 C 
BRANCH  22  24
HETATM   24  C16 UNL     1      16.847  -7.134  11.934  1.00  0.00     0.006 C 
HETATM   25  C17 UNL     1      18.034  -7.675  12.679  1.00  0.00     0.014 C 
HETATM   26  C18 UNL     1      15.542  -7.383  12.617  1.00  0.00     0.014 C 
ENDBRANCH  22  24
ENDBRANCH   6  21
BRANCH   7  27
HETATM   27  O3  UNL     1      19.664  -3.971   9.828  1.00  0.00    -0.356 OA
ATOM     28  H3  UNL     1      20.345  -3.810   9.186  1.00  0.00     0.218 HD
ENDBRANCH   7  27
TORSDOF 8
ENDMDL
MODEL 3
REMARK VINA RESULT: -6.961889235      1.167      1.434
REMARK  8 active torsions:
REMARK  status: ('A' for Active; 'I' for Inactive)
REMARK    1  A    between atoms: O1_2  and  C2_3 
REMARK    2  A    between atoms: C3_4  and  O2_5 
REMARK    3  A    between atoms: C4_7  and  C5_8 
REMARK    4  A    between atoms: C5_8  and  N1_9 
REMARK    5  A    between atoms: N1_9  and  C6_11 
REMARK    6  A    between atoms: C12_19  and  C13_20 
REMARK    7  A    between atoms: C14_21  and  C16_23 
REMARK    8  A    between atoms: C19_26  and  O3_27 
ROOT
HETATM    1  C2  UNL     1      16.806  -5.909  13.338  1.00  0.00     0.139 A 
HETATM    2  C3  UNL     1      15.771  -5.387  14.050  1.00  0.00     0.130 A 
HETATM    3  C4  UNL     1      15.440  -4.045  13.925  1.00  0.00     0.084 A 
HETATM    4  N2  UNL     1      16.123  -3.238  13.105  1.00  0.00    -0.351 N 
ATOM      5  H2  UNL     1      15.869  -2.254  13.024  1.00  0.00     0.166 HD
HETATM    6  C12 UNL     1      17.171  -3.743  12.374  1.00  0.00     0.069 A 
HETATM    7  C19 UNL     1      17.520  -5.068  12.482  1.00  0.00     0.129 A 
ENDROOT
BRANCH   3   8
HETATM    8  C5  UNL     1      14.314  -3.564  14.728  1.00  0.00     0.116 C 
BRANCH   8   9
HETATM    9  N1  UNL     1      13.111  -3.825  14.423  1.00  0.00    -0.392 N 
ATOM     10  H1  UNL     1      12.636  -4.561  14.945  1.00  0.00     0.159 HD
BRANCH   9  11
HETATM   11  C6  UNL     1      12.367  -3.144  13.381  1.00  0.00     0.081 C 
HETATM   12  C7  UNL     1      12.457  -3.951  12.121  1.00  0.00     0.025 C 
HETATM   13  C8  UNL     1      12.066  -3.187  10.891  1.00  0.00     0.002 C 
HETATM   14  C9  UNL     1      12.846  -1.920  10.754  1.00  0.00     0.000 C 
HETATM   15  C10 UNL     1      12.622  -1.078  11.974  1.00  0.00     0.002 C 
HETATM   16  C11 UNL     1      12.954  -1.763  13.253  1.00  0.00     0.025 C 
ENDBRANCH   9  11
ENDBRANCH   8   9
ENDBRANCH   3   8
BRANCH   2  17
HETATM   17  O2  UNL     1      15.039  -6.189  14.908  1.00  0.00    -0.356 OA
ATOM     18  H2  UNL     1      14.215  -6.567  14.624  1.00  0.00     0.218 HD
ENDBRANCH   2  17
BRANCH   1  19
HETATM   19  O1  UNL     1      17.198  -7.238  13.408  1.00  0.00    -0.351 OA
HETATM   20  C1  UNL     1      16.604  -8.292  12.723  1.00  0.00     0.210 C 
ENDBRANCH   1  19
BRANCH   6  21
HETATM   21  C13 UNL     1      17.904  -2.802  11.526  1.00  0.00     0.035 C 
HETATM   22  C14 UNL     1      17.580  -2.379  10.352  1.00  0.00    -0.078 C 
HETATM   23  C15 UNL     1      16.352  -2.799   9.643  1.00  0.00     0.044 C 
BRANCH  22  24
HETATM   24  C16 UNL     1      18.449  -1.407   9.601  1.00  0.00     0.006 C 
HETATM   25  C17 UNL     1      19.671  -2.076   9.035  1.00  0.00     0.014 C 
HETATM   26  C18 UNL     1      17.600  -0.734   8.573  1.00  0.00     0.014 C 
ENDBRANCH  22  24
ENDBRANCH   6  21
BRANCH   7  27
HETATM   27  O3  UNL     1      18.596  -5.591  11.743  1.00  0.00    -0.356 OA
ATOM     28  H3  UNL     1      18.811  -5.208  10.901  1.00  0.00     0.218 HD
ENDBRANCH   7  27
TORSDOF 8
ENDMDL
MODEL 4
REMARK VINA RESULT: -6.914080930      1.334      1.389
REMARK  8 active torsions:
REMARK  status: ('A' for Active; 'I' for Inactive)
REMARK    1  A    between atoms: O1_2  and  C2_3 
REMARK    2  A    between atoms: C3_4  and  O2_5 
REMARK    3  A    between atoms: C4_7  and  C5_8 
REMARK    4  A    between atoms: C5_8  and  N1_9 
REMARK    5  A    between atoms: N1_9  and  C6_11 
REMARK    6  A    between atoms: C12_19  and  C13_20 
REMARK    7  A    between atoms: C14_21  and  C16_23 
REMARK    8  A    between atoms: C19_26  and  O3_27 
ROOT
HETATM    1  C2  UNL     1      16.474  -6.467  12.575  1.00  0.00     0.139 A 
HETATM    2  C3  UNL     1      15.349  -5.983  13.171  1.00  0.00     0.130 A 
HETATM    3  C4  UNL     1      15.016  -4.641  13.055  1.00  0.00     0.084 A 
HETATM    4  N2  UNL     1      15.784  -3.796  12.358  1.00  0.00    -0.351 N 
ATOM      5  H2  UNL     1      15.527  -2.813  12.281  1.00  0.00     0.166 HD
HETATM    6  C12 UNL     1      16.923  -4.261  11.746  1.00  0.00     0.069 A 
HETATM    7  C19 UNL     1      17.277  -5.585  11.847  1.00  0.00     0.129 A 
ENDROOT
BRANCH   3   8
HETATM    8  C5  UNL     1      13.791  -4.204  13.727  1.00  0.00     0.116 C 
BRANCH   8   9
HETATM    9  N1  UNL     1      12.672  -4.179  13.134  1.00  0.00    -0.392 N 
ATOM     10  H1  UNL     1      12.080  -5.008  13.198  1.00  0.00     0.159 HD
BRANCH   9  11
HETATM   11  C6  UNL     1      12.176  -3.050  12.371  1.00  0.00     0.081 C 
HETATM   12  C7  UNL     1      12.663  -3.174  10.959  1.00  0.00     0.025 C 
HETATM   13  C8  UNL     1      12.549  -1.902  10.172  1.00  0.00     0.002 C 
HETATM   14  C9  UNL     1      13.230  -0.763  10.859  1.00  0.00     0.000 C 
HETATM   15  C10 UNL     1      12.622  -0.582  12.217  1.00  0.00     0.002 C 
HETATM   16  C11 UNL     1      12.659  -1.804  13.066  1.00  0.00     0.025 C 
ENDBRANCH   9  11
ENDBRANCH   8   9
ENDBRANCH   3   8
BRANCH   2  17
HETATM   17  O2  UNL     1      14.529  -6.826  13.900  1.00  0.00    -0.356 OA
ATOM     18  H2  UNL     1      13.973  -7.455  13.455  1.00  0.00     0.218 HD
ENDBRANCH   2  17
BRANCH   1  19
HETATM   19  O1  UNL     1      16.875  -7.793  12.644  1.00  0.00    -0.351 OA
HETATM   20  C1  UNL     1      17.664  -8.345  13.646  1.00  0.00     0.210 C 
ENDBRANCH   1  19
BRANCH   6  21
HETATM   21  C13 UNL     1      17.741  -3.280  11.031  1.00  0.00     0.035 C 
HETATM   22  C14 UNL     1      17.429  -2.609   9.975  1.00  0.00    -0.078 C 
HETATM   23  C15 UNL     1      16.125  -2.730   9.287  1.00  0.00     0.044 C 
BRANCH  22  24
HETATM   24  C16 UNL     1      18.391  -1.634   9.353  1.00  0.00     0.006 C 
HETATM   25  C17 UNL     1      17.679  -0.599   8.528  1.00  0.00     0.014 C 
HETATM   26  C18 UNL     1      19.230  -1.059  10.447  1.00  0.00     0.014 C 
ENDBRANCH  22  24
ENDBRANCH   6  21
BRANCH   7  27
HETATM   27  O3  UNL     1      18.444  -6.068  11.230  1.00  0.00    -0.356 OA
ATOM     28  H3  UNL     1      19.290  -5.860  11.609  1.00  0.00     0.218 HD
ENDBRANCH   7  27
TORSDOF 8
ENDMDL
MODEL 5
REMARK VINA RESULT: -6.913047033      1.787      5.160
REMARK  8 active torsions:
REMARK  status: ('A' for Active; 'I' for Inactive)
REMARK    1  A    between atoms: O1_2  and  C2_3 
REMARK    2  A    between atoms: C3_4  and  O2_5 
REMARK    3  A    between atoms: C4_7  and  C5_8 
REMARK    4  A    between atoms: C5_8  and  N1_9 
REMARK    5  A    between atoms: N1_9  and  C6_11 
REMARK    6  A    between atoms: C12_19  and  C13_20 
REMARK    7  A    between atoms: C14_21  and  C16_23 
REMARK    8  A    between atoms: C19_26  and  O3_27 
ROOT
HETATM    1  C2  UNL     1      14.570  -6.771  13.692  1.00  0.00     0.139 A 
HETATM    2  C3  UNL     1      15.602  -6.555  12.831  1.00  0.00     0.130 A 
HETATM    3  C4  UNL     1      15.818  -5.293  12.297  1.00  0.00     0.084 A 
HETATM    4  N2  UNL     1      15.024  -4.263  12.615  1.00  0.00    -0.351 N 
ATOM      5  H2  UNL     1      15.195  -3.341  12.215  1.00  0.00     0.166 HD
HETATM    6  C12 UNL     1      13.977  -4.456  13.483  1.00  0.00     0.069 A 
HETATM    7  C19 UNL     1      13.740  -5.697  14.024  1.00  0.00     0.129 A 
ENDROOT
BRANCH   3   8
HETATM    8  C5  UNL     1      16.949  -5.148  11.379  1.00  0.00     0.116 C 
BRANCH   8   9
HETATM    9  N1  UNL     1      17.507  -4.029  11.172  1.00  0.00    -0.392 N 
ATOM     10  H1  UNL     1      18.016  -3.600  11.946  1.00  0.00     0.159 HD
BRANCH   9  11
HETATM   11  C6  UNL     1      17.471  -3.319   9.909  1.00  0.00     0.081 C 
HETATM   12  C7  UNL     1      18.678  -2.435   9.819  1.00  0.00     0.025 C 
HETATM   13  C8  UNL     1      18.569  -1.378   8.761  1.00  0.00     0.002 C 
HETATM   14  C9  UNL     1      17.333  -0.556   8.922  1.00  0.00     0.000 C 
HETATM   15  C10 UNL     1      16.138  -1.460   8.869  1.00  0.00     0.002 C 
HETATM   16  C11 UNL     1      16.168  -2.564   9.866  1.00  0.00     0.025 C 
ENDBRANCH   9  11
ENDBRANCH   8   9
ENDBRANCH   3   8
BRANCH   2  17
HETATM   17  O2  UNL     1      16.444  -7.594  12.478  1.00  0.00    -0.356 OA
ATOM     18  H2  UNL     1      16.155  -8.496  12.563  1.00  0.00     0.218 HD
ENDBRANCH   2  17
BRANCH   1  19
HETATM   19  O1  UNL     1      14.288  -8.002  14.267  1.00  0.00    -0.351 OA
HETATM   20  C1  UNL     1      14.988  -8.579  15.319  1.00  0.00     0.210 C 
ENDBRANCH   1  19
BRANCH   6  21
HETATM   21  C13 UNL     1      13.123  -3.300  13.760  1.00  0.00     0.035 C 
HETATM   22  C14 UNL     1      12.198  -2.803  13.012  1.00  0.00    -0.078 C 
HETATM   23  C15 UNL     1      11.834  -3.355  11.689  1.00  0.00     0.044 C 
BRANCH  22  24
HETATM   24  C16 UNL     1      11.405  -1.598  13.441  1.00  0.00     0.006 C 
HETATM   25  C17 UNL     1      11.754  -0.384  12.627  1.00  0.00     0.014 C 
HETATM   26  C18 UNL     1       9.957  -1.962  13.389  1.00  0.00     0.014 C 
ENDBRANCH  22  24
ENDBRANCH   6  21
BRANCH   7  27
HETATM   27  O3  UNL     1      12.667  -5.904  14.907  1.00  0.00    -0.356 OA
ATOM     28  H3  UNL     1      12.044  -6.598  14.727  1.00  0.00     0.218 HD
ENDBRANCH   7  27
TORSDOF 8
ENDMDL
