MODEL 1
REMARK VINA RESULT: -7.898366176      0.000      0.000
REMARK  18 active torsions:
REMARK  status: ('A' for Active; 'I' for Inactive)
REMARK    1  A    between atoms: C2_2  and  C3_3 
REMARK    2  A    between atoms: C3_3  and  C4_4 
REMARK    3  A    between atoms: C4_4  and  N1_5 
REMARK    4  A    between atoms: C4_4  and  C5_12 
REMARK    5  A    between atoms: N1_5  and  N2_7 
REMARK    6  A    between atoms: C5_12  and  N4_13 
REMARK    7  A    between atoms: C5_12  and  C12_29 
REMARK    8  A    between atoms: N4_13  and  C6_15 
REMARK    9  A    between atoms: C6_15  and  O1_16 
REMARK   10  A    between atoms: C6_15  and  C7_18 
REMARK   11  A    between atoms: C7_18  and  C8_20 
REMARK       I    between atoms: C8_20  and  N5_22 
REMARK   12  A    between atoms: N5_22  and  C9_24 
REMARK   13  A    between atoms: C9_24  and  C10_25 
REMARK   14  A    between atoms: C10_25  and  C11_26 
REMARK   15  A    between atoms: C12_29  and  C13_31 
REMARK   16  A    between atoms: C13_31  and  C14_32 
REMARK   17  A    between atoms: N6_40  and  C21_41 
REMARK   18  A    between atoms: C21_41  and  C22_42 
ROOT
HETATM    1  C5  UNL     1      11.452 -13.944  15.393  1.00  0.00     0.078 C 
ENDROOT
BRANCH   1   2
HETATM    2  C4  UNL     1      10.546 -12.817  15.644  1.00  0.00     0.154 C 
BRANCH   2   3
HETATM    3  C3  UNL     1      10.065 -12.637  17.081  1.00  0.00     0.042 C 
BRANCH   3   4
HETATM    4  C2  UNL     1       8.561 -12.987  17.132  1.00  0.00    -0.042 A 
HETATM    5  C1  UNL     1       7.912 -12.548  18.436  1.00  0.00     0.015 C 
HETATM    6  C25 UNL     1       7.767 -12.599  15.920  1.00  0.00     0.010 A 
HETATM    7  C26 UNL     1       7.947 -14.036  16.347  1.00  0.00     0.010 A 
ENDBRANCH   3   4
ENDBRANCH   2   3
BRANCH   2   8
HETATM    8  N1  UNL     1      10.968 -11.550  15.072  1.00  0.00    -0.312 N 
ATOM      9  H1  UNL     1      10.335 -11.069  14.434  1.00  0.00     0.182 HD
BRANCH   8  10
HETATM   10  N2  UNL     1      12.196 -10.965  15.358  1.00  0.00    -0.253 N 
HETATM   11  N3  UNL     1      13.195 -11.056  14.627  1.00  0.00    -0.331 N 
ATOM     12  H32 UNL     1      13.091 -11.597  13.768  1.00  0.00     0.178 HD
ATOM     13  H31 UNL     1      14.096 -10.628  14.836  1.00  0.00     0.178 HD
ATOM     14  H2  UNL     1      12.281 -10.428  16.220  1.00  0.00     0.207 HD
ENDBRANCH   8  10
ENDBRANCH   2   8
ENDBRANCH   1   2
BRANCH   1  15
HETATM   15  N4  UNL     1      11.991 -14.606  16.519  1.00  0.00    -0.360 N 
ATOM     16  H4  UNL     1      11.383 -15.269  16.998  1.00  0.00     0.162 HD
BRANCH  15  17
HETATM   17  C6  UNL     1      13.266 -14.443  17.035  1.00  0.00     0.261 C 
BRANCH  17  18
HETATM   18  O1  UNL     1      13.725 -13.098  16.763  1.00  0.00    -0.373 OA
ATOM     19  H1  UNL     1      14.514 -12.927  17.264  1.00  0.00     0.212 HD
ENDBRANCH  17  18
BRANCH  17  20
HETATM   20  C7  UNL     1      14.384 -15.383  16.833  1.00  0.00     0.309 C 
HETATM   21  F1  UNL     1      13.891 -16.650  16.471  1.00  0.00    -0.235 F 
BRANCH  20  22
HETATM   22  C8  UNL     1      15.097 -14.937  15.569  1.00  0.00     0.256 C 
HETATM   23  O2  UNL     1      14.583 -15.284  14.479  1.00  0.00    -0.270 OA
HETATM   24  N5  UNL     1      16.278 -14.179  15.597  1.00  0.00    -0.358 N 
ATOM     25  H5  UNL     1      16.667 -13.913  16.501  1.00  0.00     0.162 HD
BRANCH  24  26
HETATM   26  C9  UNL     1      16.968 -13.759  14.394  1.00  0.00     0.133 C 
BRANCH  26  27
HETATM   27  C10 UNL     1      16.335 -12.531  13.767  1.00  0.00     0.133 C 
BRANCH  27  28
HETATM   28  C11 UNL     1      16.561 -11.373  14.654  1.00  0.00     0.174 C 
HETATM   29  O3  UNL     1      15.938 -11.285  15.734  1.00  0.00    -0.648 OA
HETATM   30  O4  UNL     1      17.456 -10.377  14.311  1.00  0.00    -0.648 OA
ENDBRANCH  27  28
ENDBRANCH  26  27
ENDBRANCH  24  26
ENDBRANCH  20  22
ENDBRANCH  17  20
ENDBRANCH  15  17
ENDBRANCH   1  15
BRANCH   1  31
HETATM   31  C12 UNL     1      11.116 -14.913  14.317  1.00  0.00     0.175 C 
HETATM   32  O5  UNL     1      10.698 -16.021  14.772  1.00  0.00    -0.291 OA
BRANCH  31  33
HETATM   33  C13 UNL     1      11.185 -14.802  12.870  1.00  0.00     0.120 C 
BRANCH  33  34
HETATM   34  C14 UNL     1      10.618 -16.040  12.201  1.00  0.00     0.231 C 
HETATM   35  C15 UNL     1      11.536 -16.645  11.209  1.00  0.00     0.043 C 
HETATM   36  C16 UNL     1      10.602 -17.308  10.217  1.00  0.00     0.028 C 
HETATM   37  C17 UNL     1      10.762 -18.819  10.259  1.00  0.00     0.085 C 
HETATM   38  C20 UNL     1       9.215 -17.058  10.816  1.00  0.00     0.234 C 
HETATM   39  C18 UNL     1      10.044 -19.204  11.529  1.00  0.00     0.129 C 
HETATM   40  O6  UNL     1      10.346 -20.189  12.170  1.00  0.00    -0.298 OA
HETATM   41  C19 UNL     1       8.985 -18.209  11.800  1.00  0.00     0.114 C 
HETATM   42  N6  UNL     1       9.381 -15.818  11.477  1.00  0.00     0.099 N 
BRANCH  42  43
HETATM   43  C21 UNL     1       9.419 -14.670  10.668  1.00  0.00     0.278 C 
BRANCH  43  44
HETATM   44  C22 UNL     1       8.233 -13.825  10.533  1.00  0.00     0.014 A 
HETATM   45  C23 UNL     1       7.009 -14.161   9.696  1.00  0.00     0.007 A 
HETATM   46  C24 UNL     1       7.930 -13.032   9.298  1.00  0.00     0.007 A 
ENDBRANCH  43  44
ENDBRANCH  42  43
ENDBRANCH  33  34
ENDBRANCH  31  33
ENDBRANCH   1  31
TORSDOF 18
ENDMDL
MODEL 2
REMARK VINA RESULT: -7.845919489      3.815      6.391
REMARK  18 active torsions:
REMARK  status: ('A' for Active; 'I' for Inactive)
REMARK    1  A    between atoms: C2_2  and  C3_3 
REMARK    2  A    between atoms: C3_3  and  C4_4 
REMARK    3  A    between atoms: C4_4  and  N1_5 
REMARK    4  A    between atoms: C4_4  and  C5_12 
REMARK    5  A    between atoms: N1_5  and  N2_7 
REMARK    6  A    between atoms: C5_12  and  N4_13 
REMARK    7  A    between atoms: C5_12  and  C12_29 
REMARK    8  A    between atoms: N4_13  and  C6_15 
REMARK    9  A    between atoms: C6_15  and  O1_16 
REMARK   10  A    between atoms: C6_15  and  C7_18 
REMARK   11  A    between atoms: C7_18  and  C8_20 
REMARK       I    between atoms: C8_20  and  N5_22 
REMARK   12  A    between atoms: N5_22  and  C9_24 
REMARK   13  A    between atoms: C9_24  and  C10_25 
REMARK   14  A    between atoms: C10_25  and  C11_26 
REMARK   15  A    between atoms: C12_29  and  C13_31 
REMARK   16  A    between atoms: C13_31  and  C14_32 
REMARK   17  A    between atoms: N6_40  and  C21_41 
REMARK   18  A    between atoms: C21_41  and  C22_42 
ROOT
HETATM    1  C5  UNL     1      13.271 -12.411  16.641  1.00  0.00     0.078 C 
ENDROOT
BRANCH   1   2
HETATM    2  C4  UNL     1      14.679 -12.678  16.960  1.00  0.00     0.154 C 
BRANCH   2   3
HETATM    3  C3  UNL     1      15.321 -13.871  16.257  1.00  0.00     0.042 C 
BRANCH   3   4
HETATM    4  C2  UNL     1      14.693 -15.162  16.828  1.00  0.00    -0.042 A 
HETATM    5  C1  UNL     1      13.880 -15.916  15.786  1.00  0.00     0.015 C 
HETATM    6  C25 UNL     1      15.627 -16.047  17.599  1.00  0.00     0.010 A 
HETATM    7  C26 UNL     1      14.430 -15.381  18.233  1.00  0.00     0.010 A 
ENDBRANCH   3   4
ENDBRANCH   2   3
BRANCH   2   8
HETATM    8  N1  UNL     1      15.550 -11.517  16.920  1.00  0.00    -0.312 N 
ATOM      9  H1  UNL     1      15.640 -10.947  17.760  1.00  0.00     0.182 HD
BRANCH   8  10
HETATM   10  N2  UNL     1      16.265 -11.150  15.786  1.00  0.00    -0.253 N 
HETATM   11  N3  UNL     1      16.305  -9.994  15.335  1.00  0.00    -0.331 N 
ATOM     12  H32 UNL     1      15.775  -9.283  15.838  1.00  0.00     0.178 HD
ATOM     13  H31 UNL     1      16.830  -9.725  14.503  1.00  0.00     0.178 HD
ATOM     14  H2  UNL     1      16.790 -11.874  15.296  1.00  0.00     0.207 HD
ENDBRANCH   8  10
ENDBRANCH   2   8
ENDBRANCH   1   2
BRANCH   1  15
HETATM   15  N4  UNL     1      12.583 -11.490  17.463  1.00  0.00    -0.360 N 
ATOM     16  H4  UNL     1      12.335 -10.594  17.044  1.00  0.00     0.162 HD
BRANCH  15  17
HETATM   17  C6  UNL     1      12.214 -11.685  18.784  1.00  0.00     0.261 C 
BRANCH  17  18
HETATM   18  O1  UNL     1      10.866 -12.210  18.832  1.00  0.00    -0.373 OA
ATOM     19  H1  UNL     1      10.774 -12.772  19.592  1.00  0.00     0.212 HD
ENDBRANCH  17  18
BRANCH  17  20
HETATM   20  C7  UNL     1      12.382 -10.693  19.861  1.00  0.00     0.309 C 
HETATM   21  F1  UNL     1      11.409 -10.891  20.858  1.00  0.00    -0.235 F 
BRANCH  20  22
HETATM   22  C8  UNL     1      13.667 -11.057  20.584  1.00  0.00     0.256 C 
HETATM   23  O2  UNL     1      14.694 -11.190  19.877  1.00  0.00    -0.270 OA
HETATM   24  N5  UNL     1      13.723 -11.245  21.974  1.00  0.00    -0.358 N 
ATOM     25  H5  UNL     1      12.868 -11.126  22.518  1.00  0.00     0.162 HD
BRANCH  24  26
HETATM   26  C9  UNL     1      14.944 -11.600  22.668  1.00  0.00     0.133 C 
BRANCH  26  27
HETATM   27  C10 UNL     1      14.689 -12.531  23.839  1.00  0.00     0.133 C 
BRANCH  27  28
HETATM   28  C11 UNL     1      13.258 -12.473  24.191  1.00  0.00     0.174 C 
HETATM   29  O3  UNL     1      12.833 -11.552  24.921  1.00  0.00    -0.648 OA
HETATM   30  O4  UNL     1      12.370 -13.426  23.726  1.00  0.00    -0.648 OA
ENDBRANCH  27  28
ENDBRANCH  26  27
ENDBRANCH  24  26
ENDBRANCH  20  22
ENDBRANCH  17  20
ENDBRANCH  15  17
ENDBRANCH   1  15
BRANCH   1  31
HETATM   31  C12 UNL     1      12.872 -12.254  15.218  1.00  0.00     0.175 C 
HETATM   32  O5  UNL     1      13.365 -11.213  14.685  1.00  0.00    -0.291 OA
BRANCH  31  33
HETATM   33  C13 UNL     1      12.033 -13.074  14.361  1.00  0.00     0.120 C 
BRANCH  33  34
HETATM   34  C14 UNL     1      10.604 -13.111  14.870  1.00  0.00     0.231 C 
HETATM   35  C15 UNL     1      10.328 -14.256  15.766  1.00  0.00     0.043 C 
HETATM   36  C16 UNL     1       8.851 -14.524  15.559  1.00  0.00     0.028 C 
HETATM   37  C17 UNL     1       8.070 -14.231  16.830  1.00  0.00     0.085 C 
HETATM   38  C20 UNL     1       8.425 -13.416  14.590  1.00  0.00     0.234 C 
HETATM   39  C18 UNL     1       8.020 -12.724  16.862  1.00  0.00     0.129 C 
HETATM   40  O6  UNL     1       7.941 -12.102  17.900  1.00  0.00    -0.298 OA
HETATM   41  C19 UNL     1       8.082 -12.214  15.476  1.00  0.00     0.114 C 
HETATM   42  N6  UNL     1       9.598 -13.200  13.830  1.00  0.00     0.099 N 
BRANCH  42  43
HETATM   43  C21 UNL     1       9.905 -14.161  12.853  1.00  0.00     0.278 C 
BRANCH  43  44
HETATM   44  C22 UNL     1       8.922 -14.509  11.827  1.00  0.00     0.014 A 
HETATM   45  C23 UNL     1       9.235 -15.212  10.516  1.00  0.00     0.007 A 
HETATM   46  C24 UNL     1       8.795 -13.767  10.532  1.00  0.00     0.007 A 
ENDBRANCH  43  44
ENDBRANCH  42  43
ENDBRANCH  33  34
ENDBRANCH  31  33
ENDBRANCH   1  31
TORSDOF 18
ENDMDL
MODEL 3
REMARK VINA RESULT: -7.803934888      2.629      5.217
REMARK  18 active torsions:
REMARK  status: ('A' for Active; 'I' for Inactive)
REMARK    1  A    between atoms: C2_2  and  C3_3 
REMARK    2  A    between atoms: C3_3  and  C4_4 
REMARK    3  A    between atoms: C4_4  and  N1_5 
REMARK    4  A    between atoms: C4_4  and  C5_12 
REMARK    5  A    between atoms: N1_5  and  N2_7 
REMARK    6  A    between atoms: C5_12  and  N4_13 
REMARK    7  A    between atoms: C5_12  and  C12_29 
REMARK    8  A    between atoms: N4_13  and  C6_15 
REMARK    9  A    between atoms: C6_15  and  O1_16 
REMARK   10  A    between atoms: C6_15  and  C7_18 
REMARK   11  A    between atoms: C7_18  and  C8_20 
REMARK       I    between atoms: C8_20  and  N5_22 
REMARK   12  A    between atoms: N5_22  and  C9_24 
REMARK   13  A    between atoms: C9_24  and  C10_25 
REMARK   14  A    between atoms: C10_25  and  C11_26 
REMARK   15  A    between atoms: C12_29  and  C13_31 
REMARK   16  A    between atoms: C13_31  and  C14_32 
REMARK   17  A    between atoms: N6_40  and  C21_41 
REMARK   18  A    between atoms: C21_41  and  C22_42 
ROOT
HETATM    1  C5  UNL     1      13.745 -15.239  16.050  1.00  0.00     0.078 C 
ENDROOT
BRANCH   1   2
HETATM    2  C4  UNL     1      14.879 -15.872  15.366  1.00  0.00     0.154 C 
BRANCH   2   3
HETATM    3  C3  UNL     1      15.423 -17.153  15.992  1.00  0.00     0.042 C 
BRANCH   3   4
HETATM    4  C2  UNL     1      16.959 -17.023  16.095  1.00  0.00    -0.042 A 
HETATM    5  C1  UNL     1      17.386 -15.671  16.649  1.00  0.00     0.015 C 
HETATM    6  C25 UNL     1      17.660 -18.175  16.751  1.00  0.00     0.010 A 
HETATM    7  C26 UNL     1      17.891 -17.799  15.308  1.00  0.00     0.010 A 
ENDBRANCH   3   4
ENDBRANCH   2   3
BRANCH   2   8
HETATM    8  N1  UNL     1      14.727 -16.016  13.929  1.00  0.00    -0.312 N 
ATOM      9  H1  UNL     1      14.897 -15.203  13.337  1.00  0.00     0.182 HD
BRANCH   8  10
HETATM   10  N2  UNL     1      14.362 -17.213  13.326  1.00  0.00    -0.253 N 
HETATM   11  N3  UNL     1      13.349 -17.355  12.621  1.00  0.00    -0.331 N 
ATOM     12  H32 UNL     1      12.761 -16.533  12.487  1.00  0.00     0.178 HD
ATOM     13  H31 UNL     1      13.081 -18.234  12.179  1.00  0.00     0.178 HD
ATOM     14  H2  UNL     1      14.961 -18.025  13.470  1.00  0.00     0.207 HD
ENDBRANCH   8  10
ENDBRANCH   2   8
ENDBRANCH   1   2
BRANCH   1  15
HETATM   15  N4  UNL     1      13.882 -13.878  16.409  1.00  0.00    -0.360 N 
ATOM     16  H4  UNL     1      13.440 -13.586  17.280  1.00  0.00     0.162 HD
BRANCH  15  17
HETATM   17  C6  UNL     1      14.557 -12.904  15.693  1.00  0.00     0.261 C 
BRANCH  17  18
HETATM   18  O1  UNL     1      14.990 -11.859  16.597  1.00  0.00    -0.373 OA
ATOM     19  H1  UNL     1      14.885 -11.014  16.174  1.00  0.00     0.212 HD
ENDBRANCH  17  18
BRANCH  17  20
HETATM   20  C7  UNL     1      14.075 -12.290  14.444  1.00  0.00     0.309 C 
HETATM   21  F1  UNL     1      12.923 -11.521  14.695  1.00  0.00    -0.235 F 
BRANCH  20  22
HETATM   22  C8  UNL     1      15.095 -11.232  14.062  1.00  0.00     0.256 C 
HETATM   23  O2  UNL     1      14.765 -10.037  14.250  1.00  0.00    -0.270 OA
HETATM   24  N5  UNL     1      16.348 -11.554  13.519  1.00  0.00    -0.358 N 
ATOM     25  H5  UNL     1      16.583 -12.537  13.382  1.00  0.00     0.162 HD
BRANCH  24  26
HETATM   26  C9  UNL     1      17.322 -10.549  13.144  1.00  0.00     0.133 C 
BRANCH  26  27
HETATM   27  C10 UNL     1      17.351 -10.305  11.647  1.00  0.00     0.133 C 
BRANCH  27  28
HETATM   28  C11 UNL     1      16.995  -8.896  11.388  1.00  0.00     0.174 C 
HETATM   29  O3  UNL     1      15.841  -8.489  11.637  1.00  0.00    -0.648 OA
HETATM   30  O4  UNL     1      17.923  -8.011  10.870  1.00  0.00    -0.648 OA
ENDBRANCH  27  28
ENDBRANCH  26  27
ENDBRANCH  24  26
ENDBRANCH  20  22
ENDBRANCH  17  20
ENDBRANCH  15  17
ENDBRANCH   1  15
BRANCH   1  31
HETATM   31  C12 UNL     1      12.366 -15.528  15.578  1.00  0.00     0.175 C 
HETATM   32  O5  UNL     1      12.124 -16.772  15.511  1.00  0.00    -0.291 OA
BRANCH  31  33
HETATM   33  C13 UNL     1      11.279 -14.644  15.194  1.00  0.00     0.120 C 
BRANCH  33  34
HETATM   34  C14 UNL     1      10.646 -15.094  13.890  1.00  0.00     0.231 C 
HETATM   35  C15 UNL     1      11.183 -14.391  12.702  1.00  0.00     0.043 C 
HETATM   36  C16 UNL     1      10.026 -14.408  11.724  1.00  0.00     0.028 C 
HETATM   37  C17 UNL     1      10.362 -15.261  10.512  1.00  0.00     0.085 C 
HETATM   38  C20 UNL     1       8.950 -15.209  12.464  1.00  0.00     0.234 C 
HETATM   39  C18 UNL     1      10.228 -16.669  11.037  1.00  0.00     0.129 C 
HETATM   40  O6  UNL     1      10.861 -17.594  10.574  1.00  0.00    -0.298 OA
HETATM   41  C19 UNL     1       9.244 -16.677  12.140  1.00  0.00     0.114 C 
HETATM   42  N6  UNL     1       9.211 -14.900  13.821  1.00  0.00     0.099 N 
BRANCH  42  43
HETATM   43  C21 UNL     1       8.808 -13.632  14.269  1.00  0.00     0.278 C 
BRANCH  43  44
HETATM   44  C22 UNL     1       7.770 -13.508  15.293  1.00  0.00     0.014 A 
HETATM   45  C23 UNL     1       7.645 -12.359  16.280  1.00  0.00     0.007 A 
HETATM   46  C24 UNL     1       8.027 -13.743  16.751  1.00  0.00     0.007 A 
ENDBRANCH  43  44
ENDBRANCH  42  43
ENDBRANCH  33  34
ENDBRANCH  31  33
ENDBRANCH   1  31
TORSDOF 18
ENDMDL
MODEL 4
REMARK VINA RESULT: -7.803089718      2.025      3.465
REMARK  18 active torsions:
REMARK  status: ('A' for Active; 'I' for Inactive)
REMARK    1  A    between atoms: C2_2  and  C3_3 
REMARK    2  A    between atoms: C3_3  and  C4_4 
REMARK    3  A    between atoms: C4_4  and  N1_5 
REMARK    4  A    between atoms: C4_4  and  C5_12 
REMARK    5  A    between atoms: N1_5  and  N2_7 
REMARK    6  A    between atoms: C5_12  and  N4_13 
REMARK    7  A    between atoms: C5_12  and  C12_29 
REMARK    8  A    between atoms: N4_13  and  C6_15 
REMARK    9  A    between atoms: C6_15  and  O1_16 
REMARK   10  A    between atoms: C6_15  and  C7_18 
REMARK   11  A    between atoms: C7_18  and  C8_20 
REMARK       I    between atoms: C8_20  and  N5_22 
REMARK   12  A    between atoms: N5_22  and  C9_24 
REMARK   13  A    between atoms: C9_24  and  C10_25 
REMARK   14  A    between atoms: C10_25  and  C11_26 
REMARK   15  A    between atoms: C12_29  and  C13_31 
REMARK   16  A    between atoms: C13_31  and  C14_32 
REMARK   17  A    between atoms: N6_40  and  C21_41 
REMARK   18  A    between atoms: C21_41  and  C22_42 
ROOT
HETATM    1  C5  UNL     1      12.560 -13.988  16.257  1.00  0.00     0.078 C 
ENDROOT
BRANCH   1   2
HETATM    2  C4  UNL     1      11.739 -12.812  16.568  1.00  0.00     0.154 C 
BRANCH   2   3
HETATM    3  C3  UNL     1      10.505 -13.052  17.433  1.00  0.00     0.042 C 
BRANCH   3   4
HETATM    4  C2  UNL     1       9.253 -12.757  16.578  1.00  0.00    -0.042 A 
HETATM    5  C1  UNL     1       9.608 -12.156  15.226  1.00  0.00     0.015 C 
HETATM    6  C25 UNL     1       8.260 -13.877  16.481  1.00  0.00     0.010 A 
HETATM    7  C26 UNL     1       7.930 -12.552  17.125  1.00  0.00     0.010 A 
ENDBRANCH   3   4
ENDBRANCH   2   3
BRANCH   2   8
HETATM    8  N1  UNL     1      12.478 -11.648  17.024  1.00  0.00    -0.312 N 
ATOM      9  H1  UNL     1      12.756 -10.948  16.337  1.00  0.00     0.182 HD
BRANCH   8  10
HETATM   10  N2  UNL     1      12.824 -11.449  18.355  1.00  0.00    -0.253 N 
HETATM   11  N3  UNL     1      13.969 -11.163  18.739  1.00  0.00    -0.331 N 
ATOM     12  H32 UNL     1      14.688 -11.073  18.022  1.00  0.00     0.178 HD
ATOM     13  H31 UNL     1      14.223 -11.017  19.716  1.00  0.00     0.178 HD
ATOM     14  H2  UNL     1      12.093 -11.542  19.059  1.00  0.00     0.207 HD
ENDBRANCH   8  10
ENDBRANCH   2   8
ENDBRANCH   1   2
BRANCH   1  15
HETATM   15  N4  UNL     1      13.029 -14.757  17.347  1.00  0.00    -0.360 N 
ATOM     16  H4  UNL     1      12.327 -15.244  17.903  1.00  0.00     0.162 HD
BRANCH  15  17
HETATM   17  C6  UNL     1      14.350 -14.915  17.732  1.00  0.00     0.261 C 
BRANCH  17  18
HETATM   18  O1  UNL     1      14.995 -13.620  17.778  1.00  0.00    -0.373 OA
ATOM     19  H1  UNL     1      15.895 -13.726  18.060  1.00  0.00     0.212 HD
ENDBRANCH  17  18
BRANCH  17  20
HETATM   20  C7  UNL     1      15.285 -15.897  17.154  1.00  0.00     0.309 C 
HETATM   21  F1  UNL     1      14.610 -16.729  16.241  1.00  0.00    -0.235 F 
BRANCH  20  22
HETATM   22  C8  UNL     1      16.225 -15.118  16.251  1.00  0.00     0.256 C 
HETATM   23  O2  UNL     1      17.409 -14.993  16.644  1.00  0.00    -0.270 OA
HETATM   24  N5  UNL     1      15.807 -14.552  15.037  1.00  0.00    -0.358 N 
ATOM     25  H5  UNL     1      14.837 -14.675  14.748  1.00  0.00     0.162 HD
BRANCH  24  26
HETATM   26  C9  UNL     1      16.697 -13.800  14.176  1.00  0.00     0.133 C 
BRANCH  26  27
HETATM   27  C10 UNL     1      16.758 -12.332  14.553  1.00  0.00     0.133 C 
BRANCH  27  28
HETATM   28  C11 UNL     1      15.400 -11.873  14.900  1.00  0.00     0.174 C 
HETATM   29  O3  UNL     1      15.153 -11.479  16.059  1.00  0.00    -0.648 OA
HETATM   30  O4  UNL     1      14.387 -11.870  13.959  1.00  0.00    -0.648 OA
ENDBRANCH  27  28
ENDBRANCH  26  27
ENDBRANCH  24  26
ENDBRANCH  20  22
ENDBRANCH  17  20
ENDBRANCH  15  17
ENDBRANCH   1  15
BRANCH   1  31
HETATM   31  C12 UNL     1      12.169 -14.861  15.120  1.00  0.00     0.175 C 
HETATM   32  O5  UNL     1      12.977 -14.782  14.145  1.00  0.00    -0.291 OA
BRANCH  31  33
HETATM   33  C13 UNL     1      11.045 -15.765  14.947  1.00  0.00     0.120 C 
BRANCH  33  34
HETATM   34  C14 UNL     1      10.523 -15.720  13.523  1.00  0.00     0.231 C 
HETATM   35  C15 UNL     1       9.065 -15.960  13.423  1.00  0.00     0.043 C 
HETATM   36  C16 UNL     1       8.899 -16.578  12.049  1.00  0.00     0.028 C 
HETATM   37  C17 UNL     1       8.110 -15.653  11.138  1.00  0.00     0.085 C 
HETATM   38  C20 UNL     1      10.320 -16.551  11.477  1.00  0.00     0.234 C 
HETATM   39  C18 UNL     1       9.114 -14.586  10.780  1.00  0.00     0.129 C 
HETATM   40  O6  UNL     1       8.783 -13.452  10.503  1.00  0.00    -0.298 OA
HETATM   41  C19 UNL     1      10.472 -15.169  10.835  1.00  0.00     0.114 C 
HETATM   42  N6  UNL     1      11.124 -16.693  12.632  1.00  0.00     0.099 N 
BRANCH  42  43
HETATM   43  C21 UNL     1      11.199 -17.978  13.197  1.00  0.00     0.278 C 
BRANCH  43  44
HETATM   44  C22 UNL     1      12.417 -18.776  13.051  1.00  0.00     0.014 A 
HETATM   45  C23 UNL     1      13.444 -19.013  14.145  1.00  0.00     0.007 A 
HETATM   46  C24 UNL     1      13.782 -18.170  12.938  1.00  0.00     0.007 A 
ENDBRANCH  43  44
ENDBRANCH  42  43
ENDBRANCH  33  34
ENDBRANCH  31  33
ENDBRANCH   1  31
TORSDOF 18
ENDMDL
MODEL 5
REMARK VINA RESULT: -7.762369592      2.995      5.705
REMARK  18 active torsions:
REMARK  status: ('A' for Active; 'I' for Inactive)
REMARK    1  A    between atoms: C2_2  and  C3_3 
REMARK    2  A    between atoms: C3_3  and  C4_4 
REMARK    3  A    between atoms: C4_4  and  N1_5 
REMARK    4  A    between atoms: C4_4  and  C5_12 
REMARK    5  A    between atoms: N1_5  and  N2_7 
REMARK    6  A    between atoms: C5_12  and  N4_13 
REMARK    7  A    between atoms: C5_12  and  C12_29 
REMARK    8  A    between atoms: N4_13  and  C6_15 
REMARK    9  A    between atoms: C6_15  and  O1_16 
REMARK   10  A    between atoms: C6_15  and  C7_18 
REMARK   11  A    between atoms: C7_18  and  C8_20 
REMARK       I    between atoms: C8_20  and  N5_22 
REMARK   12  A    between atoms: N5_22  and  C9_24 
REMARK   13  A    between atoms: C9_24  and  C10_25 
REMARK   14  A    between atoms: C10_25  and  C11_26 
REMARK   15  A    between atoms: C12_29  and  C13_31 
REMARK   16  A    between atoms: C13_31  and  C14_32 
REMARK   17  A    between atoms: N6_40  and  C21_41 
REMARK   18  A    between atoms: C21_41  and  C22_42 
ROOT
HETATM    1  C5  UNL     1      13.795 -12.635  16.112  1.00  0.00     0.078 C 
ENDROOT
BRANCH   1   2
HETATM    2  C4  UNL     1      15.170 -13.089  15.877  1.00  0.00     0.154 C 
BRANCH   2   3
HETATM    3  C3  UNL     1      15.333 -14.440  15.186  1.00  0.00     0.042 C 
BRANCH   3   4
HETATM    4  C2  UNL     1      15.910 -15.440  16.212  1.00  0.00    -0.042 A 
HETATM    5  C1  UNL     1      14.853 -15.936  17.189  1.00  0.00     0.015 C 
HETATM    6  C25 UNL     1      16.744 -16.545  15.638  1.00  0.00     0.010 A 
HETATM    7  C26 UNL     1      17.307 -15.508  16.578  1.00  0.00     0.010 A 
ENDBRANCH   3   4
ENDBRANCH   2   3
BRANCH   2   8
HETATM    8  N1  UNL     1      16.055 -12.095  15.296  1.00  0.00    -0.312 N 
ATOM      9  H1  UNL     1      16.546 -12.325  14.432  1.00  0.00     0.182 HD
BRANCH   8  10
HETATM   10  N2  UNL     1      16.263 -10.845  15.866  1.00  0.00    -0.253 N 
HETATM   11  N3  UNL     1      16.567  -9.829  15.221  1.00  0.00    -0.331 N 
ATOM     12  H32 UNL     1      16.666  -9.936  14.212  1.00  0.00     0.178 HD
ATOM     13  H31 UNL     1      16.719  -8.912  15.639  1.00  0.00     0.178 HD
ATOM     14  H2  UNL     1      16.159 -10.756  16.877  1.00  0.00     0.207 HD
ENDBRANCH   8  10
ENDBRANCH   2   8
ENDBRANCH   1   2
BRANCH   1  15
HETATM   15  N4  UNL     1      13.523 -11.999  17.345  1.00  0.00    -0.360 N 
ATOM     16  H4  UNL     1      14.327 -11.684  17.887  1.00  0.00     0.162 HD
BRANCH  15  17
HETATM   17  C6  UNL     1      12.272 -11.762  17.889  1.00  0.00     0.261 C 
BRANCH  17  18
HETATM   18  O1  UNL     1      12.375 -10.730  18.898  1.00  0.00    -0.373 OA
ATOM     19  H1  UNL     1      12.108  -9.898  18.525  1.00  0.00     0.212 HD
ENDBRANCH  17  18
BRANCH  17  20
HETATM   20  C7  UNL     1      11.348 -12.807  18.363  1.00  0.00     0.309 C 
HETATM   21  F1  UNL     1      11.763 -14.069  17.897  1.00  0.00    -0.235 F 
BRANCH  20  22
HETATM   22  C8  UNL     1      11.565 -12.927  19.861  1.00  0.00     0.256 C 
HETATM   23  O2  UNL     1      10.608 -12.590  20.598  1.00  0.00    -0.270 OA
HETATM   24  N5  UNL     1      12.771 -13.384  20.414  1.00  0.00    -0.358 N 
ATOM     25  H5  UNL     1      13.527 -13.652  19.784  1.00  0.00     0.162 HD
BRANCH  24  26
HETATM   26  C9  UNL     1      12.988 -13.493  21.842  1.00  0.00     0.133 C 
BRANCH  26  27
HETATM   27  C10 UNL     1      13.196 -12.140  22.497  1.00  0.00     0.133 C 
BRANCH  27  28
HETATM   28  C11 UNL     1      14.459 -11.560  22.001  1.00  0.00     0.174 C 
HETATM   29  O3  UNL     1      15.481 -11.589  22.720  1.00  0.00    -0.648 OA
HETATM   30  O4  UNL     1      14.534 -10.982  20.748  1.00  0.00    -0.648 OA
ENDBRANCH  27  28
ENDBRANCH  26  27
ENDBRANCH  24  26
ENDBRANCH  20  22
ENDBRANCH  17  20
ENDBRANCH  15  17
ENDBRANCH   1  15
BRANCH   1  31
HETATM   31  C12 UNL     1      13.051 -11.983  15.002  1.00  0.00     0.175 C 
HETATM   32  O5  UNL     1      13.592 -10.899  14.624  1.00  0.00    -0.291 OA
BRANCH  31  33
HETATM   33  C13 UNL     1      11.841 -12.372  14.299  1.00  0.00     0.120 C 
BRANCH  33  34
HETATM   34  C14 UNL     1      11.659 -13.879  14.320  1.00  0.00     0.231 C 
HETATM   35  C15 UNL     1      11.652 -14.489  12.972  1.00  0.00     0.043 C 
HETATM   36  C16 UNL     1      10.784 -15.719  13.141  1.00  0.00     0.028 C 
HETATM   37  C17 UNL     1      11.605 -16.985  12.954  1.00  0.00     0.085 C 
HETATM   38  C20 UNL     1      10.443 -15.707  14.635  1.00  0.00     0.234 C 
HETATM   39  C18 UNL     1      12.382 -17.082  14.244  1.00  0.00     0.129 C 
HETATM   40  O6  UNL     1      13.466 -17.623  14.306  1.00  0.00    -0.298 OA
HETATM   41  C19 UNL     1      11.605 -16.433  15.321  1.00  0.00     0.114 C 
HETATM   42  N6  UNL     1      10.426 -14.325  14.939  1.00  0.00     0.099 N 
BRANCH  42  43
HETATM   43  C21 UNL     1       9.304 -13.598  14.509  1.00  0.00     0.278 C 
BRANCH  43  44
HETATM   44  C22 UNL     1       8.085 -13.578  15.319  1.00  0.00     0.014 A 
HETATM   45  C23 UNL     1       7.659 -12.440  16.232  1.00  0.00     0.007 A 
HETATM   46  C24 UNL     1       8.087 -13.770  16.805  1.00  0.00     0.007 A 
ENDBRANCH  43  44
ENDBRANCH  42  43
ENDBRANCH  33  34
ENDBRANCH  31  33
ENDBRANCH   1  31
TORSDOF 18
ENDMDL
