MODEL 1
REMARK VINA RESULT: -7.670634216      0.000      0.000
REMARK  19 active torsions:
REMARK  status: ('A' for Active; 'I' for Inactive)
REMARK    1  A    between atoms: C3_3  and  C4_4 
REMARK    2  A    between atoms: C4_4  and  C5_5 
REMARK       I    between atoms: C5_5  and  N1_7 
REMARK    3  A    between atoms: N1_7  and  C6_9 
REMARK    4  A    between atoms: C6_9  and  C7_10 
REMARK    5  A    between atoms: C6_9  and  C8_13 
REMARK    6  A    between atoms: C8_13  and  N3_15 
REMARK       I    between atoms: N3_15  and  C10_17 
REMARK    7  A    between atoms: C10_17  and  C11_19 
REMARK    8  A    between atoms: C11_19  and  N4_20 
REMARK    9  A    between atoms: C11_19  and  C24_43 
REMARK       I    between atoms: N4_20  and  C12_22 
REMARK   10  A    between atoms: C12_22  and  C13_24 
REMARK   11  A    between atoms: C13_24  and  C14_26 
REMARK   12  A    between atoms: C14_26  and  C15_27 
REMARK       I    between atoms: C15_27  and  N5_29 
REMARK   13  A    between atoms: N5_29  and  C16_31 
REMARK   14  A    between atoms: C16_31  and  C17_32 
REMARK   15  A    between atoms: C16_31  and  C21_40 
REMARK   16  A    between atoms: C17_32  and  O7_33 
REMARK   17  A    between atoms: C17_32  and  N6_35 
REMARK   18  A    between atoms: N6_35  and  C18_37 
REMARK   19  A    between atoms: C18_37  and  C19_38 
ROOT
HETATM    1  C1  UNL     1       5.800 -14.513  12.012  1.00  0.00     0.012 C 
HETATM    2  C2  UNL     1       6.495 -14.250  11.045  1.00  0.00    -0.117 C 
HETATM    3  C3  UNL     1       7.325 -13.939   9.898  1.00  0.00     0.102 C 
ENDROOT
BRANCH   3   4
HETATM    4  C4  UNL     1       8.794 -13.856  10.291  1.00  0.00     0.115 C 
BRANCH   4   5
HETATM    5  C5  UNL     1       9.244 -15.064  11.011  1.00  0.00     0.219 C 
HETATM    6  O1  UNL     1       9.294 -16.179  10.420  1.00  0.00    -0.274 OA
HETATM    7  N1  UNL     1       9.621 -14.989  12.359  1.00  0.00    -0.346 N 
ATOM      8  H1  UNL     1       9.573 -14.074  12.808  1.00  0.00     0.163 HD
BRANCH   7   9
HETATM    9  C6  UNL     1      10.074 -16.103  13.166  1.00  0.00     0.196 C 
BRANCH   9  10
HETATM   10  C7  UNL     1       8.978 -16.759  13.891  1.00  0.00     0.256 C 
HETATM   11  N2  UNL     1       8.811 -18.128  14.111  1.00  0.00    -0.060 NA
HETATM   12  O2  UNL     1       8.082 -15.975  14.365  1.00  0.00    -0.274 OA
ENDBRANCH   9  10
BRANCH   9  13
HETATM   13  C8  UNL     1      11.181 -15.641  14.075  1.00  0.00     0.112 C 
HETATM   14  C9  UNL     1      12.094 -16.845  14.362  1.00  0.00     0.034 C 
BRANCH  13  15
HETATM   15  N3  UNL     1      10.686 -15.069  15.335  1.00  0.00    -0.349 N 
HETATM   16  C10 UNL     1      10.514 -13.688  15.460  1.00  0.00     0.264 C 
HETATM   17  O3  UNL     1      10.829 -12.999  14.412  1.00  0.00    -0.266 OA
ATOM     18  H3  UNL     1      10.468 -15.683  16.121  1.00  0.00     0.163 HD
BRANCH  16  19
HETATM   19  C11 UNL     1      10.035 -12.884  16.585  1.00  0.00     0.084 C 
BRANCH  19  20
HETATM   20  N4  UNL     1      10.952 -12.750  17.664  1.00  0.00    -0.319 N 
HETATM   21  C12 UNL     1      12.091 -11.920  17.714  1.00  0.00     0.292 C 
HETATM   22  O4  UNL     1      12.379 -11.210  16.720  1.00  0.00    -0.264 OA
ATOM     23  H4  UNL     1      10.765 -13.315  18.492  1.00  0.00     0.169 HD
BRANCH  21  24
HETATM   24  C13 UNL     1      12.971 -11.835  18.866  1.00  0.00     0.225 C 
HETATM   25  O5  UNL     1      12.452 -11.833  20.006  1.00  0.00    -0.287 OA
BRANCH  24  26
HETATM   26  C14 UNL     1      14.414 -11.753  18.709  1.00  0.00     0.191 C 
BRANCH  26  27
HETATM   27  C15 UNL     1      14.952 -12.378  17.493  1.00  0.00     0.225 C 
HETATM   28  O6  UNL     1      15.053 -13.636  17.465  1.00  0.00    -0.273 OA
HETATM   29  N5  UNL     1      15.360 -11.631  16.362  1.00  0.00    -0.348 N 
ATOM     30  H5  UNL     1      15.263 -10.616  16.387  1.00  0.00     0.163 HD
BRANCH  29  31
HETATM   31  C16 UNL     1      15.918 -12.256  15.153  1.00  0.00     0.162 C 
BRANCH  31  32
HETATM   32  C17 UNL     1      14.872 -13.072  14.493  1.00  0.00     0.135 C 
BRANCH  32  33
HETATM   33  O7  UNL     1      13.807 -12.437  14.096  1.00  0.00    -0.348 OA
ATOM     34  H7  UNL     1      13.149 -12.260  14.758  1.00  0.00     0.219 HD
ENDBRANCH  32  33
BRANCH  32  35
HETATM   35  N6  UNL     1      14.866 -14.443  14.231  1.00  0.00    -0.369 N 
ATOM     36  H6  UNL     1      13.985 -14.916  14.026  1.00  0.00     0.161 HD
BRANCH  35  37
HETATM   37  C18 UNL     1      16.124 -15.210  14.247  1.00  0.00     0.148 C 
BRANCH  37  38
HETATM   38  C19 UNL     1      15.973 -16.401  15.125  1.00  0.00    -0.018 C 
HETATM   39  C20 UNL     1      15.849 -17.624  14.640  1.00  0.00     0.008 C 
ENDBRANCH  37  38
ENDBRANCH  35  37
ENDBRANCH  32  35
ENDBRANCH  31  32
BRANCH  31  40
HETATM   40  C21 UNL     1      16.669 -11.304  14.326  1.00  0.00     0.008 C 
HETATM   41  C22 UNL     1      15.945 -10.106  13.828  1.00  0.00     0.012 C 
HETATM   42  C23 UNL     1      17.416 -11.979  13.219  1.00  0.00     0.012 C 
ENDBRANCH  31  40
ENDBRANCH  29  31
ENDBRANCH  26  27
ENDBRANCH  24  26
ENDBRANCH  21  24
ENDBRANCH  19  20
BRANCH  19  43
HETATM   43  C24 UNL     1       8.611 -13.106  16.900  1.00  0.00     0.033 C 
HETATM   44  C25 UNL     1       7.700 -12.650  15.795  1.00  0.00     0.016 C 
HETATM   45  C26 UNL     1       8.208 -12.582  18.249  1.00  0.00     0.016 C 
ENDBRANCH  19  43
ENDBRANCH  16  19
ENDBRANCH  13  15
ENDBRANCH   9  13
ENDBRANCH   7   9
ENDBRANCH   4   5
ENDBRANCH   3   4
TORSDOF 19
ENDMDL
MODEL 2
REMARK VINA RESULT: -7.533569811      2.416      4.585
REMARK  19 active torsions:
REMARK  status: ('A' for Active; 'I' for Inactive)
REMARK    1  A    between atoms: C3_3  and  C4_4 
REMARK    2  A    between atoms: C4_4  and  C5_5 
REMARK       I    between atoms: C5_5  and  N1_7 
REMARK    3  A    between atoms: N1_7  and  C6_9 
REMARK    4  A    between atoms: C6_9  and  C7_10 
REMARK    5  A    between atoms: C6_9  and  C8_13 
REMARK    6  A    between atoms: C8_13  and  N3_15 
REMARK       I    between atoms: N3_15  and  C10_17 
REMARK    7  A    between atoms: C10_17  and  C11_19 
REMARK    8  A    between atoms: C11_19  and  N4_20 
REMARK    9  A    between atoms: C11_19  and  C24_43 
REMARK       I    between atoms: N4_20  and  C12_22 
REMARK   10  A    between atoms: C12_22  and  C13_24 
REMARK   11  A    between atoms: C13_24  and  C14_26 
REMARK   12  A    between atoms: C14_26  and  C15_27 
REMARK       I    between atoms: C15_27  and  N5_29 
REMARK   13  A    between atoms: N5_29  and  C16_31 
REMARK   14  A    between atoms: C16_31  and  C17_32 
REMARK   15  A    between atoms: C16_31  and  C21_40 
REMARK   16  A    between atoms: C17_32  and  O7_33 
REMARK   17  A    between atoms: C17_32  and  N6_35 
REMARK   18  A    between atoms: N6_35  and  C18_37 
REMARK   19  A    between atoms: C18_37  and  C19_38 
ROOT
HETATM    1  C1  UNL     1       8.119 -12.271  18.819  1.00  0.00     0.012 C 
HETATM    2  C2  UNL     1       7.971 -12.605  17.655  1.00  0.00    -0.117 C 
HETATM    3  C3  UNL     1       7.793 -13.008  16.275  1.00  0.00     0.102 C 
ENDROOT
BRANCH   3   4
HETATM    4  C4  UNL     1       7.923 -14.518  16.123  1.00  0.00     0.115 C 
BRANCH   4   5
HETATM    5  C5  UNL     1       8.206 -14.913  14.729  1.00  0.00     0.219 C 
HETATM    6  O1  UNL     1       7.311 -14.817  13.843  1.00  0.00    -0.274 OA
HETATM    7  N1  UNL     1       9.472 -15.397  14.371  1.00  0.00    -0.346 N 
ATOM      8  H1  UNL     1      10.174 -15.460  15.107  1.00  0.00     0.163 HD
BRANCH   7   9
HETATM    9  C6  UNL     1       9.863 -15.816  13.041  1.00  0.00     0.196 C 
BRANCH   9  10
HETATM   10  C7  UNL     1      10.600 -17.086  13.042  1.00  0.00     0.256 C 
HETATM   11  N2  UNL     1      10.269 -18.257  12.355  1.00  0.00    -0.060 NA
HETATM   12  O2  UNL     1      11.662 -17.108  13.759  1.00  0.00    -0.274 OA
ENDBRANCH   9  10
BRANCH   9  13
HETATM   13  C8  UNL     1      10.622 -14.702  12.371  1.00  0.00     0.112 C 
HETATM   14  C9  UNL     1      10.975 -15.158  10.945  1.00  0.00     0.034 C 
BRANCH  13  15
HETATM   15  N3  UNL     1      11.840 -14.321  13.098  1.00  0.00    -0.349 N 
HETATM   16  C10 UNL     1      11.823 -13.238  13.981  1.00  0.00     0.264 C 
HETATM   17  O3  UNL     1      10.686 -12.629  14.079  1.00  0.00    -0.266 OA
ATOM     18  H3  UNL     1      12.702 -14.849  12.957  1.00  0.00     0.163 HD
BRANCH  16  19
HETATM   19  C11 UNL     1      12.881 -12.672  14.818  1.00  0.00     0.084 C 
BRANCH  19  20
HETATM   20  N4  UNL     1      14.182 -12.698  14.244  1.00  0.00    -0.319 N 
HETATM   21  C12 UNL     1      15.064 -11.609  14.085  1.00  0.00     0.292 C 
HETATM   22  O4  UNL     1      14.706 -10.468  14.464  1.00  0.00    -0.264 OA
ATOM     23  H4  UNL     1      14.514 -13.604  13.912  1.00  0.00     0.169 HD
BRANCH  21  24
HETATM   24  C13 UNL     1      16.386 -11.727  13.496  1.00  0.00     0.225 C 
HETATM   25  O5  UNL     1      16.613 -11.118  12.425  1.00  0.00    -0.287 OA
BRANCH  24  26
HETATM   26  C14 UNL     1      17.422 -12.530  14.125  1.00  0.00     0.191 C 
BRANCH  26  27
HETATM   27  C15 UNL     1      16.943 -13.681  14.903  1.00  0.00     0.225 C 
HETATM   28  O6  UNL     1      16.610 -13.488  16.105  1.00  0.00    -0.273 OA
HETATM   29  N5  UNL     1      16.843 -14.985  14.363  1.00  0.00    -0.348 N 
ATOM     30  H5  UNL     1      17.102 -15.130  13.387  1.00  0.00     0.163 HD
BRANCH  29  31
HETATM   31  C16 UNL     1      16.383 -16.140  15.148  1.00  0.00     0.162 C 
BRANCH  31  32
HETATM   32  C17 UNL     1      14.953 -16.394  14.859  1.00  0.00     0.135 C 
BRANCH  32  33
HETATM   33  O7  UNL     1      14.449 -15.765  13.836  1.00  0.00    -0.348 OA
ATOM     34  H7  UNL     1      13.836 -16.255  13.300  1.00  0.00     0.219 HD
ENDBRANCH  32  33
BRANCH  32  35
HETATM   35  N6  UNL     1      14.055 -17.223  15.534  1.00  0.00    -0.369 N 
ATOM     36  H6  UNL     1      13.358 -17.751  15.008  1.00  0.00     0.161 HD
BRANCH  35  37
HETATM   37  C18 UNL     1      14.110 -17.340  17.002  1.00  0.00     0.148 C 
BRANCH  37  38
HETATM   38  C19 UNL     1      14.174 -18.775  17.389  1.00  0.00    -0.018 C 
HETATM   39  C20 UNL     1      15.256 -19.314  17.923  1.00  0.00     0.008 C 
ENDBRANCH  37  38
ENDBRANCH  35  37
ENDBRANCH  32  35
ENDBRANCH  31  32
BRANCH  31  40
HETATM   40  C21 UNL     1      17.311 -17.275  15.072  1.00  0.00     0.008 C 
HETATM   41  C22 UNL     1      16.770 -18.573  14.591  1.00  0.00     0.012 C 
HETATM   42  C23 UNL     1      18.095 -17.454  16.334  1.00  0.00     0.012 C 
ENDBRANCH  31  40
ENDBRANCH  29  31
ENDBRANCH  26  27
ENDBRANCH  24  26
ENDBRANCH  21  24
ENDBRANCH  19  20
BRANCH  19  43
HETATM   43  C24 UNL     1      12.740 -13.006  16.247  1.00  0.00     0.033 C 
HETATM   44  C25 UNL     1      12.140 -14.367  16.463  1.00  0.00     0.016 C 
HETATM   45  C26 UNL     1      12.062 -11.931  17.049  1.00  0.00     0.016 C 
ENDBRANCH  19  43
ENDBRANCH  16  19
ENDBRANCH  13  15
ENDBRANCH   9  13
ENDBRANCH   7   9
ENDBRANCH   4   5
ENDBRANCH   3   4
TORSDOF 19
ENDMDL
MODEL 3
REMARK VINA RESULT: -7.388447274      2.292      7.970
REMARK  19 active torsions:
REMARK  status: ('A' for Active; 'I' for Inactive)
REMARK    1  A    between atoms: C3_3  and  C4_4 
REMARK    2  A    between atoms: C4_4  and  C5_5 
REMARK       I    between atoms: C5_5  and  N1_7 
REMARK    3  A    between atoms: N1_7  and  C6_9 
REMARK    4  A    between atoms: C6_9  and  C7_10 
REMARK    5  A    between atoms: C6_9  and  C8_13 
REMARK    6  A    between atoms: C8_13  and  N3_15 
REMARK       I    between atoms: N3_15  and  C10_17 
REMARK    7  A    between atoms: C10_17  and  C11_19 
REMARK    8  A    between atoms: C11_19  and  N4_20 
REMARK    9  A    between atoms: C11_19  and  C24_43 
REMARK       I    between atoms: N4_20  and  C12_22 
REMARK   10  A    between atoms: C12_22  and  C13_24 
REMARK   11  A    between atoms: C13_24  and  C14_26 
REMARK   12  A    between atoms: C14_26  and  C15_27 
REMARK       I    between atoms: C15_27  and  N5_29 
REMARK   13  A    between atoms: N5_29  and  C16_31 
REMARK   14  A    between atoms: C16_31  and  C17_32 
REMARK   15  A    between atoms: C16_31  and  C21_40 
REMARK   16  A    between atoms: C17_32  and  O7_33 
REMARK   17  A    between atoms: C17_32  and  N6_35 
REMARK   18  A    between atoms: N6_35  and  C18_37 
REMARK   19  A    between atoms: C18_37  and  C19_38 
ROOT
HETATM    1  C1  UNL     1      16.648  -7.721  10.934  1.00  0.00     0.012 C 
HETATM    2  C2  UNL     1      17.088  -8.809  11.265  1.00  0.00    -0.117 C 
HETATM    3  C3  UNL     1      17.607 -10.102  11.663  1.00  0.00     0.102 C 
ENDROOT
BRANCH   3   4
HETATM    4  C4  UNL     1      17.408 -10.338  13.155  1.00  0.00     0.115 C 
BRANCH   4   5
HETATM    5  C5  UNL     1      16.658 -11.581  13.424  1.00  0.00     0.219 C 
HETATM    6  O1  UNL     1      16.985 -12.661  12.855  1.00  0.00    -0.274 OA
HETATM    7  N1  UNL     1      15.575 -11.579  14.313  1.00  0.00    -0.346 N 
ATOM      8  H1  UNL     1      15.337 -10.693  14.759  1.00  0.00     0.163 HD
BRANCH   7   9
HETATM    9  C6  UNL     1      14.765 -12.731  14.651  1.00  0.00     0.196 C 
BRANCH   9  10
HETATM   10  C7  UNL     1      13.347 -12.543  14.322  1.00  0.00     0.256 C 
HETATM   11  N2  UNL     1      12.530 -13.401  13.581  1.00  0.00    -0.060 NA
HETATM   12  O2  UNL     1      12.814 -11.466  14.767  1.00  0.00    -0.274 OA
ENDBRANCH   9  10
BRANCH   9  13
HETATM   13  C8  UNL     1      14.986 -13.087  16.098  1.00  0.00     0.112 C 
HETATM   14  C9  UNL     1      15.996 -14.245  16.153  1.00  0.00     0.034 C 
BRANCH  13  15
HETATM   15  N3  UNL     1      13.746 -13.462  16.790  1.00  0.00    -0.349 N 
HETATM   16  C10 UNL     1      13.216 -12.632  17.783  1.00  0.00     0.264 C 
HETATM   17  O3  UNL     1      13.901 -11.562  18.025  1.00  0.00    -0.266 OA
ATOM     18  H3  UNL     1      13.270 -14.331  16.546  1.00  0.00     0.163 HD
BRANCH  16  19
HETATM   19  C11 UNL     1      12.012 -12.772  18.601  1.00  0.00     0.084 C 
BRANCH  19  20
HETATM   20  N4  UNL     1      10.785 -12.600  17.902  1.00  0.00    -0.319 N 
HETATM   21  C12 UNL     1      10.292 -13.386  16.840  1.00  0.00     0.292 C 
HETATM   22  O4  UNL     1      10.978 -14.349  16.419  1.00  0.00    -0.264 OA
ATOM     23  H4  UNL     1      10.196 -11.822  18.202  1.00  0.00     0.169 HD
BRANCH  21  24
HETATM   24  C13 UNL     1       9.017 -13.145  16.188  1.00  0.00     0.225 C 
HETATM   25  O5  UNL     1       8.779 -11.990  15.765  1.00  0.00    -0.287 OA
BRANCH  24  26
HETATM   26  C14 UNL     1       8.039 -14.208  16.030  1.00  0.00     0.191 C 
BRANCH  26  27
HETATM   27  C15 UNL     1       7.984 -14.822  14.696  1.00  0.00     0.225 C 
HETATM   28  O6  UNL     1       8.379 -16.014  14.573  1.00  0.00    -0.273 OA
HETATM   29  N5  UNL     1       7.511 -14.134  13.553  1.00  0.00    -0.348 N 
ATOM     30  H5  UNL     1       7.181 -13.174  13.663  1.00  0.00     0.163 HD
BRANCH  29  31
HETATM   31  C16 UNL     1       7.476 -14.742  12.214  1.00  0.00     0.162 C 
BRANCH  31  32
HETATM   32  C17 UNL     1       6.068 -14.966  11.813  1.00  0.00     0.135 C 
BRANCH  32  33
HETATM   33  O7  UNL     1       5.190 -14.130  12.289  1.00  0.00    -0.348 OA
ATOM     34  H7  UNL     1       4.289 -14.431  12.310  1.00  0.00     0.219 HD
ENDBRANCH  32  33
BRANCH  32  35
HETATM   35  N6  UNL     1       5.540 -15.958  10.984  1.00  0.00    -0.369 N 
ATOM     36  H6  UNL     1       5.358 -15.754  10.001  1.00  0.00     0.161 HD
BRANCH  35  37
HETATM   37  C18 UNL     1       5.243 -17.297  11.522  1.00  0.00     0.148 C 
BRANCH  37  38
HETATM   38  C19 UNL     1       3.844 -17.673  11.188  1.00  0.00    -0.018 C 
HETATM   39  C20 UNL     1       2.816 -17.293  11.926  1.00  0.00     0.008 C 
ENDBRANCH  37  38
ENDBRANCH  35  37
ENDBRANCH  32  35
ENDBRANCH  31  32
BRANCH  31  40
HETATM   40  C21 UNL     1       8.360 -14.056  11.264  1.00  0.00     0.008 C 
HETATM   41  C22 UNL     1       7.778 -13.638   9.962  1.00  0.00     0.012 C 
HETATM   42  C23 UNL     1       9.653 -14.784  11.066  1.00  0.00     0.012 C 
ENDBRANCH  31  40
ENDBRANCH  29  31
ENDBRANCH  26  27
ENDBRANCH  24  26
ENDBRANCH  21  24
ENDBRANCH  19  20
BRANCH  19  43
HETATM   43  C24 UNL     1      12.142 -12.176  19.943  1.00  0.00     0.033 C 
HETATM   44  C25 UNL     1      11.873 -13.167  21.040  1.00  0.00     0.016 C 
HETATM   45  C26 UNL     1      11.374 -10.895  20.107  1.00  0.00     0.016 C 
ENDBRANCH  19  43
ENDBRANCH  16  19
ENDBRANCH  13  15
ENDBRANCH   9  13
ENDBRANCH   7   9
ENDBRANCH   4   5
ENDBRANCH   3   4
TORSDOF 19
ENDMDL
MODEL 4
REMARK VINA RESULT: -7.188266872      2.409      5.150
REMARK  19 active torsions:
REMARK  status: ('A' for Active; 'I' for Inactive)
REMARK    1  A    between atoms: C3_3  and  C4_4 
REMARK    2  A    between atoms: C4_4  and  C5_5 
REMARK       I    between atoms: C5_5  and  N1_7 
REMARK    3  A    between atoms: N1_7  and  C6_9 
REMARK    4  A    between atoms: C6_9  and  C7_10 
REMARK    5  A    between atoms: C6_9  and  C8_13 
REMARK    6  A    between atoms: C8_13  and  N3_15 
REMARK       I    between atoms: N3_15  and  C10_17 
REMARK    7  A    between atoms: C10_17  and  C11_19 
REMARK    8  A    between atoms: C11_19  and  N4_20 
REMARK    9  A    between atoms: C11_19  and  C24_43 
REMARK       I    between atoms: N4_20  and  C12_22 
REMARK   10  A    between atoms: C12_22  and  C13_24 
REMARK   11  A    between atoms: C13_24  and  C14_26 
REMARK   12  A    between atoms: C14_26  and  C15_27 
REMARK       I    between atoms: C15_27  and  N5_29 
REMARK   13  A    between atoms: N5_29  and  C16_31 
REMARK   14  A    between atoms: C16_31  and  C17_32 
REMARK   15  A    between atoms: C16_31  and  C21_40 
REMARK   16  A    between atoms: C17_32  and  O7_33 
REMARK   17  A    between atoms: C17_32  and  N6_35 
REMARK   18  A    between atoms: N6_35  and  C18_37 
REMARK   19  A    between atoms: C18_37  and  C19_38 
ROOT
HETATM    1  C1  UNL     1       8.030 -12.273  18.820  1.00  0.00     0.012 C 
HETATM    2  C2  UNL     1       7.875 -12.560  17.645  1.00  0.00    -0.117 C 
HETATM    3  C3  UNL     1       7.690 -12.908  16.251  1.00  0.00     0.102 C 
ENDROOT
BRANCH   3   4
HETATM    4  C4  UNL     1       8.013 -14.376  16.004  1.00  0.00     0.115 C 
BRANCH   4   5
HETATM    5  C5  UNL     1       8.105 -14.689  14.564  1.00  0.00     0.219 C 
HETATM    6  O1  UNL     1       7.149 -14.412  13.787  1.00  0.00    -0.274 OA
HETATM    7  N1  UNL     1       9.255 -15.296  14.042  1.00  0.00    -0.346 N 
ATOM      8  H1  UNL     1      10.012 -15.504  14.693  1.00  0.00     0.163 HD
BRANCH   7   9
HETATM    9  C6  UNL     1       9.458 -15.651  12.652  1.00  0.00     0.196 C 
BRANCH   9  10
HETATM   10  C7  UNL     1       9.037 -17.026  12.353  1.00  0.00     0.256 C 
HETATM   11  N2  UNL     1       8.390 -17.480  11.201  1.00  0.00    -0.060 NA
HETATM   12  O2  UNL     1       9.297 -17.893  13.260  1.00  0.00    -0.274 OA
ENDBRANCH   9  10
BRANCH   9  13
HETATM   13  C8  UNL     1      10.890 -15.384  12.273  1.00  0.00     0.112 C 
HETATM   14  C9  UNL     1      10.921 -14.982  10.789  1.00  0.00     0.034 C 
BRANCH  13  15
HETATM   15  N3  UNL     1      11.769 -16.538  12.505  1.00  0.00    -0.349 N 
HETATM   16  C10 UNL     1      12.523 -16.623  13.679  1.00  0.00     0.264 C 
HETATM   17  O3  UNL     1      12.385 -15.627  14.492  1.00  0.00    -0.266 OA
ATOM     18  H3  UNL     1      11.828 -17.280  11.807  1.00  0.00     0.163 HD
BRANCH  16  19
HETATM   19  C11 UNL     1      13.450 -17.654  14.144  1.00  0.00     0.084 C 
BRANCH  19  20
HETATM   20  N4  UNL     1      14.752 -17.188  14.478  1.00  0.00    -0.319 N 
HETATM   21  C12 UNL     1      15.311 -17.076  15.769  1.00  0.00     0.292 C 
HETATM   22  O4  UNL     1      14.623 -17.399  16.767  1.00  0.00    -0.264 OA
ATOM     23  H4  UNL     1      15.347 -16.904  13.699  1.00  0.00     0.169 HD
BRANCH  21  24
HETATM   24  C13 UNL     1      16.659 -16.599  16.019  1.00  0.00     0.225 C 
HETATM   25  O5  UNL     1      17.583 -17.443  16.081  1.00  0.00    -0.287 OA
BRANCH  24  26
HETATM   26  C14 UNL     1      16.938 -15.183  16.195  1.00  0.00     0.191 C 
BRANCH  26  27
HETATM   27  C15 UNL     1      16.433 -14.304  15.132  1.00  0.00     0.225 C 
HETATM   28  O6  UNL     1      16.583 -14.672  13.934  1.00  0.00    -0.273 OA
HETATM   29  N5  UNL     1      15.792 -13.070  15.395  1.00  0.00    -0.348 N 
ATOM     30  H5  UNL     1      15.662 -12.785  16.366  1.00  0.00     0.163 HD
BRANCH  29  31
HETATM   31  C16 UNL     1      15.305 -12.181  14.330  1.00  0.00     0.162 C 
BRANCH  31  32
HETATM   32  C17 UNL     1      13.824 -12.189  14.320  1.00  0.00     0.135 C 
BRANCH  32  33
HETATM   33  O7  UNL     1      13.255 -13.055  13.533  1.00  0.00    -0.348 OA
ATOM     34  H7  UNL     1      12.603 -13.622  13.929  1.00  0.00     0.219 HD
ENDBRANCH  32  33
BRANCH  32  35
HETATM   35  N6  UNL     1      12.938 -11.390  15.047  1.00  0.00    -0.369 N 
ATOM     36  H6  UNL     1      12.520 -10.569  14.610  1.00  0.00     0.161 HD
BRANCH  35  37
HETATM   37  C18 UNL     1      12.606 -11.728  16.443  1.00  0.00     0.148 C 
BRANCH  37  38
HETATM   38  C19 UNL     1      11.435 -12.644  16.471  1.00  0.00    -0.018 C 
HETATM   39  C20 UNL     1      11.374 -13.687  17.279  1.00  0.00     0.008 C 
ENDBRANCH  37  38
ENDBRANCH  35  37
ENDBRANCH  32  35
ENDBRANCH  31  32
BRANCH  31  40
HETATM   40  C21 UNL     1      15.985 -10.880  14.331  1.00  0.00     0.008 C 
HETATM   41  C22 UNL     1      15.334  -9.764  13.597  1.00  0.00     0.012 C 
HETATM   42  C23 UNL     1      17.431 -10.995  13.963  1.00  0.00     0.012 C 
ENDBRANCH  31  40
ENDBRANCH  29  31
ENDBRANCH  26  27
ENDBRANCH  24  26
ENDBRANCH  21  24
ENDBRANCH  19  20
BRANCH  19  43
HETATM   43  C24 UNL     1      13.330 -18.926  13.409  1.00  0.00     0.033 C 
HETATM   44  C25 UNL     1      13.250 -20.114  14.326  1.00  0.00     0.016 C 
HETATM   45  C26 UNL     1      14.355 -19.090  12.323  1.00  0.00     0.016 C 
ENDBRANCH  19  43
ENDBRANCH  16  19
ENDBRANCH  13  15
ENDBRANCH   9  13
ENDBRANCH   7   9
ENDBRANCH   4   5
ENDBRANCH   3   4
TORSDOF 19
ENDMDL
MODEL 5
REMARK VINA RESULT: -7.085231414      1.831      7.440
REMARK  19 active torsions:
REMARK  status: ('A' for Active; 'I' for Inactive)
REMARK    1  A    between atoms: C3_3  and  C4_4 
REMARK    2  A    between atoms: C4_4  and  C5_5 
REMARK       I    between atoms: C5_5  and  N1_7 
REMARK    3  A    between atoms: N1_7  and  C6_9 
REMARK    4  A    between atoms: C6_9  and  C7_10 
REMARK    5  A    between atoms: C6_9  and  C8_13 
REMARK    6  A    between atoms: C8_13  and  N3_15 
REMARK       I    between atoms: N3_15  and  C10_17 
REMARK    7  A    between atoms: C10_17  and  C11_19 
REMARK    8  A    between atoms: C11_19  and  N4_20 
REMARK    9  A    between atoms: C11_19  and  C24_43 
REMARK       I    between atoms: N4_20  and  C12_22 
REMARK   10  A    between atoms: C12_22  and  C13_24 
REMARK   11  A    between atoms: C13_24  and  C14_26 
REMARK   12  A    between atoms: C14_26  and  C15_27 
REMARK       I    between atoms: C15_27  and  N5_29 
REMARK   13  A    between atoms: N5_29  and  C16_31 
REMARK   14  A    between atoms: C16_31  and  C17_32 
REMARK   15  A    between atoms: C16_31  and  C21_40 
REMARK   16  A    between atoms: C17_32  and  O7_33 
REMARK   17  A    between atoms: C17_32  and  N6_35 
REMARK   18  A    between atoms: N6_35  and  C18_37 
REMARK   19  A    between atoms: C18_37  and  C19_38 
ROOT
HETATM    1  C1  UNL     1      16.688  -7.864  10.885  1.00  0.00     0.012 C 
HETATM    2  C2  UNL     1      17.133  -8.896  11.360  1.00  0.00    -0.117 C 
HETATM    3  C3  UNL     1      17.657 -10.121  11.928  1.00  0.00     0.102 C 
ENDROOT
BRANCH   3   4
HETATM    4  C4  UNL     1      17.167 -10.316  13.358  1.00  0.00     0.115 C 
BRANCH   4   5
HETATM    5  C5  UNL     1      16.999 -11.744  13.696  1.00  0.00     0.219 C 
HETATM    6  O1  UNL     1      17.826 -12.601  13.277  1.00  0.00    -0.274 OA
HETATM    7  N1  UNL     1      15.920 -12.164  14.486  1.00  0.00    -0.346 N 
ATOM      8  H1  UNL     1      15.271 -11.448  14.812  1.00  0.00     0.163 HD
BRANCH   7   9
HETATM    9  C6  UNL     1      15.652 -13.532  14.878  1.00  0.00     0.196 C 
BRANCH   9  10
HETATM   10  C7  UNL     1      14.297 -13.969  14.517  1.00  0.00     0.256 C 
HETATM   11  N2  UNL     1      13.826 -15.281  14.433  1.00  0.00    -0.060 NA
HETATM   12  O2  UNL     1      13.466 -13.030  14.251  1.00  0.00    -0.274 OA
ENDBRANCH   9  10
BRANCH   9  13
HETATM   13  C8  UNL     1      15.947 -13.697  16.345  1.00  0.00     0.112 C 
HETATM   14  C9  UNL     1      16.755 -14.993  16.525  1.00  0.00     0.034 C 
BRANCH  13  15
HETATM   15  N3  UNL     1      14.733 -13.738  17.172  1.00  0.00    -0.349 N 
HETATM   16  C10 UNL     1      14.256 -12.572  17.779  1.00  0.00     0.264 C 
HETATM   17  O3  UNL     1      14.963 -11.512  17.559  1.00  0.00    -0.266 OA
ATOM     18  H3  UNL     1      14.237 -14.620  17.303  1.00  0.00     0.163 HD
BRANCH  16  19
HETATM   19  C11 UNL     1      13.086 -12.349  18.628  1.00  0.00     0.084 C 
BRANCH  19  20
HETATM   20  N4  UNL     1      11.869 -12.118  17.928  1.00  0.00    -0.319 N 
HETATM   21  C12 UNL     1      11.185 -13.022  17.089  1.00  0.00     0.292 C 
HETATM   22  O4  UNL     1      11.665 -14.165  16.896  1.00  0.00    -0.264 OA
ATOM     23  H4  UNL     1      11.444 -11.198  18.047  1.00  0.00     0.169 HD
BRANCH  21  24
HETATM   24  C13 UNL     1       9.935 -12.706  16.421  1.00  0.00     0.225 C 
HETATM   25  O5  UNL     1       9.893 -11.680  15.703  1.00  0.00    -0.287 OA
BRANCH  24  26
HETATM   26  C14 UNL     1       8.762 -13.550  16.577  1.00  0.00     0.191 C 
BRANCH  26  27
HETATM   27  C15 UNL     1       8.587 -14.584  15.547  1.00  0.00     0.225 C 
HETATM   28  O6  UNL     1       7.581 -15.341  15.630  1.00  0.00    -0.273 OA
HETATM   29  N5  UNL     1       9.494 -14.762  14.477  1.00  0.00    -0.348 N 
ATOM     30  H5  UNL     1      10.298 -14.137  14.408  1.00  0.00     0.163 HD
BRANCH  29  31
HETATM   31  C16 UNL     1       9.330 -15.809  13.457  1.00  0.00     0.162 C 
BRANCH  31  32
HETATM   32  C17 UNL     1       9.108 -15.180  12.135  1.00  0.00     0.135 C 
BRANCH  32  33
HETATM   33  O7  UNL     1       9.806 -14.111  11.879  1.00  0.00    -0.348 OA
ATOM     34  H7  UNL     1       9.393 -13.279  12.078  1.00  0.00     0.219 HD
ENDBRANCH  32  33
BRANCH  32  35
HETATM   35  N6  UNL     1       8.248 -15.575  11.108  1.00  0.00    -0.369 N 
ATOM     36  H6  UNL     1       8.461 -16.408  10.560  1.00  0.00     0.161 HD
BRANCH  35  37
HETATM   37  C18 UNL     1       7.033 -14.794  10.814  1.00  0.00     0.148 C 
BRANCH  37  38
HETATM   38  C19 UNL     1       7.181 -14.115   9.499  1.00  0.00    -0.018 C 
HETATM   39  C20 UNL     1       7.892 -13.011   9.351  1.00  0.00     0.008 C 
ENDBRANCH  37  38
ENDBRANCH  35  37
ENDBRANCH  32  35
ENDBRANCH  31  32
BRANCH  31  40
HETATM   40  C21 UNL     1      10.356 -16.855  13.557  1.00  0.00     0.008 C 
HETATM   41  C22 UNL     1      11.268 -17.035  12.398  1.00  0.00     0.012 C 
HETATM   42  C23 UNL     1       9.788 -18.166  14.003  1.00  0.00     0.012 C 
ENDBRANCH  31  40
ENDBRANCH  29  31
ENDBRANCH  26  27
ENDBRANCH  24  26
ENDBRANCH  21  24
ENDBRANCH  19  20
BRANCH  19  43
HETATM   43  C24 UNL     1      13.374 -11.530  19.820  1.00  0.00     0.033 C 
HETATM   44  C25 UNL     1      13.574 -12.364  21.054  1.00  0.00     0.016 C 
HETATM   45  C26 UNL     1      12.401 -10.404  20.022  1.00  0.00     0.016 C 
ENDBRANCH  19  43
ENDBRANCH  16  19
ENDBRANCH  13  15
ENDBRANCH   9  13
ENDBRANCH   7   9
ENDBRANCH   4   5
ENDBRANCH   3   4
TORSDOF 19
ENDMDL
