MODEL 1
REMARK VINA RESULT: -7.611005387      0.000      0.000
REMARK  6 active torsions:
REMARK  status: ('A' for Active; 'I' for Inactive)
REMARK    1  A    between atoms: C2_2  and  C3_3 
REMARK    2  A    between atoms: C3_3  and  C4_4 
REMARK    3  A    between atoms: C4_4  and  C5_5 
REMARK    4  A    between atoms: C5_5  and  C6_6 
REMARK    5  A    between atoms: N1_8  and  N2_10 
REMARK       I    between atoms: N2_10  and  C8_12 
REMARK       I    between atoms: N4_14  and  C9_16 
REMARK    6  A    between atoms: C9_16  and  C10_18 
ROOT
HETATM    1  N2  UNL     1      -9.320  24.812   3.832  1.00  0.00    -0.274 N 
ATOM      2  H2  UNL     1      -9.623  25.751   4.092  1.00  0.00     0.189 HD
HETATM    3  C8  UNL     1      -8.512  24.058   4.703  1.00  0.00     0.209 C 
HETATM    4  N3  UNL     1      -9.123  23.311   5.747  1.00  0.00    -0.062 NA
HETATM    5  N4  UNL     1      -7.230  24.044   4.558  1.00  0.00    -0.300 N 
ATOM      6  H4  UNL     1      -6.824  24.591   3.799  1.00  0.00     0.171 HD
HETATM    7  C9  UNL     1      -6.360  23.315   5.391  1.00  0.00     0.230 C 
HETATM    8  O1  UNL     1      -5.820  22.278   4.964  1.00  0.00    -0.273 OA
ENDROOT
BRANCH   7   9
HETATM    9  C10 UNL     1      -6.091  23.780   6.763  1.00  0.00     0.101 C 
HETATM   10  C11 UNL     1      -5.119  22.939   7.457  1.00  0.00     0.020 C 
HETATM   11  C12 UNL     1      -4.174  23.607   8.392  1.00  0.00    -0.011 C 
HETATM   12  C13 UNL     1      -4.815  24.486   9.408  1.00  0.00     0.009 C 
HETATM   13  C17 UNL     1      -3.030  24.294   7.651  1.00  0.00     0.029 C 
HETATM   14  C14 UNL     1      -5.029  25.898   8.990  1.00  0.00    -0.010 C 
HETATM   15  C15 UNL     1      -3.797  26.508   8.370  1.00  0.00     0.029 C 
HETATM   16  C19 UNL     1      -6.131  25.971   7.964  1.00  0.00     0.030 C 
HETATM   17  C16 UNL     1      -3.435  25.660   7.174  1.00  0.00     0.077 C 
HETATM   18  N5  UNL     1      -4.461  25.541   6.202  1.00  0.00    -0.412 N 
HETATM   19  C18 UNL     1      -5.768  25.251   6.692  1.00  0.00     0.090 C 
ATOM     20  H5  UNL     1      -4.274  25.657   5.207  1.00  0.00     0.154 HD
ENDBRANCH   7   9
BRANCH   1  21
HETATM   21  N1  UNL     1      -9.702  24.262   2.614  1.00  0.00    -0.307 N 
HETATM   22  C6  UNL     1      -9.184  24.667   1.458  1.00  0.00    -0.000 C 
HETATM   23  C7  UNL     1      -8.187  25.731   1.586  1.00  0.00     0.065 C 
ATOM     24  H1  UNL     1     -10.403  23.522   2.606  1.00  0.00     0.186 HD
BRANCH  22  25
HETATM   25  C5  UNL     1      -9.684  23.994   0.250  1.00  0.00     0.053 C 
BRANCH  25  26
HETATM   26  C4  UNL     1      -8.940  24.248  -1.006  1.00  0.00     0.006 C 
BRANCH  26  27
HETATM   27  C3  UNL     1      -8.110  23.185  -1.594  1.00  0.00     0.000 C 
BRANCH  27  28
HETATM   28  C2  UNL     1      -8.216  22.921  -3.046  1.00  0.00    -0.005 C 
HETATM   29  C1  UNL     1      -8.908  23.858  -3.936  1.00  0.00     0.005 C 
ENDBRANCH  27  28
ENDBRANCH  26  27
ENDBRANCH  25  26
ENDBRANCH  22  25
ENDBRANCH   1  21
TORSDOF 6
ENDMDL
MODEL 2
REMARK VINA RESULT: -7.340782938      5.546      8.347
REMARK  6 active torsions:
REMARK  status: ('A' for Active; 'I' for Inactive)
REMARK    1  A    between atoms: C2_2  and  C3_3 
REMARK    2  A    between atoms: C3_3  and  C4_4 
REMARK    3  A    between atoms: C4_4  and  C5_5 
REMARK    4  A    between atoms: C5_5  and  C6_6 
REMARK    5  A    between atoms: N1_8  and  N2_10 
REMARK       I    between atoms: N2_10  and  C8_12 
REMARK       I    between atoms: N4_14  and  C9_16 
REMARK    6  A    between atoms: C9_16  and  C10_18 
ROOT
HETATM    1  N2  UNL     1      -4.087  26.832   8.896  1.00  0.00    -0.274 N 
ATOM      2  H2  UNL     1      -3.667  26.121   9.495  1.00  0.00     0.189 HD
HETATM    3  C8  UNL     1      -4.123  28.177   9.307  1.00  0.00     0.209 C 
HETATM    4  N3  UNL     1      -2.988  29.003   9.083  1.00  0.00    -0.062 NA
HETATM    5  N4  UNL     1      -5.173  28.657   9.882  1.00  0.00    -0.300 N 
ATOM      6  H4  UNL     1      -5.970  28.037  10.027  1.00  0.00     0.171 HD
HETATM    7  C9  UNL     1      -5.280  29.991  10.319  1.00  0.00     0.230 C 
HETATM    8  O1  UNL     1      -5.991  30.795   9.687  1.00  0.00    -0.273 OA
ENDROOT
BRANCH   7   9
HETATM    9  C10 UNL     1      -4.553  30.432  11.523  1.00  0.00     0.101 C 
HETATM   10  C11 UNL     1      -4.256  31.862  11.502  1.00  0.00     0.020 C 
HETATM   11  C12 UNL     1      -4.300  32.594  12.797  1.00  0.00    -0.011 C 
HETATM   12  C13 UNL     1      -3.496  31.982  13.890  1.00  0.00     0.009 C 
HETATM   13  C17 UNL     1      -5.732  32.912  13.222  1.00  0.00     0.029 C 
HETATM   14  C14 UNL     1      -4.201  30.962  14.712  1.00  0.00    -0.010 C 
HETATM   15  C15 UNL     1      -5.561  31.430  15.166  1.00  0.00     0.029 C 
HETATM   16  C19 UNL     1      -4.405  29.703  13.908  1.00  0.00     0.030 C 
HETATM   17  C16 UNL     1      -6.362  31.743  13.924  1.00  0.00     0.077 C 
HETATM   18  N5  UNL     1      -6.497  30.659  13.020  1.00  0.00    -0.412 N 
HETATM   19  C18 UNL     1      -5.310  29.927  12.725  1.00  0.00     0.090 C 
ATOM     20  H5  UNL     1      -7.395  30.415  12.604  1.00  0.00     0.154 HD
ENDBRANCH   7   9
BRANCH   1  21
HETATM   21  N1  UNL     1      -4.630  26.483   7.665  1.00  0.00    -0.307 N 
HETATM   22  C6  UNL     1      -5.090  25.263   7.411  1.00  0.00    -0.000 C 
HETATM   23  C7  UNL     1      -4.975  24.331   8.535  1.00  0.00     0.065 C 
ATOM     24  H1  UNL     1      -4.676  27.189   6.931  1.00  0.00     0.186 HD
BRANCH  22  25
HETATM   25  C5  UNL     1      -5.635  25.040   6.064  1.00  0.00     0.053 C 
BRANCH  25  26
HETATM   26  C4  UNL     1      -6.294  23.734   5.823  1.00  0.00     0.006 C 
BRANCH  26  27
HETATM   27  C3  UNL     1      -7.754  23.668   5.656  1.00  0.00     0.000 C 
BRANCH  27  28
HETATM   28  C2  UNL     1      -8.307  22.852   4.554  1.00  0.00    -0.005 C 
HETATM   29  C1  UNL     1      -9.725  22.479   4.527  1.00  0.00     0.005 C 
ENDBRANCH  27  28
ENDBRANCH  26  27
ENDBRANCH  25  26
ENDBRANCH  22  25
ENDBRANCH   1  21
TORSDOF 6
ENDMDL
MODEL 3
REMARK VINA RESULT: -7.154025895      5.189      8.063
REMARK  6 active torsions:
REMARK  status: ('A' for Active; 'I' for Inactive)
REMARK    1  A    between atoms: C2_2  and  C3_3 
REMARK    2  A    between atoms: C3_3  and  C4_4 
REMARK    3  A    between atoms: C4_4  and  C5_5 
REMARK    4  A    between atoms: C5_5  and  C6_6 
REMARK    5  A    between atoms: N1_8  and  N2_10 
REMARK       I    between atoms: N2_10  and  C8_12 
REMARK       I    between atoms: N4_14  and  C9_16 
REMARK    6  A    between atoms: C9_16  and  C10_18 
ROOT
HETATM    1  N2  UNL     1      -3.962  26.995   7.802  1.00  0.00    -0.274 N 
ATOM      2  H2  UNL     1      -2.987  26.700   7.858  1.00  0.00     0.189 HD
HETATM    3  C8  UNL     1      -4.366  28.227   8.347  1.00  0.00     0.209 C 
HETATM    4  N3  UNL     1      -4.214  29.412   7.576  1.00  0.00    -0.062 NA
HETATM    5  N4  UNL     1      -4.867  28.285   9.534  1.00  0.00    -0.300 N 
ATOM      6  H4  UNL     1      -4.962  27.416  10.060  1.00  0.00     0.171 HD
HETATM    7  C9  UNL     1      -5.291  29.481  10.144  1.00  0.00     0.230 C 
HETATM    8  O1  UNL     1      -6.507  29.716  10.266  1.00  0.00    -0.273 OA
ENDROOT
BRANCH   7   9
HETATM    9  C10 UNL     1      -4.295  30.451  10.635  1.00  0.00     0.101 C 
HETATM   10  C11 UNL     1      -4.694  31.833  10.386  1.00  0.00     0.020 C 
HETATM   11  C12 UNL     1      -4.333  32.850  11.410  1.00  0.00    -0.011 C 
HETATM   12  C13 UNL     1      -2.897  32.859  11.804  1.00  0.00     0.009 C 
HETATM   13  C17 UNL     1      -5.276  32.809  12.610  1.00  0.00     0.029 C 
HETATM   14  C14 UNL     1      -2.533  31.946  12.922  1.00  0.00    -0.010 C 
HETATM   15  C15 UNL     1      -3.472  32.071  14.096  1.00  0.00     0.029 C 
HETATM   16  C19 UNL     1      -2.586  30.513  12.456  1.00  0.00     0.030 C 
HETATM   17  C16 UNL     1      -4.859  31.751  13.593  1.00  0.00     0.077 C 
HETATM   18  N5  UNL     1      -4.990  30.470  12.999  1.00  0.00    -0.412 N 
HETATM   19  C18 UNL     1      -3.980  30.096  12.066  1.00  0.00     0.090 C 
ATOM     20  H5  UNL     1      -5.766  29.849  13.228  1.00  0.00     0.154 HD
ENDBRANCH   7   9
BRANCH   1  21
HETATM   21  N1  UNL     1      -4.908  26.183   7.185  1.00  0.00    -0.307 N 
HETATM   22  C6  UNL     1      -5.254  24.997   7.675  1.00  0.00    -0.000 C 
HETATM   23  C7  UNL     1      -4.558  24.630   8.909  1.00  0.00     0.065 C 
ATOM     24  H1  UNL     1      -5.351  26.510   6.327  1.00  0.00     0.186 HD
BRANCH  22  25
HETATM   25  C5  UNL     1      -6.267  24.250   6.914  1.00  0.00     0.053 C 
BRANCH  25  26
HETATM   26  C4  UNL     1      -6.551  24.728   5.541  1.00  0.00     0.006 C 
BRANCH  26  27
HETATM   27  C3  UNL     1      -7.726  24.220   4.815  1.00  0.00     0.000 C 
BRANCH  27  28
HETATM   28  C2  UNL     1      -8.227  22.866   5.134  1.00  0.00    -0.005 C 
HETATM   29  C1  UNL     1      -9.555  22.428   4.693  1.00  0.00     0.005 C 
ENDBRANCH  27  28
ENDBRANCH  26  27
ENDBRANCH  25  26
ENDBRANCH  22  25
ENDBRANCH   1  21
TORSDOF 6
ENDMDL
MODEL 4
REMARK VINA RESULT: -7.090574514      5.221      7.876
REMARK  6 active torsions:
REMARK  status: ('A' for Active; 'I' for Inactive)
REMARK    1  A    between atoms: C2_2  and  C3_3 
REMARK    2  A    between atoms: C3_3  and  C4_4 
REMARK    3  A    between atoms: C4_4  and  C5_5 
REMARK    4  A    between atoms: C5_5  and  C6_6 
REMARK    5  A    between atoms: N1_8  and  N2_10 
REMARK       I    between atoms: N2_10  and  C8_12 
REMARK       I    between atoms: N4_14  and  C9_16 
REMARK    6  A    between atoms: C9_16  and  C10_18 
ROOT
HETATM    1  N2  UNL     1      -4.055  27.194   7.644  1.00  0.00    -0.274 N 
ATOM      2  H2  UNL     1      -3.094  26.856   7.700  1.00  0.00     0.189 HD
HETATM    3  C8  UNL     1      -4.417  28.414   8.243  1.00  0.00     0.209 C 
HETATM    4  N3  UNL     1      -4.204  29.627   7.532  1.00  0.00    -0.062 NA
HETATM    5  N4  UNL     1      -4.934  28.435   9.424  1.00  0.00    -0.300 N 
ATOM      6  H4  UNL     1      -5.073  27.547   9.906  1.00  0.00     0.171 HD
HETATM    7  C9  UNL     1      -5.319  29.618  10.085  1.00  0.00     0.230 C 
HETATM    8  O1  UNL     1      -6.526  29.897  10.202  1.00  0.00    -0.273 OA
ENDROOT
BRANCH   7   9
HETATM    9  C10 UNL     1      -4.292  30.520  10.637  1.00  0.00     0.101 C 
HETATM   10  C11 UNL     1      -4.624  31.929  10.439  1.00  0.00     0.020 C 
HETATM   11  C12 UNL     1      -4.241  32.884  11.514  1.00  0.00    -0.011 C 
HETATM   12  C13 UNL     1      -2.815  32.812  11.936  1.00  0.00     0.009 C 
HETATM   13  C17 UNL     1      -5.210  32.835  12.692  1.00  0.00     0.029 C 
HETATM   14  C14 UNL     1      -2.515  31.838  13.020  1.00  0.00    -0.010 C 
HETATM   15  C15 UNL     1      -3.472  31.956  14.179  1.00  0.00     0.029 C 
HETATM   16  C19 UNL     1      -2.621  30.430  12.492  1.00  0.00     0.030 C 
HETATM   17  C16 UNL     1      -4.861  31.719  13.636  1.00  0.00     0.077 C 
HETATM   18  N5  UNL     1      -5.036  30.471  12.986  1.00  0.00    -0.412 N 
HETATM   19  C18 UNL     1      -4.023  30.092  12.057  1.00  0.00     0.090 C 
ATOM     20  H5  UNL     1      -5.843  29.877  13.172  1.00  0.00     0.154 HD
ENDBRANCH   7   9
BRANCH   1  21
HETATM   21  N1  UNL     1      -5.023  26.453   6.975  1.00  0.00    -0.307 N 
HETATM   22  C6  UNL     1      -5.348  25.217   7.338  1.00  0.00    -0.000 C 
HETATM   23  C7  UNL     1      -4.603  24.714   8.494  1.00  0.00     0.065 C 
ATOM     24  H1  UNL     1      -5.500  26.873   6.178  1.00  0.00     0.186 HD
BRANCH  22  25
HETATM   25  C5  UNL     1      -6.389  24.556   6.537  1.00  0.00     0.053 C 
BRANCH  25  26
HETATM   26  C4  UNL     1      -6.527  25.003   5.131  1.00  0.00     0.006 C 
BRANCH  26  27
HETATM   27  C3  UNL     1      -7.780  24.753   4.401  1.00  0.00     0.000 C 
BRANCH  27  28
HETATM   28  C2  UNL     1      -8.231  25.746   3.402  1.00  0.00    -0.005 C 
HETATM   29  C1  UNL     1      -8.450  25.366   2.004  1.00  0.00     0.005 C 
ENDBRANCH  27  28
ENDBRANCH  26  27
ENDBRANCH  25  26
ENDBRANCH  22  25
ENDBRANCH   1  21
TORSDOF 6
ENDMDL
MODEL 5
REMARK VINA RESULT: -6.992338063      3.853      6.423
REMARK  6 active torsions:
REMARK  status: ('A' for Active; 'I' for Inactive)
REMARK    1  A    between atoms: C2_2  and  C3_3 
REMARK    2  A    between atoms: C3_3  and  C4_4 
REMARK    3  A    between atoms: C4_4  and  C5_5 
REMARK    4  A    between atoms: C5_5  and  C6_6 
REMARK    5  A    between atoms: N1_8  and  N2_10 
REMARK       I    between atoms: N2_10  and  C8_12 
REMARK       I    between atoms: N4_14  and  C9_16 
REMARK    6  A    between atoms: C9_16  and  C10_18 
ROOT
HETATM    1  N2  UNL     1      -5.597  25.084   8.077  1.00  0.00    -0.274 N 
ATOM      2  H2  UNL     1      -5.774  24.531   8.916  1.00  0.00     0.189 HD
HETATM    3  C8  UNL     1      -4.757  26.211   8.131  1.00  0.00     0.209 C 
HETATM    4  N3  UNL     1      -3.350  26.036   8.022  1.00  0.00    -0.062 NA
HETATM    5  N4  UNL     1      -5.255  27.391   8.281  1.00  0.00    -0.300 N 
ATOM      6  H4  UNL     1      -6.268  27.481   8.356  1.00  0.00     0.171 HD
HETATM    7  C9  UNL     1      -4.477  28.563   8.344  1.00  0.00     0.230 C 
HETATM    8  O1  UNL     1      -4.456  29.345   7.377  1.00  0.00    -0.273 OA
ENDROOT
BRANCH   7   9
HETATM    9  C10 UNL     1      -3.690  28.860   9.555  1.00  0.00     0.101 C 
HETATM   10  C11 UNL     1      -3.045  30.169   9.494  1.00  0.00     0.020 C 
HETATM   11  C12 UNL     1      -2.936  30.943  10.759  1.00  0.00    -0.011 C 
HETATM   12  C13 UNL     1      -2.335  30.198  11.899  1.00  0.00     0.009 C 
HETATM   13  C17 UNL     1      -4.252  31.625  11.125  1.00  0.00     0.029 C 
HETATM   14  C14 UNL     1      -3.292  29.421  12.734  1.00  0.00    -0.010 C 
HETATM   15  C15 UNL     1      -4.502  30.231  13.125  1.00  0.00     0.029 C 
HETATM   16  C19 UNL     1      -3.785  28.219  11.968  1.00  0.00     0.030 C 
HETATM   17  C16 UNL     1      -5.170  30.680  11.848  1.00  0.00     0.077 C 
HETATM   18  N5  UNL     1      -5.551  29.626  10.979  1.00  0.00    -0.412 N 
HETATM   19  C18 UNL     1      -4.577  28.610  10.749  1.00  0.00     0.090 C 
ATOM     20  H5  UNL     1      -6.471  29.596  10.542  1.00  0.00     0.154 HD
ENDBRANCH   7   9
BRANCH   1  21
HETATM   21  N1  UNL     1      -6.182  24.731   6.866  1.00  0.00    -0.307 N 
HETATM   22  C6  UNL     1      -6.029  23.526   6.327  1.00  0.00    -0.000 C 
HETATM   23  C7  UNL     1      -5.197  22.616   7.116  1.00  0.00     0.065 C 
ATOM     24  H1  UNL     1      -6.750  25.422   6.376  1.00  0.00     0.186 HD
BRANCH  22  25
HETATM   25  C5  UNL     1      -6.707  23.297   5.043  1.00  0.00     0.053 C 
BRANCH  25  26
HETATM   26  C4  UNL     1      -8.163  23.569   5.004  1.00  0.00     0.006 C 
BRANCH  26  27
HETATM   27  C3  UNL     1      -9.101  22.494   4.643  1.00  0.00     0.000 C 
BRANCH  27  28
HETATM   28  C2  UNL     1     -10.064  22.730   3.545  1.00  0.00    -0.005 C 
HETATM   29  C1  UNL     1      -9.602  22.993   2.179  1.00  0.00     0.005 C 
ENDBRANCH  27  28
ENDBRANCH  26  27
ENDBRANCH  25  26
ENDBRANCH  22  25
ENDBRANCH   1  21
TORSDOF 6
ENDMDL
