MODEL 1
REMARK VINA RESULT: -6.587980090      0.000      0.000
REMARK  11 active torsions:
REMARK  status: ('A' for Active; 'I' for Inactive)
REMARK    1  A    between atoms: C2_2  and  C3_3 
REMARK    2  A    between atoms: C3_3  and  C4_4 
REMARK    3  A    between atoms: C4_4  and  C5_5 
REMARK    4  A    between atoms: C5_5  and  N1_6 
REMARK       I    between atoms: N1_6  and  C6_8 
REMARK    5  A    between atoms: C6_8  and  C7_10 
REMARK    6  A    between atoms: C7_10  and  C8_11 
REMARK    7  A    between atoms: C8_11  and  C9_12 
REMARK    8  A    between atoms: C16_26  and  O4_27 
REMARK    9  A    between atoms: C17_29  and  C18_30 
REMARK   10  A    between atoms: C18_30  and  C19_31 
REMARK   11  A    between atoms: C19_31  and  O5_33 
ROOT
HETATM    1  C7  UNL     1      10.339  41.087  31.860  1.00  0.00     0.142 C 
HETATM    2  N2  UNL     1       8.999  40.969  32.248  1.00  0.00    -0.333 N 
ATOM      3  H2  UNL     1       8.493  40.224  31.767  1.00  0.00     0.164 HD
HETATM    4  C11 UNL     1       8.216  41.685  33.179  1.00  0.00     0.291 C 
HETATM    5  O2  UNL     1       7.662  41.059  34.163  1.00  0.00    -0.264 OA
HETATM    6  C12 UNL     1       7.928  43.101  33.182  1.00  0.00     0.252 C 
HETATM    7  O3  UNL     1       7.815  43.722  34.297  1.00  0.00    -0.284 OA
HETATM    8  C13 UNL     1       7.749  43.923  31.971  1.00  0.00     0.271 C 
HETATM    9  F1  UNL     1       7.473  43.250  30.839  1.00  0.00    -0.239 F 
HETATM   10  C14 UNL     1       8.800  44.936  31.755  1.00  0.00     0.121 C 
HETATM   11  C15 UNL     1       8.837  45.937  32.941  1.00  0.00     0.035 C 
HETATM   12  N3  UNL     1      10.095  44.558  31.305  1.00  0.00    -0.363 N 
ATOM     13  H3  UNL     1      10.607  45.374  30.970  1.00  0.00     0.162 HD
HETATM   14  C16 UNL     1      10.872  43.420  31.185  1.00  0.00     0.141 C 
HETATM   15  C17 UNL     1      11.216  42.257  32.029  1.00  0.00     0.010 C 
ENDROOT
BRANCH   1  16
HETATM   16  C6  UNL     1      11.116  39.858  32.292  1.00  0.00     0.250 C 
HETATM   17  N1  UNL     1      12.095  39.377  31.349  1.00  0.00    -0.359 N 
ATOM     18  H1  UNL     1      12.241  39.845  30.454  1.00  0.00     0.162 HD
HETATM   19  O1  UNL     1      10.937  39.317  33.370  1.00  0.00    -0.270 OA
BRANCH  17  20
HETATM   20  C5  UNL     1      12.866  38.200  31.719  1.00  0.00     0.122 C 
BRANCH  20  21
HETATM   21  C4  UNL     1      13.644  37.648  30.550  1.00  0.00     0.020 C 
BRANCH  21  22
HETATM   22  C3  UNL     1      12.844  37.821  29.282  1.00  0.00     0.001 C 
BRANCH  22  23
HETATM   23  C2  UNL     1      13.701  37.780  28.052  1.00  0.00    -0.004 C 
HETATM   24  C1  UNL     1      15.123  37.368  28.405  1.00  0.00     0.005 C 
ENDBRANCH  22  23
ENDBRANCH  21  22
ENDBRANCH  20  21
ENDBRANCH  17  20
ENDBRANCH   1  16
BRANCH   1  25
HETATM   25  C8  UNL     1      10.277  40.904  30.292  1.00  0.00     0.046 C 
BRANCH  25  26
HETATM   26  C9  UNL     1       9.001  40.413  29.763  1.00  0.00    -0.001 C 
HETATM   27  C10 UNL     1       9.384  39.235  28.807  1.00  0.00     0.005 C 
ENDBRANCH  25  26
ENDBRANCH   1  25
BRANCH  15  28
HETATM   28  C18 UNL     1      11.755  42.554  33.386  1.00  0.00     0.073 C 
BRANCH  28  29
HETATM   29  C19 UNL     1      11.663  43.989  33.865  1.00  0.00     0.118 C 
HETATM   30  C20 UNL     1      13.079  44.388  34.312  1.00  0.00     0.039 C 
BRANCH  29  31
HETATM   31  O5  UNL     1      10.860  44.149  34.938  1.00  0.00    -0.396 OA
ATOM     32  H5  UNL     1      10.942  45.001  35.349  1.00  0.00     0.210 HD
ENDBRANCH  29  31
ENDBRANCH  28  29
ENDBRANCH  15  28
BRANCH  14  33
HETATM   33  O4  UNL     1      11.470  43.363  29.994  1.00  0.00    -0.346 OA
ATOM     34  H4  UNL     1      12.411  43.463  30.074  1.00  0.00     0.219 HD
ENDBRANCH  14  33
TORSDOF 11
ENDMDL
MODEL 2
REMARK VINA RESULT: -6.512644680      1.042      1.201
REMARK  11 active torsions:
REMARK  status: ('A' for Active; 'I' for Inactive)
REMARK    1  A    between atoms: C2_2  and  C3_3 
REMARK    2  A    between atoms: C3_3  and  C4_4 
REMARK    3  A    between atoms: C4_4  and  C5_5 
REMARK    4  A    between atoms: C5_5  and  N1_6 
REMARK       I    between atoms: N1_6  and  C6_8 
REMARK    5  A    between atoms: C6_8  and  C7_10 
REMARK    6  A    between atoms: C7_10  and  C8_11 
REMARK    7  A    between atoms: C8_11  and  C9_12 
REMARK    8  A    between atoms: C16_26  and  O4_27 
REMARK    9  A    between atoms: C17_29  and  C18_30 
REMARK   10  A    between atoms: C18_30  and  C19_31 
REMARK   11  A    between atoms: C19_31  and  O5_33 
ROOT
HETATM    1  C7  UNL     1      10.157  41.527  32.517  1.00  0.00     0.142 C 
HETATM    2  N2  UNL     1       8.955  41.428  33.229  1.00  0.00    -0.333 N 
ATOM      3  H2  UNL     1       8.293  40.760  32.833  1.00  0.00     0.164 HD
HETATM    4  C11 UNL     1       8.487  42.079  34.391  1.00  0.00     0.291 C 
HETATM    5  O2  UNL     1       8.161  41.379  35.427  1.00  0.00    -0.264 OA
HETATM    6  C12 UNL     1       8.308  43.498  34.595  1.00  0.00     0.252 C 
HETATM    7  O3  UNL     1       8.526  44.005  35.750  1.00  0.00    -0.284 OA
HETATM    8  C13 UNL     1       7.883  44.447  33.549  1.00  0.00     0.271 C 
HETATM    9  F1  UNL     1       7.281  43.908  32.474  1.00  0.00    -0.239 F 
HETATM   10  C14 UNL     1       8.911  45.431  33.157  1.00  0.00     0.121 C 
HETATM   11  C15 UNL     1       9.318  46.301  34.376  1.00  0.00     0.035 C 
HETATM   12  N3  UNL     1      10.019  45.044  32.354  1.00  0.00    -0.363 N 
ATOM     13  H3  UNL     1      10.483  45.867  31.969  1.00  0.00     0.162 HD
HETATM   14  C16 UNL     1      10.660  43.892  31.935  1.00  0.00     0.141 C 
HETATM   15  C17 UNL     1      11.126  42.634  32.554  1.00  0.00     0.010 C 
ENDROOT
BRANCH   1  16
HETATM   16  C6  UNL     1      10.931  40.227  32.622  1.00  0.00     0.250 C 
HETATM   17  N1  UNL     1      11.786  39.920  31.502  1.00  0.00    -0.359 N 
ATOM     18  H1  UNL     1      11.853  40.548  30.700  1.00  0.00     0.162 HD
HETATM   19  O1  UNL     1      10.849  39.494  33.592  1.00  0.00    -0.270 OA
BRANCH  17  20
HETATM   20  C5  UNL     1      12.550  38.684  31.556  1.00  0.00     0.122 C 
BRANCH  20  21
HETATM   21  C4  UNL     1      12.820  38.128  30.180  1.00  0.00     0.020 C 
BRANCH  21  22
HETATM   22  C3  UNL     1      14.046  37.249  30.220  1.00  0.00     0.001 C 
BRANCH  22  23
HETATM   23  C2  UNL     1      14.841  37.314  28.950  1.00  0.00    -0.004 C 
HETATM   24  C1  UNL     1      13.958  37.743  27.788  1.00  0.00     0.005 C 
ENDBRANCH  22  23
ENDBRANCH  21  22
ENDBRANCH  20  21
ENDBRANCH  17  20
ENDBRANCH   1  16
BRANCH   1  25
HETATM   25  C8  UNL     1       9.684  41.509  31.010  1.00  0.00     0.046 C 
BRANCH  25  26
HETATM   26  C9  UNL     1       8.395  40.858  30.759  1.00  0.00    -0.001 C 
HETATM   27  C10 UNL     1       8.660  39.878  29.569  1.00  0.00     0.005 C 
ENDBRANCH  25  26
ENDBRANCH   1  25
BRANCH  15  28
HETATM   28  C18 UNL     1      12.013  42.766  33.745  1.00  0.00     0.073 C 
BRANCH  28  29
HETATM   29  C19 UNL     1      12.562  44.146  34.045  1.00  0.00     0.118 C 
HETATM   30  C20 UNL     1      14.035  43.949  34.441  1.00  0.00     0.039 C 
BRANCH  29  31
HETATM   31  O5  UNL     1      11.959  44.751  35.090  1.00  0.00    -0.396 OA
ATOM     32  H5  UNL     1      12.341  44.527  35.930  1.00  0.00     0.210 HD
ENDBRANCH  29  31
ENDBRANCH  28  29
ENDBRANCH  15  28
BRANCH  14  33
HETATM   33  O4  UNL     1      10.928  43.932  30.629  1.00  0.00    -0.346 OA
ATOM     34  H4  UNL     1      11.547  43.256  30.382  1.00  0.00     0.219 HD
ENDBRANCH  14  33
TORSDOF 11
ENDMDL
MODEL 3
REMARK VINA RESULT: -6.264554622      2.087      3.611
REMARK  11 active torsions:
REMARK  status: ('A' for Active; 'I' for Inactive)
REMARK    1  A    between atoms: C2_2  and  C3_3 
REMARK    2  A    between atoms: C3_3  and  C4_4 
REMARK    3  A    between atoms: C4_4  and  C5_5 
REMARK    4  A    between atoms: C5_5  and  N1_6 
REMARK       I    between atoms: N1_6  and  C6_8 
REMARK    5  A    between atoms: C6_8  and  C7_10 
REMARK    6  A    between atoms: C7_10  and  C8_11 
REMARK    7  A    between atoms: C8_11  and  C9_12 
REMARK    8  A    between atoms: C16_26  and  O4_27 
REMARK    9  A    between atoms: C17_29  and  C18_30 
REMARK   10  A    between atoms: C18_30  and  C19_31 
REMARK   11  A    between atoms: C19_31  and  O5_33 
ROOT
HETATM    1  C7  UNL     1       9.855  42.745  31.535  1.00  0.00     0.142 C 
HETATM    2  N2  UNL     1       9.000  43.829  31.307  1.00  0.00    -0.333 N 
ATOM      3  H2  UNL     1       9.152  44.296  30.412  1.00  0.00     0.164 HD
HETATM    4  C11 UNL     1       7.966  44.399  32.081  1.00  0.00     0.291 C 
HETATM    5  O2  UNL     1       6.768  44.458  31.603  1.00  0.00    -0.264 OA
HETATM    6  C12 UNL     1       8.068  44.960  33.409  1.00  0.00     0.252 C 
HETATM    7  O3  UNL     1       7.091  44.832  34.227  1.00  0.00    -0.284 OA
HETATM    8  C13 UNL     1       9.241  45.692  33.923  1.00  0.00     0.271 C 
HETATM    9  F1  UNL     1      10.087  46.174  32.994  1.00  0.00    -0.239 F 
HETATM   10  C14 UNL     1       9.965  45.006  35.010  1.00  0.00     0.121 C 
HETATM   11  C15 UNL     1       9.032  44.796  36.232  1.00  0.00     0.035 C 
HETATM   12  N3  UNL     1      10.789  43.878  34.737  1.00  0.00    -0.363 N 
ATOM     13  H3  UNL     1      11.401  43.686  35.530  1.00  0.00     0.162 HD
HETATM   14  C16 UNL     1      11.011  42.962  33.726  1.00  0.00     0.141 C 
HETATM   15  C17 UNL     1      10.186  42.126  32.829  1.00  0.00     0.010 C 
ENDROOT
BRANCH   1  16
HETATM   16  C6  UNL     1       9.555  41.631  30.550  1.00  0.00     0.250 C 
HETATM   17  N1  UNL     1      10.682  40.814  30.172  1.00  0.00    -0.359 N 
ATOM     18  H1  UNL     1      11.613  40.989  30.552  1.00  0.00     0.162 HD
HETATM   19  O1  UNL     1       8.435  41.427  30.116  1.00  0.00    -0.270 OA
BRANCH  17  20
HETATM   20  C5  UNL     1      10.443  39.731  29.231  1.00  0.00     0.122 C 
BRANCH  20  21
HETATM   21  C4  UNL     1      11.438  38.610  29.401  1.00  0.00     0.020 C 
BRANCH  21  22
HETATM   22  C3  UNL     1      12.219  38.814  30.677  1.00  0.00     0.001 C 
BRANCH  22  23
HETATM   23  C2  UNL     1      13.337  37.826  30.831  1.00  0.00    -0.004 C 
HETATM   24  C1  UNL     1      13.867  37.403  29.469  1.00  0.00     0.005 C 
ENDBRANCH  22  23
ENDBRANCH  21  22
ENDBRANCH  20  21
ENDBRANCH  17  20
ENDBRANCH   1  16
BRANCH   1  25
HETATM   25  C8  UNL     1      11.251  43.274  31.018  1.00  0.00     0.046 C 
BRANCH  25  26
HETATM   26  C9  UNL     1      11.194  44.253  29.929  1.00  0.00    -0.001 C 
HETATM   27  C10 UNL     1      12.110  45.433  30.394  1.00  0.00     0.005 C 
ENDBRANCH  25  26
ENDBRANCH   1  25
BRANCH  15  28
HETATM   28  C18 UNL     1       9.171  41.251  33.480  1.00  0.00     0.073 C 
BRANCH  28  29
HETATM   29  C19 UNL     1       9.482  39.769  33.547  1.00  0.00     0.118 C 
HETATM   30  C20 UNL     1       8.770  39.234  34.801  1.00  0.00     0.039 C 
BRANCH  29  31
HETATM   31  O5  UNL     1      10.795  39.500  33.706  1.00  0.00    -0.396 OA
ATOM     32  H5  UNL     1      11.282  39.490  32.890  1.00  0.00     0.210 HD
ENDBRANCH  29  31
ENDBRANCH  28  29
ENDBRANCH  15  28
BRANCH  14  33
HETATM   33  O4  UNL     1      12.315  42.787  33.507  1.00  0.00    -0.346 OA
ATOM     34  H4  UNL     1      12.593  41.912  33.753  1.00  0.00     0.219 HD
ENDBRANCH  14  33
TORSDOF 11
ENDMDL
MODEL 4
REMARK VINA RESULT: -6.090873265      1.736      2.330
REMARK  11 active torsions:
REMARK  status: ('A' for Active; 'I' for Inactive)
REMARK    1  A    between atoms: C2_2  and  C3_3 
REMARK    2  A    between atoms: C3_3  and  C4_4 
REMARK    3  A    between atoms: C4_4  and  C5_5 
REMARK    4  A    between atoms: C5_5  and  N1_6 
REMARK       I    between atoms: N1_6  and  C6_8 
REMARK    5  A    between atoms: C6_8  and  C7_10 
REMARK    6  A    between atoms: C7_10  and  C8_11 
REMARK    7  A    between atoms: C8_11  and  C9_12 
REMARK    8  A    between atoms: C16_26  and  O4_27 
REMARK    9  A    between atoms: C17_29  and  C18_30 
REMARK   10  A    between atoms: C18_30  and  C19_31 
REMARK   11  A    between atoms: C19_31  and  O5_33 
ROOT
HETATM    1  C7  UNL     1       9.742  41.569  32.930  1.00  0.00     0.142 C 
HETATM    2  N2  UNL     1       8.672  41.329  33.800  1.00  0.00    -0.333 N 
ATOM      3  H2  UNL     1       8.005  40.637  33.456  1.00  0.00     0.164 HD
HETATM    4  C11 UNL     1       8.342  41.862  35.065  1.00  0.00     0.291 C 
HETATM    5  O2  UNL     1       8.227  41.073  36.081  1.00  0.00    -0.264 OA
HETATM    6  C12 UNL     1       8.099  43.247  35.401  1.00  0.00     0.252 C 
HETATM    7  O3  UNL     1       8.455  43.693  36.547  1.00  0.00    -0.284 OA
HETATM    8  C13 UNL     1       7.455  44.226  34.505  1.00  0.00     0.271 C 
HETATM    9  F1  UNL     1       6.736  43.711  33.491  1.00  0.00    -0.239 F 
HETATM   10  C14 UNL     1       8.341  45.311  34.043  1.00  0.00     0.121 C 
HETATM   11  C15 UNL     1       8.868  46.129  35.252  1.00  0.00     0.035 C 
HETATM   12  N3  UNL     1       9.339  45.067  33.058  1.00  0.00    -0.363 N 
ATOM     13  H3  UNL     1       9.681  45.948  32.674  1.00  0.00     0.162 HD
HETATM   14  C16 UNL     1       9.986  44.000  32.463  1.00  0.00     0.141 C 
HETATM   15  C17 UNL     1      10.627  42.745  32.909  1.00  0.00     0.010 C 
ENDROOT
BRANCH   1  16
HETATM   16  C6  UNL     1      10.611  40.331  32.819  1.00  0.00     0.250 C 
HETATM   17  N1  UNL     1      11.352  40.198  31.590  1.00  0.00    -0.359 N 
ATOM     18  H1  UNL     1      11.284  40.901  30.853  1.00  0.00     0.162 HD
HETATM   19  O1  UNL     1      10.690  39.507  33.714  1.00  0.00    -0.270 OA
BRANCH  17  20
HETATM   20  C5  UNL     1      12.201  39.027  31.438  1.00  0.00     0.122 C 
BRANCH  20  21
HETATM   21  C4  UNL     1      12.127  38.457  30.043  1.00  0.00     0.020 C 
BRANCH  21  22
HETATM   22  C3  UNL     1      11.260  39.341  29.180  1.00  0.00     0.001 C 
BRANCH  22  23
HETATM   23  C2  UNL     1       9.916  38.733  28.904  1.00  0.00    -0.004 C 
HETATM   24  C1  UNL     1       9.020  39.726  28.178  1.00  0.00     0.005 C 
ENDBRANCH  22  23
ENDBRANCH  21  22
ENDBRANCH  20  21
ENDBRANCH  17  20
ENDBRANCH   1  16
BRANCH   1  25
HETATM   25  C8  UNL     1       9.047  41.612  31.511  1.00  0.00     0.046 C 
BRANCH  25  26
HETATM   26  C9  UNL     1       7.760  40.919  31.416  1.00  0.00    -0.001 C 
HETATM   27  C10 UNL     1       6.885  41.814  30.476  1.00  0.00     0.005 C 
ENDBRANCH  25  26
ENDBRANCH   1  25
BRANCH  15  28
HETATM   28  C18 UNL     1      11.673  42.869  33.963  1.00  0.00     0.073 C 
BRANCH  28  29
HETATM   29  C19 UNL     1      12.376  44.206  34.082  1.00  0.00     0.118 C 
HETATM   30  C20 UNL     1      13.853  43.894  34.373  1.00  0.00     0.039 C 
BRANCH  29  31
HETATM   31  O5  UNL     1      11.932  44.959  35.109  1.00  0.00    -0.396 OA
ATOM     32  H5  UNL     1      12.035  45.893  34.969  1.00  0.00     0.210 HD
ENDBRANCH  29  31
ENDBRANCH  28  29
ENDBRANCH  15  28
BRANCH  14  33
HETATM   33  O4  UNL     1      10.049  44.146  31.139  1.00  0.00    -0.346 OA
ATOM     34  H4  UNL     1       9.224  43.919  30.726  1.00  0.00     0.219 HD
ENDBRANCH  14  33
TORSDOF 11
ENDMDL
MODEL 5
REMARK VINA RESULT: -6.088185858      1.912      4.225
REMARK  11 active torsions:
REMARK  status: ('A' for Active; 'I' for Inactive)
REMARK    1  A    between atoms: C2_2  and  C3_3 
REMARK    2  A    between atoms: C3_3  and  C4_4 
REMARK    3  A    between atoms: C4_4  and  C5_5 
REMARK    4  A    between atoms: C5_5  and  N1_6 
REMARK       I    between atoms: N1_6  and  C6_8 
REMARK    5  A    between atoms: C6_8  and  C7_10 
REMARK    6  A    between atoms: C7_10  and  C8_11 
REMARK    7  A    between atoms: C8_11  and  C9_12 
REMARK    8  A    between atoms: C16_26  and  O4_27 
REMARK    9  A    between atoms: C17_29  and  C18_30 
REMARK   10  A    between atoms: C18_30  and  C19_31 
REMARK   11  A    between atoms: C19_31  and  O5_33 
ROOT
HETATM    1  C7  UNL     1      10.840  42.934  33.065  1.00  0.00     0.142 C 
HETATM    2  N2  UNL     1      11.307  43.671  31.970  1.00  0.00    -0.333 N 
ATOM      3  H2  UNL     1      12.311  43.582  31.808  1.00  0.00     0.164 HD
HETATM    4  C11 UNL     1      10.651  44.514  31.047  1.00  0.00     0.291 C 
HETATM    5  O2  UNL     1      10.695  44.237  29.786  1.00  0.00    -0.264 OA
HETATM    6  C12 UNL     1       9.896  45.713  31.332  1.00  0.00     0.252 C 
HETATM    7  O3  UNL     1       8.870  46.000  30.621  1.00  0.00    -0.284 OA
HETATM    8  C13 UNL     1      10.216  46.668  32.409  1.00  0.00     0.271 C 
HETATM    9  F1  UNL     1      11.469  46.610  32.894  1.00  0.00    -0.239 F 
HETATM   10  C14 UNL     1       9.218  46.727  33.494  1.00  0.00     0.121 C 
HETATM   11  C15 UNL     1       7.838  47.167  32.936  1.00  0.00     0.035 C 
HETATM   12  N3  UNL     1       9.122  45.680  34.452  1.00  0.00    -0.363 N 
ATOM     13  H3  UNL     1       8.577  45.985  35.258  1.00  0.00     0.162 HD
HETATM   14  C16 UNL     1       9.543  44.374  34.624  1.00  0.00     0.141 C 
HETATM   15  C17 UNL     1       9.588  43.141  33.810  1.00  0.00     0.010 C 
ENDROOT
BRANCH   1  16
HETATM   16  C6  UNL     1      10.977  41.449  32.789  1.00  0.00     0.250 C 
HETATM   17  N1  UNL     1      11.353  41.099  31.442  1.00  0.00    -0.359 N 
ATOM     18  H1  UNL     1      11.512  41.816  30.734  1.00  0.00     0.162 HD
HETATM   19  O1  UNL     1      10.795  40.605  33.650  1.00  0.00    -0.270 OA
BRANCH  17  20
HETATM   20  C5  UNL     1      11.499  39.686  31.129  1.00  0.00     0.122 C 
BRANCH  20  21
HETATM   21  C4  UNL     1      11.329  39.417  29.654  1.00  0.00     0.020 C 
BRANCH  21  22
HETATM   22  C3  UNL     1      12.243  38.290  29.237  1.00  0.00     0.001 C 
BRANCH  22  23
HETATM   23  C2  UNL     1      13.199  37.893  30.322  1.00  0.00    -0.004 C 
HETATM   24  C1  UNL     1      14.390  37.147  29.740  1.00  0.00     0.005 C 
ENDBRANCH  22  23
ENDBRANCH  21  22
ENDBRANCH  20  21
ENDBRANCH  17  20
ENDBRANCH   1  16
BRANCH   1  25
HETATM   25  C8  UNL     1      11.956  43.171  34.158  1.00  0.00     0.046 C 
BRANCH  25  26
HETATM   26  C9  UNL     1      13.117  43.949  33.719  1.00  0.00    -0.001 C 
HETATM   27  C10 UNL     1      13.671  44.620  35.019  1.00  0.00     0.005 C 
ENDBRANCH  25  26
ENDBRANCH   1  25
BRANCH  15  28
HETATM   28  C18 UNL     1       8.306  42.709  33.184  1.00  0.00     0.073 C 
BRANCH  28  29
HETATM   29  C19 UNL     1       7.456  41.726  33.964  1.00  0.00     0.118 C 
HETATM   30  C20 UNL     1       6.347  42.552  34.636  1.00  0.00     0.039 C 
BRANCH  29  31
HETATM   31  O5  UNL     1       8.125  41.101  34.955  1.00  0.00    -0.396 OA
ATOM     32  H5  UNL     1       7.978  41.482  35.812  1.00  0.00     0.210 HD
ENDBRANCH  29  31
ENDBRANCH  28  29
ENDBRANCH  15  28
BRANCH  14  33
HETATM   33  O4  UNL     1      10.035  44.178  35.848  1.00  0.00    -0.346 OA
ATOM     34  H4  UNL     1       9.806  43.318  36.180  1.00  0.00     0.219 HD
ENDBRANCH  14  33
TORSDOF 11
ENDMDL
