MODEL 1
REMARK VINA RESULT: -5.345663497      0.000      0.000
REMARK  2 active torsions:
REMARK  status: ('A' for Active; 'I' for Inactive)
REMARK    1  A    between atoms: N2_4  and  C1_6 
REMARK    2  A    between atoms: C1_6  and  C2_10 
ROOT
HETATM    1  C1  UNL     1     -12.722  28.146  42.730  1.00  0.00     0.093 C 
HETATM    2  N3  UNL     1     -13.563  27.942  41.776  1.00  0.00    -0.388 N 
ATOM      3  H31 UNL     1     -14.549  27.890  42.032  1.00  0.00     0.157 HD
ATOM      4  H32 UNL     1     -13.270  27.837  40.805  1.00  0.00     0.157 HD
ENDROOT
BRANCH   1   5
HETATM    5  N2  UNL     1     -11.349  28.220  42.374  1.00  0.00    -0.296 N 
HETATM    6  N1  UNL     1     -10.939  27.361  41.519  1.00  0.00    -0.344 N 
ATOM      7  H12 UNL     1     -11.576  26.668  41.125  1.00  0.00     0.176 HD
ATOM      8  H11 UNL     1      -9.953  27.413  41.263  1.00  0.00     0.176 HD
ATOM      9  H2  UNL     1     -10.725  28.918  42.777  1.00  0.00     0.187 HD
ENDBRANCH   1   5
BRANCH   1  10
HETATM   10  C2  UNL     1     -13.144  28.298  44.129  1.00  0.00     0.054 C 
HETATM   11  C3  UNL     1     -12.950  27.072  45.006  1.00  0.00     0.012 C 
HETATM   12  C4  UNL     1     -14.330  27.364  45.590  1.00  0.00     0.002 C 
HETATM   13  C5  UNL     1     -14.656  28.111  44.327  1.00  0.00     0.012 C 
ENDBRANCH   1  10
TORSDOF 2
ENDMDL
MODEL 2
REMARK VINA RESULT: -5.216296974      1.121      2.086
REMARK  2 active torsions:
REMARK  status: ('A' for Active; 'I' for Inactive)
REMARK    1  A    between atoms: N2_4  and  C1_6 
REMARK    2  A    between atoms: C1_6  and  C2_10 
ROOT
HETATM    1  C1  UNL     1     -13.609  28.239  42.801  1.00  0.00     0.093 C 
HETATM    2  N3  UNL     1     -12.755  28.349  41.844  1.00  0.00    -0.388 N 
ATOM      3  H31 UNL     1     -11.795  28.577  42.103  1.00  0.00     0.157 HD
ATOM      4  H32 UNL     1     -13.013  28.215  40.866  1.00  0.00     0.157 HD
ENDROOT
BRANCH   1   5
HETATM    5  N2  UNL     1     -14.945  27.921  42.440  1.00  0.00    -0.296 N 
HETATM    6  N1  UNL     1     -15.188  27.838  41.187  1.00  0.00    -0.344 N 
ATOM      7  H12 UNL     1     -14.452  27.994  40.498  1.00  0.00     0.176 HD
ATOM      8  H11 UNL     1     -16.148  27.609  40.927  1.00  0.00     0.176 HD
ATOM      9  H2  UNL     1     -15.670  27.767  43.141  1.00  0.00     0.187 HD
ENDBRANCH   1   5
BRANCH   1  10
HETATM   10  C2  UNL     1     -13.237  28.431  44.210  1.00  0.00     0.054 C 
HETATM   11  C3  UNL     1     -12.847  27.168  44.960  1.00  0.00     0.012 C 
HETATM   12  C4  UNL     1     -13.672  27.700  46.130  1.00  0.00     0.002 C 
HETATM   13  C5  UNL     1     -14.451  28.527  45.147  1.00  0.00     0.012 C 
ENDBRANCH   1  10
TORSDOF 2
ENDMDL
MODEL 3
REMARK VINA RESULT: -5.171720945      1.155      1.582
REMARK  2 active torsions:
REMARK  status: ('A' for Active; 'I' for Inactive)
REMARK    1  A    between atoms: N2_4  and  C1_6 
REMARK    2  A    between atoms: C1_6  and  C2_10 
ROOT
HETATM    1  C1  UNL     1     -12.077  27.908  43.616  1.00  0.00     0.093 C 
HETATM    2  N3  UNL     1     -11.547  26.911  44.236  1.00  0.00    -0.388 N 
ATOM      3  H31 UNL     1     -11.999  26.610  45.100  1.00  0.00     0.157 HD
ATOM      4  H32 UNL     1     -10.713  26.436  43.890  1.00  0.00     0.157 HD
ENDROOT
BRANCH   1   5
HETATM    5  N2  UNL     1     -11.448  28.327  42.414  1.00  0.00    -0.296 N 
HETATM    6  N1  UNL     1     -12.219  28.542  41.417  1.00  0.00    -0.344 N 
ATOM      7  H12 UNL     1     -13.228  28.415  41.497  1.00  0.00     0.176 HD
ATOM      8  H11 UNL     1     -11.767  28.844  40.553  1.00  0.00     0.176 HD
ATOM      9  H2  UNL     1     -10.437  28.450  42.350  1.00  0.00     0.187 HD
ENDBRANCH   1   5
BRANCH   1  10
HETATM   10  C2  UNL     1     -13.278  28.593  44.114  1.00  0.00     0.054 C 
HETATM   11  C3  UNL     1     -13.722  28.197  45.513  1.00  0.00     0.012 C 
HETATM   12  C4  UNL     1     -15.151  28.191  44.975  1.00  0.00     0.002 C 
HETATM   13  C5  UNL     1     -14.585  27.970  43.600  1.00  0.00     0.012 C 
ENDBRANCH   1  10
TORSDOF 2
ENDMDL
MODEL 4
REMARK VINA RESULT: -5.135011404      0.808      1.259
REMARK  2 active torsions:
REMARK  status: ('A' for Active; 'I' for Inactive)
REMARK    1  A    between atoms: N2_4  and  C1_6 
REMARK    2  A    between atoms: C1_6  and  C2_10 
ROOT
HETATM    1  C1  UNL     1     -12.671  27.894  42.947  1.00  0.00     0.093 C 
HETATM    2  N3  UNL     1     -13.642  28.090  42.124  1.00  0.00    -0.388 N 
ATOM      3  H31 UNL     1     -14.579  27.853  42.449  1.00  0.00     0.157 HD
ATOM      4  H32 UNL     1     -13.494  28.466  41.187  1.00  0.00     0.157 HD
ENDROOT
BRANCH   1   5
HETATM    5  N2  UNL     1     -11.366  28.224  42.494  1.00  0.00    -0.296 N 
HETATM    6  N1  UNL     1     -10.868  27.461  41.597  1.00  0.00    -0.344 N 
ATOM      7  H12 UNL     1     -11.392  26.662  41.237  1.00  0.00     0.176 HD
ATOM      8  H11 UNL     1      -9.930  27.698  41.271  1.00  0.00     0.176 HD
ATOM      9  H2  UNL     1     -10.854  29.026  42.863  1.00  0.00     0.187 HD
ENDBRANCH   1   5
BRANCH   1  10
HETATM   10  C2  UNL     1     -12.883  27.353  44.296  1.00  0.00     0.054 C 
HETATM   11  C3  UNL     1     -14.161  27.803  44.986  1.00  0.00     0.012 C 
HETATM   12  C4  UNL     1     -13.327  27.971  46.254  1.00  0.00     0.002 C 
HETATM   13  C5  UNL     1     -12.112  28.120  45.382  1.00  0.00     0.012 C 
ENDBRANCH   1  10
TORSDOF 2
ENDMDL
MODEL 5
REMARK VINA RESULT: -5.021327939      1.221      2.342
REMARK  2 active torsions:
REMARK  status: ('A' for Active; 'I' for Inactive)
REMARK    1  A    between atoms: N2_4  and  C1_6 
REMARK    2  A    between atoms: C1_6  and  C2_10 
ROOT
HETATM    1  C1  UNL     1     -13.522  27.997  42.963  1.00  0.00     0.093 C 
HETATM    2  N3  UNL     1     -12.619  28.450  42.165  1.00  0.00    -0.388 N 
ATOM      3  H31 UNL     1     -11.649  28.378  42.474  1.00  0.00     0.157 HD
ATOM      4  H32 UNL     1     -12.849  28.864  41.261  1.00  0.00     0.157 HD
ENDROOT
BRANCH   1   5
HETATM    5  N2  UNL     1     -14.872  28.096  42.532  1.00  0.00    -0.296 N 
HETATM    6  N1  UNL     1     -15.100  27.792  41.311  1.00  0.00    -0.344 N 
ATOM      7  H12 UNL     1     -14.344  27.496  40.694  1.00  0.00     0.176 HD
ATOM      8  H11 UNL     1     -16.070  27.863  41.002  1.00  0.00     0.176 HD
ATOM      9  H2  UNL     1     -15.617  28.394  43.162  1.00  0.00     0.187 HD
ENDBRANCH   1   5
BRANCH   1  10
HETATM   10  C2  UNL     1     -13.191  27.401  44.265  1.00  0.00     0.054 C 
HETATM   11  C3  UNL     1     -14.214  27.627  45.365  1.00  0.00     0.012 C 
HETATM   12  C4  UNL     1     -13.037  27.899  46.299  1.00  0.00     0.002 C 
HETATM   13  C5  UNL     1     -12.219  28.257  45.091  1.00  0.00     0.012 C 
ENDBRANCH   1  10
TORSDOF 2
ENDMDL
