MODEL 1
REMARK VINA RESULT: -6.723953719      0.000      0.000
REMARK  6 active torsions:
REMARK  status: ('A' for Active; 'I' for Inactive)
REMARK    1  A    between atoms: C2_2  and  O1_3 
REMARK    2  A    between atoms: O1_3  and  C3_4 
REMARK    3  A    between atoms: C3_4  and  C4_6 
REMARK    4  A    between atoms: C5_7  and  N1_8 
REMARK    5  A    between atoms: N1_8  and  S1_9 
REMARK    6  A    between atoms: S1_9  and  C6_12 
ROOT
HETATM    1  C4  UNL     1      54.917  39.950  63.150  1.00  0.00     0.106 A 
HETATM    2  C5  UNL     1      54.967  41.163  63.768  1.00  0.00     0.210 A 
HETATM    3  N2  UNL     1      54.433  42.262  63.045  1.00  0.00    -0.332 N 
ATOM      4  H2  UNL     1      54.457  43.185  63.476  1.00  0.00     0.168 HD
HETATM    5  C8  UNL     1      53.909  42.147  61.848  1.00  0.00     0.030 A 
HETATM    6  C9  UNL     1      53.344  43.318  61.091  1.00  0.00     0.070 C 
HETATM    7  C10 UNL     1      53.850  40.916  61.227  1.00  0.00     0.063 A 
HETATM    8 CL1  UNL     1      53.142  40.737  59.635  1.00  0.00    -0.082 Cl
HETATM    9  C11 UNL     1      54.342  39.818  61.852  1.00  0.00    -0.017 A 
HETATM   10  C12 UNL     1      54.274  38.502  61.183  1.00  0.00     0.051 C 
ENDROOT
BRANCH   2  11
HETATM   11  N1  UNL     1      55.455  41.509  64.979  1.00  0.00    -0.303 NA
BRANCH  11  12
HETATM   12  S1  UNL     1      56.048  41.930  66.455  1.00  0.00     0.293 S 
HETATM   13  O3  UNL     1      57.414  41.275  66.641  1.00  0.00    -0.192 OA
HETATM   14  O4  UNL     1      55.176  41.412  67.606  1.00  0.00    -0.192 OA
BRANCH  12  15
HETATM   15  C6  UNL     1      56.224  43.653  66.748  1.00  0.00     0.173 C 
HETATM   16  C7  UNL     1      57.336  43.973  67.698  1.00  0.00     0.024 C 
ENDBRANCH  12  15
ENDBRANCH  11  12
ENDBRANCH   2  11
BRANCH   1  17
HETATM   17  C3  UNL     1      55.626  38.815  63.685  1.00  0.00     0.298 C 
HETATM   18  O2  UNL     1      56.831  38.596  63.505  1.00  0.00    -0.259 OA
BRANCH  17  19
HETATM   19  O1  UNL     1      54.971  37.879  64.454  1.00  0.00    -0.318 OA
BRANCH  19  20
HETATM   20  C2  UNL     1      54.410  38.129  65.717  1.00  0.00     0.174 C 
HETATM   21  C1  UNL     1      55.433  37.933  66.834  1.00  0.00     0.034 C 
ENDBRANCH  19  20
ENDBRANCH  17  19
ENDBRANCH   1  17
TORSDOF 6
ENDMDL
MODEL 2
REMARK VINA RESULT: -6.701334362      3.430      5.892
REMARK  6 active torsions:
REMARK  status: ('A' for Active; 'I' for Inactive)
REMARK    1  A    between atoms: C2_2  and  O1_3 
REMARK    2  A    between atoms: O1_3  and  C3_4 
REMARK    3  A    between atoms: C3_4  and  C4_6 
REMARK    4  A    between atoms: C5_7  and  N1_8 
REMARK    5  A    between atoms: N1_8  and  S1_9 
REMARK    6  A    between atoms: S1_9  and  C6_12 
ROOT
HETATM    1  C4  UNL     1      53.964  40.776  65.136  1.00  0.00     0.106 A 
HETATM    2  C5  UNL     1      54.243  40.436  63.848  1.00  0.00     0.210 A 
HETATM    3  N2  UNL     1      54.909  39.198  63.652  1.00  0.00    -0.332 N 
ATOM      4  H2  UNL     1      55.137  38.914  62.699  1.00  0.00     0.168 HD
HETATM    5  C8  UNL     1      55.246  38.401  64.637  1.00  0.00     0.030 A 
HETATM    6  C9  UNL     1      55.950  37.088  64.418  1.00  0.00     0.070 C 
HETATM    7  C10 UNL     1      54.953  38.741  65.942  1.00  0.00     0.063 A 
HETATM    8 CL1  UNL     1      55.380  37.685  67.272  1.00  0.00    -0.082 Cl
HETATM    9  C11 UNL     1      54.321  39.909  66.211  1.00  0.00    -0.017 A 
HETATM   10  C12 UNL     1      54.007  40.268  67.610  1.00  0.00     0.051 C 
ENDROOT
BRANCH   2  11
HETATM   11  N1  UNL     1      53.994  41.095  62.694  1.00  0.00    -0.303 NA
BRANCH  11  12
HETATM   12  S1  UNL     1      53.691  41.896  61.290  1.00  0.00     0.293 S 
HETATM   13  O3  UNL     1      54.984  42.546  60.805  1.00  0.00    -0.192 OA
HETATM   14  O4  UNL     1      52.690  43.045  61.476  1.00  0.00    -0.192 OA
BRANCH  12  15
HETATM   15  C6  UNL     1      53.041  40.927  59.978  1.00  0.00     0.173 C 
HETATM   16  C7  UNL     1      53.598  39.538  59.947  1.00  0.00     0.024 C 
ENDBRANCH  12  15
ENDBRANCH  11  12
ENDBRANCH   2  11
BRANCH   1  17
HETATM   17  C3  UNL     1      53.499  42.099  65.471  1.00  0.00     0.298 C 
HETATM   18  O2  UNL     1      52.358  42.519  65.237  1.00  0.00    -0.259 OA
BRANCH  17  19
HETATM   19  O1  UNL     1      54.335  42.997  66.096  1.00  0.00    -0.318 OA
BRANCH  19  20
HETATM   20  C2  UNL     1      55.654  43.273  65.704  1.00  0.00     0.174 C 
HETATM   21  C1  UNL     1      56.526  43.657  66.897  1.00  0.00     0.034 C 
ENDBRANCH  19  20
ENDBRANCH  17  19
ENDBRANCH   1  17
TORSDOF 6
ENDMDL
MODEL 3
REMARK VINA RESULT: -6.621886680      2.075      4.122
REMARK  6 active torsions:
REMARK  status: ('A' for Active; 'I' for Inactive)
REMARK    1  A    between atoms: C2_2  and  O1_3 
REMARK    2  A    between atoms: O1_3  and  C3_4 
REMARK    3  A    between atoms: C3_4  and  C4_6 
REMARK    4  A    between atoms: C5_7  and  N1_8 
REMARK    5  A    between atoms: N1_8  and  S1_9 
REMARK    6  A    between atoms: S1_9  and  C6_12 
ROOT
HETATM    1  C4  UNL     1      54.616  40.656  63.575  1.00  0.00     0.106 A 
HETATM    2  C5  UNL     1      54.668  39.305  63.411  1.00  0.00     0.210 A 
HETATM    3  N2  UNL     1      54.385  38.816  62.109  1.00  0.00    -0.332 N 
ATOM      4  H2  UNL     1      54.410  37.809  61.952  1.00  0.00     0.168 HD
HETATM    5  C8  UNL     1      54.092  39.597  61.097  1.00  0.00     0.030 A 
HETATM    6  C9  UNL     1      53.795  39.068  59.720  1.00  0.00     0.070 C 
HETATM    7  C10 UNL     1      54.050  40.967  61.262  1.00  0.00     0.063 A 
HETATM    8 CL1  UNL     1      53.675  42.029  59.921  1.00  0.00    -0.082 Cl
HETATM    9  C11 UNL     1      54.306  41.510  62.476  1.00  0.00    -0.017 A 
HETATM   10  C12 UNL     1      54.262  42.978  62.646  1.00  0.00     0.051 C 
ENDROOT
BRANCH   2  11
HETATM   11  N1  UNL     1      54.943  38.326  64.300  1.00  0.00    -0.303 NA
BRANCH  11  12
HETATM   12  S1  UNL     1      55.278  37.133  65.383  1.00  0.00     0.293 S 
HETATM   13  O3  UNL     1      56.395  36.258  64.821  1.00  0.00    -0.192 OA
HETATM   14  O4  UNL     1      54.085  36.195  65.608  1.00  0.00    -0.192 OA
BRANCH  12  15
HETATM   15  C6  UNL     1      55.755  37.665  66.988  1.00  0.00     0.173 C 
HETATM   16  C7  UNL     1      54.808  38.662  67.578  1.00  0.00     0.024 C 
ENDBRANCH  12  15
ENDBRANCH  11  12
ENDBRANCH   2  11
BRANCH   1  17
HETATM   17  C3  UNL     1      54.661  41.248  64.888  1.00  0.00     0.298 C 
HETATM   18  O2  UNL     1      53.662  41.494  65.578  1.00  0.00    -0.259 OA
BRANCH  17  19
HETATM   19  O1  UNL     1      55.865  41.581  65.467  1.00  0.00    -0.318 OA
BRANCH  19  20
HETATM   20  C2  UNL     1      56.014  42.135  66.748  1.00  0.00     0.174 C 
HETATM   21  C1  UNL     1      56.301  43.633  66.682  1.00  0.00     0.034 C 
ENDBRANCH  19  20
ENDBRANCH  17  19
ENDBRANCH   1  17
TORSDOF 6
ENDMDL
MODEL 4
REMARK VINA RESULT: -6.597650734      3.203      4.939
REMARK  6 active torsions:
REMARK  status: ('A' for Active; 'I' for Inactive)
REMARK    1  A    between atoms: C2_2  and  O1_3 
REMARK    2  A    between atoms: O1_3  and  C3_4 
REMARK    3  A    between atoms: C3_4  and  C4_6 
REMARK    4  A    between atoms: C5_7  and  N1_8 
REMARK    5  A    between atoms: N1_8  and  S1_9 
REMARK    6  A    between atoms: S1_9  and  C6_12 
ROOT
HETATM    1  C4  UNL     1      54.730  40.842  64.601  1.00  0.00     0.106 A 
HETATM    2  C5  UNL     1      54.176  40.549  65.810  1.00  0.00     0.210 A 
HETATM    3  N2  UNL     1      54.274  39.199  66.238  1.00  0.00    -0.332 N 
ATOM      4  H2  UNL     1      53.866  38.944  67.138  1.00  0.00     0.168 HD
HETATM    5  C8  UNL     1      54.863  38.264  65.533  1.00  0.00     0.030 A 
HETATM    6  C9  UNL     1      54.963  36.835  65.997  1.00  0.00     0.070 C 
HETATM    7  C10 UNL     1      55.433  38.564  64.312  1.00  0.00     0.063 A 
HETATM    8 CL1  UNL     1      56.237  37.333  63.361  1.00  0.00    -0.082 Cl
HETATM    9  C11 UNL     1      55.378  39.830  63.834  1.00  0.00    -0.017 A 
HETATM   10  C12 UNL     1      55.992  40.147  62.527  1.00  0.00     0.051 C 
ENDROOT
BRANCH   2  11
HETATM   11  N1  UNL     1      53.528  41.342  66.692  1.00  0.00    -0.303 NA
BRANCH  11  12
HETATM   12  S1  UNL     1      52.739  42.307  67.765  1.00  0.00     0.293 S 
HETATM   13  O3  UNL     1      52.078  43.453  67.004  1.00  0.00    -0.192 OA
HETATM   14  O4  UNL     1      53.693  42.967  68.770  1.00  0.00    -0.192 OA
BRANCH  12  15
HETATM   15  C6  UNL     1      51.510  41.521  68.744  1.00  0.00     0.173 C 
HETATM   16  C7  UNL     1      50.566  42.490  69.385  1.00  0.00     0.024 C 
ENDBRANCH  12  15
ENDBRANCH  11  12
ENDBRANCH   2  11
BRANCH   1  17
HETATM   17  C3  UNL     1      54.496  42.115  63.966  1.00  0.00     0.298 C 
HETATM   18  O2  UNL     1      55.194  43.122  64.143  1.00  0.00    -0.259 OA
BRANCH  17  19
HETATM   19  O1  UNL     1      53.444  42.280  63.094  1.00  0.00    -0.318 OA
BRANCH  19  20
HETATM   20  C2  UNL     1      53.534  42.894  61.834  1.00  0.00     0.174 C 
HETATM   21  C1  UNL     1      53.185  41.922  60.710  1.00  0.00     0.034 C 
ENDBRANCH  19  20
ENDBRANCH  17  19
ENDBRANCH   1  17
TORSDOF 6
ENDMDL
MODEL 5
REMARK VINA RESULT: -6.489171877      3.311      5.994
REMARK  6 active torsions:
REMARK  status: ('A' for Active; 'I' for Inactive)
REMARK    1  A    between atoms: C2_2  and  O1_3 
REMARK    2  A    between atoms: O1_3  and  C3_4 
REMARK    3  A    between atoms: C3_4  and  C4_6 
REMARK    4  A    between atoms: C5_7  and  N1_8 
REMARK    5  A    between atoms: N1_8  and  S1_9 
REMARK    6  A    between atoms: S1_9  and  C6_12 
ROOT
HETATM    1  C4  UNL     1      53.778  40.865  65.788  1.00  0.00     0.106 A 
HETATM    2  C5  UNL     1      54.220  40.328  64.617  1.00  0.00     0.210 A 
HETATM    3  N2  UNL     1      54.739  39.008  64.684  1.00  0.00    -0.332 N 
ATOM      4  H2  UNL     1      55.083  38.577  63.827  1.00  0.00     0.168 HD
HETATM    5  C8  UNL     1      54.798  38.317  65.797  1.00  0.00     0.030 A 
HETATM    6  C9  UNL     1      55.349  36.917  65.857  1.00  0.00     0.070 C 
HETATM    7  C10 UNL     1      54.341  38.858  66.981  1.00  0.00     0.063 A 
HETATM    8 CL1  UNL     1      54.397  37.947  68.475  1.00  0.00    -0.082 Cl
HETATM    9  C11 UNL     1      53.833  40.114  66.999  1.00  0.00    -0.017 A 
HETATM   10  C12 UNL     1      53.342  40.688  68.270  1.00  0.00     0.051 C 
ENDROOT
BRANCH   2  11
HETATM   11  N1  UNL     1      54.256  40.852  63.372  1.00  0.00    -0.303 NA
BRANCH  11  12
HETATM   12  S1  UNL     1      54.300  41.490  61.857  1.00  0.00     0.293 S 
HETATM   13  O3  UNL     1      53.934  40.400  60.853  1.00  0.00    -0.192 OA
HETATM   14  O4  UNL     1      55.704  41.967  61.463  1.00  0.00    -0.192 OA
BRANCH  12  15
HETATM   15  C6  UNL     1      53.249  42.869  61.574  1.00  0.00     0.173 C 
HETATM   16  C7  UNL     1      52.260  42.633  60.475  1.00  0.00     0.024 C 
ENDBRANCH  12  15
ENDBRANCH  11  12
ENDBRANCH   2  11
BRANCH   1  17
HETATM   17  C3  UNL     1      53.445  42.264  65.884  1.00  0.00     0.298 C 
HETATM   18  O2  UNL     1      52.346  42.743  65.572  1.00  0.00    -0.259 OA
BRANCH  17  19
HETATM   19  O1  UNL     1      54.367  43.174  66.349  1.00  0.00    -0.318 OA
BRANCH  19  20
HETATM   20  C2  UNL     1      55.686  43.290  65.880  1.00  0.00     0.174 C 
HETATM   21  C1  UNL     1      56.644  43.699  66.997  1.00  0.00     0.034 C 
ENDBRANCH  19  20
ENDBRANCH  17  19
ENDBRANCH   1  17
TORSDOF 6
ENDMDL
