MODEL 1
REMARK VINA RESULT: -5.858148379      0.000      0.000
REMARK  6 active torsions:
REMARK  status: ('A' for Active; 'I' for Inactive)
REMARK    1  A    between atoms: C2_2  and  C3_4 
REMARK    2  A    between atoms: C7_10  and  C8_11 
REMARK    3  A    between atoms: C8_11  and  S3_13 
REMARK    4  A    between atoms: S3_13  and  C9_14 
REMARK    5  A    between atoms: C9_14  and  C10_15 
REMARK    6  A    between atoms: C10_15  and  N2_16 
ROOT
HETATM    1  C3  UNL     1      26.235  53.553  -3.190  1.00  0.00     0.054 A 
HETATM    2  C4  UNL     1      25.934  54.892  -2.903  1.00  0.00     0.102 A 
HETATM    3  N1  UNL     1      25.358  55.878  -3.791  1.00  0.00    -0.093 NA
HETATM    4  S1  UNL     1      26.396  55.090  -1.289  1.00  0.00    -0.078 SA
HETATM    5  C5  UNL     1      26.960  53.536  -0.963  1.00  0.00    -0.006 A 
HETATM    6  C6  UNL     1      27.541  52.968   0.323  1.00  0.00     0.057 C 
HETATM    7  C7  UNL     1      26.773  52.862  -2.156  1.00  0.00     0.021 A 
ENDROOT
BRANCH   7   8
HETATM    8  C8  UNL     1      27.197  51.420  -2.158  1.00  0.00     0.080 C 
HETATM    9  S2  UNL     1      28.628  50.947  -2.760  1.00  0.00    -0.072 SA
BRANCH   8  10
HETATM   10  S3  UNL     1      26.060  50.214  -1.551  1.00  0.00    -0.116 SA
BRANCH  10  11
HETATM   11  C9  UNL     1      26.633  49.324  -0.101  1.00  0.00     0.110 C 
BRANCH  11  12
HETATM   12  C10 UNL     1      25.787  49.686   1.087  1.00  0.00     0.281 C 
BRANCH  12  13
HETATM   13  N2  UNL     1      26.365  49.222   2.335  1.00  0.00     0.080 N 
HETATM   14  C11 UNL     1      25.282  48.891   3.234  1.00  0.00     0.309 C 
HETATM   15  C12 UNL     1      27.260  50.200   2.891  1.00  0.00     0.309 C 
ENDBRANCH  12  13
ENDBRANCH  11  12
ENDBRANCH  10  11
ENDBRANCH   8  10
ENDBRANCH   7   8
BRANCH   1  16
HETATM   16  C2  UNL     1      25.944  53.054  -4.535  1.00  0.00     0.159 C 
HETATM   17  C1  UNL     1      26.822  53.054  -5.707  1.00  0.00     0.097 C 
HETATM   18  O1  UNL     1      24.788  52.547  -4.749  1.00  0.00    -0.293 OA
ENDBRANCH   1  16
TORSDOF 6
ENDMDL
MODEL 2
REMARK VINA RESULT: -5.815196623      2.902      4.366
REMARK  6 active torsions:
REMARK  status: ('A' for Active; 'I' for Inactive)
REMARK    1  A    between atoms: C2_2  and  C3_4 
REMARK    2  A    between atoms: C7_10  and  C8_11 
REMARK    3  A    between atoms: C8_11  and  S3_13 
REMARK    4  A    between atoms: S3_13  and  C9_14 
REMARK    5  A    between atoms: C9_14  and  C10_15 
REMARK    6  A    between atoms: C10_15  and  N2_16 
ROOT
HETATM    1  C3  UNL     1      26.982  52.076   0.890  1.00  0.00     0.054 A 
HETATM    2  C4  UNL     1      26.980  53.413   1.315  1.00  0.00     0.102 A 
HETATM    3  N1  UNL     1      26.998  53.909   2.672  1.00  0.00    -0.093 NA
HETATM    4  S1  UNL     1      26.952  54.308  -0.120  1.00  0.00    -0.078 SA
HETATM    5  C5  UNL     1      26.941  53.050  -1.240  1.00  0.00    -0.006 A 
HETATM    6  C6  UNL     1      26.917  53.108  -2.760  1.00  0.00     0.057 C 
HETATM    7  C7  UNL     1      26.961  51.912  -0.455  1.00  0.00     0.021 A 
ENDROOT
BRANCH   7   8
HETATM    8  C8  UNL     1      26.956  50.608  -1.204  1.00  0.00     0.080 C 
HETATM    9  S2  UNL     1      28.236  50.109  -2.066  1.00  0.00    -0.072 SA
BRANCH   8  10
HETATM   10  S3  UNL     1      25.477  49.644  -1.191  1.00  0.00    -0.116 SA
BRANCH  10  11
HETATM   11  C9  UNL     1      25.747  47.883  -0.971  1.00  0.00     0.110 C 
BRANCH  11  12
HETATM   12  C10 UNL     1      26.527  47.640   0.290  1.00  0.00     0.281 C 
BRANCH  12  13
HETATM   13  N2  UNL     1      26.095  46.439   0.980  1.00  0.00     0.080 N 
HETATM   14  C11 UNL     1      25.294  45.658   0.063  1.00  0.00     0.309 C 
HETATM   15  C12 UNL     1      25.386  46.758   2.190  1.00  0.00     0.309 C 
ENDBRANCH  12  13
ENDBRANCH  11  12
ENDBRANCH  10  11
ENDBRANCH   8  10
ENDBRANCH   7   8
BRANCH   1  16
HETATM   16  C2  UNL     1      27.009  51.029   1.913  1.00  0.00     0.159 C 
HETATM   17  C1  UNL     1      28.160  50.547   2.679  1.00  0.00     0.097 C 
HETATM   18  O1  UNL     1      25.908  50.443   2.198  1.00  0.00    -0.293 OA
ENDBRANCH   1  16
TORSDOF 6
ENDMDL
MODEL 3
REMARK VINA RESULT: -5.660486265      1.235      1.595
REMARK  6 active torsions:
REMARK  status: ('A' for Active; 'I' for Inactive)
REMARK    1  A    between atoms: C2_2  and  C3_4 
REMARK    2  A    between atoms: C7_10  and  C8_11 
REMARK    3  A    between atoms: C8_11  and  S3_13 
REMARK    4  A    between atoms: S3_13  and  C9_14 
REMARK    5  A    between atoms: C9_14  and  C10_15 
REMARK    6  A    between atoms: C10_15  and  N2_16 
ROOT
HETATM    1  C3  UNL     1      26.297  53.480  -3.168  1.00  0.00     0.054 A 
HETATM    2  C4  UNL     1      25.974  54.802  -2.827  1.00  0.00     0.102 A 
HETATM    3  N1  UNL     1      25.408  55.821  -3.681  1.00  0.00    -0.093 NA
HETATM    4  S1  UNL     1      26.397  54.928  -1.195  1.00  0.00    -0.078 SA
HETATM    5  C5  UNL     1      26.971  53.366  -0.927  1.00  0.00    -0.006 A 
HETATM    6  C6  UNL     1      27.529  52.745   0.344  1.00  0.00     0.057 C 
HETATM    7  C7  UNL     1      26.818  52.747  -2.155  1.00  0.00     0.021 A 
ENDROOT
BRANCH   7   8
HETATM    8  C8  UNL     1      27.259  51.311  -2.214  1.00  0.00     0.080 C 
HETATM    9  S2  UNL     1      28.700  50.880  -2.824  1.00  0.00    -0.072 SA
BRANCH   8  10
HETATM   10  S3  UNL     1      26.131  50.069  -1.666  1.00  0.00    -0.116 SA
BRANCH  10  11
HETATM   11  C9  UNL     1      26.858  48.841  -0.577  1.00  0.00     0.110 C 
BRANCH  11  12
HETATM   12  C10 UNL     1      25.854  48.420   0.460  1.00  0.00     0.281 C 
BRANCH  12  13
HETATM   13  N2  UNL     1      25.948  47.007   0.773  1.00  0.00     0.080 N 
HETATM   14  C11 UNL     1      25.285  46.270  -0.280  1.00  0.00     0.309 C 
HETATM   15  C12 UNL     1      25.398  46.722   2.070  1.00  0.00     0.309 C 
ENDBRANCH  12  13
ENDBRANCH  11  12
ENDBRANCH  10  11
ENDBRANCH   8  10
ENDBRANCH   7   8
BRANCH   1  16
HETATM   16  C2  UNL     1      26.042  53.041  -4.541  1.00  0.00     0.159 C 
HETATM   17  C1  UNL     1      26.947  53.102  -5.690  1.00  0.00     0.097 C 
HETATM   18  O1  UNL     1      24.896  52.535  -4.805  1.00  0.00    -0.293 OA
ENDBRANCH   1  16
TORSDOF 6
ENDMDL
MODEL 4
REMARK VINA RESULT: -5.644261050      0.845      1.089
REMARK  6 active torsions:
REMARK  status: ('A' for Active; 'I' for Inactive)
REMARK    1  A    between atoms: C2_2  and  C3_4 
REMARK    2  A    between atoms: C7_10  and  C8_11 
REMARK    3  A    between atoms: C8_11  and  S3_13 
REMARK    4  A    between atoms: S3_13  and  C9_14 
REMARK    5  A    between atoms: C9_14  and  C10_15 
REMARK    6  A    between atoms: C10_15  and  N2_16 
ROOT
HETATM    1  C3  UNL     1      26.274  53.480  -3.150  1.00  0.00     0.054 A 
HETATM    2  C4  UNL     1      25.956  54.800  -2.797  1.00  0.00     0.102 A 
HETATM    3  N1  UNL     1      25.378  55.824  -3.637  1.00  0.00    -0.093 NA
HETATM    4  S1  UNL     1      26.402  54.918  -1.170  1.00  0.00    -0.078 SA
HETATM    5  C5  UNL     1      26.980  53.355  -0.920  1.00  0.00    -0.006 A 
HETATM    6  C6  UNL     1      27.556  52.727   0.340  1.00  0.00     0.057 C 
HETATM    7  C7  UNL     1      26.810  52.742  -2.148  1.00  0.00     0.021 A 
ENDROOT
BRANCH   7   8
HETATM    8  C8  UNL     1      27.250  51.306  -2.221  1.00  0.00     0.080 C 
HETATM    9  S2  UNL     1      28.685  50.880  -2.848  1.00  0.00    -0.072 SA
BRANCH   8  10
HETATM   10  S3  UNL     1      26.128  50.060  -1.672  1.00  0.00    -0.116 SA
BRANCH  10  11
HETATM   11  C9  UNL     1      26.895  48.740  -0.727  1.00  0.00     0.110 C 
BRANCH  11  12
HETATM   12  C10 UNL     1      26.758  49.019   0.743  1.00  0.00     0.281 C 
BRANCH  12  13
HETATM   13  N2  UNL     1      25.691  48.247   1.351  1.00  0.00     0.080 N 
HETATM   14  C11 UNL     1      25.582  48.647   2.737  1.00  0.00     0.309 C 
HETATM   15  C12 UNL     1      25.919  46.835   1.205  1.00  0.00     0.309 C 
ENDBRANCH  12  13
ENDBRANCH  11  12
ENDBRANCH  10  11
ENDBRANCH   8  10
ENDBRANCH   7   8
BRANCH   1  16
HETATM   16  C2  UNL     1      26.000  53.049  -4.522  1.00  0.00     0.159 C 
HETATM   17  C1  UNL     1      26.879  53.143  -5.689  1.00  0.00     0.097 C 
HETATM   18  O1  UNL     1      24.861  52.520  -4.766  1.00  0.00    -0.293 OA
ENDBRANCH   1  16
TORSDOF 6
ENDMDL
MODEL 5
REMARK VINA RESULT: -5.496125649      2.485      5.981
REMARK  6 active torsions:
REMARK  status: ('A' for Active; 'I' for Inactive)
REMARK    1  A    between atoms: C2_2  and  C3_4 
REMARK    2  A    between atoms: C7_10  and  C8_11 
REMARK    3  A    between atoms: C8_11  and  S3_13 
REMARK    4  A    between atoms: S3_13  and  C9_14 
REMARK    5  A    between atoms: C9_14  and  C10_15 
REMARK    6  A    between atoms: C10_15  and  N2_16 
ROOT
HETATM    1  C3  UNL     1      27.088  52.101   0.596  1.00  0.00     0.054 A 
HETATM    2  C4  UNL     1      26.884  51.747   1.938  1.00  0.00     0.102 A 
HETATM    3  N1  UNL     1      26.939  52.609   3.096  1.00  0.00    -0.093 NA
HETATM    4  S1  UNL     1      26.557  50.089   1.889  1.00  0.00    -0.078 SA
HETATM    5  C5  UNL     1      26.673  49.825   0.229  1.00  0.00    -0.006 A 
HETATM    6  C6  UNL     1      26.495  48.537  -0.560  1.00  0.00     0.057 C 
HETATM    7  C7  UNL     1      26.973  51.075  -0.281  1.00  0.00     0.021 A 
ENDROOT
BRANCH   7   8
HETATM    8  C8  UNL     1      27.138  51.142  -1.775  1.00  0.00     0.080 C 
HETATM    9  S2  UNL     1      28.588  50.989  -2.486  1.00  0.00    -0.072 SA
BRANCH   8  10
HETATM   10  S3  UNL     1      25.709  51.470  -2.758  1.00  0.00    -0.116 SA
BRANCH  10  11
HETATM   11  C9  UNL     1      26.071  51.941  -4.452  1.00  0.00     0.110 C 
BRANCH  11  12
HETATM   12  C10 UNL     1      26.424  53.400  -4.512  1.00  0.00     0.281 C 
BRANCH  12  13
HETATM   13  N2  UNL     1      25.267  54.235  -4.773  1.00  0.00     0.080 N 
HETATM   14  C11 UNL     1      24.851  54.009  -6.139  1.00  0.00     0.309 C 
HETATM   15  C12 UNL     1      25.551  55.619  -4.508  1.00  0.00     0.309 C 
ENDBRANCH  12  13
ENDBRANCH  11  12
ENDBRANCH  10  11
ENDBRANCH   8  10
ENDBRANCH   7   8
BRANCH   1  16
HETATM   16  C2  UNL     1      27.394  53.500   0.291  1.00  0.00     0.159 C 
HETATM   17  C1  UNL     1      26.724  54.381  -0.667  1.00  0.00     0.097 C 
HETATM   18  O1  UNL     1      28.359  54.053   0.924  1.00  0.00    -0.293 OA
ENDBRANCH   1  16
TORSDOF 6
ENDMDL
