MODEL 1
REMARK VINA RESULT: -8.656702603      0.000      0.000
REMARK  7 active torsions:
REMARK  status: ('A' for Active; 'I' for Inactive)
REMARK    1  A    between atoms: C5_6  and  C6_7 
REMARK    2  A    between atoms: C7_8  and  C8_9 
REMARK    3  A    between atoms: C8_9  and  C9_10 
REMARK    4  A    between atoms: C9_10  and  C10_11 
REMARK    5  A    between atoms: N1_13  and  O2_15 
REMARK    6  A    between atoms: C13_20  and  C14_21 
REMARK    7  A    between atoms: C14_21  and  C15_22 
ROOT
HETATM    1  C1  UNL     1      26.856  49.641   2.975  1.00  0.00     0.049 C 
HETATM    2  C2  UNL     1      26.849  50.744   1.975  1.00  0.00    -0.042 C 
HETATM    3  C3  UNL     1      27.110  51.987   2.415  1.00  0.00     0.061 C 
HETATM    4  C4  UNL     1      27.172  53.247   1.642  1.00  0.00     0.182 C 
HETATM    5  O1  UNL     1      26.771  54.250   2.282  1.00  0.00    -0.290 OA
HETATM    6  C5  UNL     1      27.630  53.468   0.270  1.00  0.00     0.228 C 
HETATM    7  O3  UNL     1      28.009  52.306  -0.448  1.00  0.00    -0.300 OA
HETATM    8  C12 UNL     1      27.415  51.039  -0.524  1.00  0.00     0.294 C 
HETATM    9  O4  UNL     1      27.555  50.422  -1.568  1.00  0.00    -0.259 OA
HETATM   10  C13 UNL     1      26.612  50.387   0.589  1.00  0.00     0.045 C 
ENDROOT
BRANCH   6  11
HETATM   11  C6  UNL     1      26.531  54.113  -0.541  1.00  0.00     0.009 C 
HETATM   12  C7  UNL     1      26.598  54.234  -1.843  1.00  0.00    -0.027 C 
BRANCH  12  13
HETATM   13  C8  UNL     1      25.637  54.821  -2.762  1.00  0.00     0.032 C 
BRANCH  13  14
HETATM   14  C9  UNL     1      26.064  55.783  -3.786  1.00  0.00     0.058 C 
BRANCH  14  15
HETATM   15  C10 UNL     1      25.892  57.206  -3.513  1.00  0.00     0.006 C 
HETATM   16  C11 UNL     1      26.045  58.217  -4.616  1.00  0.00     0.065 C 
HETATM   17  N1  UNL     1      25.643  57.709  -2.352  1.00  0.00    -0.278 N 
ATOM     18  H1  UNL     1      25.562  57.061  -1.568  1.00  0.00     0.193 HD
BRANCH  17  19
HETATM   19  O2  UNL     1      25.482  59.025  -2.088  1.00  0.00    -0.290 OA
ATOM     20  H2  UNL     1      25.002  59.383  -1.350  1.00  0.00     0.244 HD
ENDBRANCH  17  19
ENDBRANCH  14  15
ENDBRANCH  13  14
ENDBRANCH  12  13
ENDBRANCH   6  11
BRANCH  10  21
HETATM   21  C14 UNL     1      25.690  49.606   0.209  1.00  0.00     0.020 C 
BRANCH  21  22
HETATM   22  C15 UNL     1      25.389  48.226  -0.058  1.00  0.00    -0.087 C 
HETATM   23  C16 UNL     1      26.012  47.101   0.614  1.00  0.00     0.043 C 
HETATM   24  C17 UNL     1      25.258  47.977  -1.564  1.00  0.00     0.043 C 
ENDBRANCH  21  22
ENDBRANCH  10  21
TORSDOF 7
ENDMDL
MODEL 2
REMARK VINA RESULT: -8.590509387      1.302      1.573
REMARK  7 active torsions:
REMARK  status: ('A' for Active; 'I' for Inactive)
REMARK    1  A    between atoms: C5_6  and  C6_7 
REMARK    2  A    between atoms: C7_8  and  C8_9 
REMARK    3  A    between atoms: C8_9  and  C9_10 
REMARK    4  A    between atoms: C9_10  and  C10_11 
REMARK    5  A    between atoms: N1_13  and  O2_15 
REMARK    6  A    between atoms: C13_20  and  C14_21 
REMARK    7  A    between atoms: C14_21  and  C15_22 
ROOT
HETATM    1  C1  UNL     1      25.933  48.926   3.609  1.00  0.00     0.049 C 
HETATM    2  C2  UNL     1      26.199  50.173   2.840  1.00  0.00    -0.042 C 
HETATM    3  C3  UNL     1      26.427  51.299   3.537  1.00  0.00     0.061 C 
HETATM    4  C4  UNL     1      26.719  52.656   3.029  1.00  0.00     0.182 C 
HETATM    5  O1  UNL     1      26.246  53.574   3.744  1.00  0.00    -0.290 OA
HETATM    6  C5  UNL     1      27.469  53.057   1.838  1.00  0.00     0.228 C 
HETATM    7  O3  UNL     1      27.929  51.997   1.015  1.00  0.00    -0.300 OA
HETATM    8  C12 UNL     1      27.296  50.818   0.598  1.00  0.00     0.294 C 
HETATM    9  O4  UNL     1      27.621  50.369  -0.490  1.00  0.00    -0.259 OA
HETATM   10  C13 UNL     1      26.242  50.069   1.394  1.00  0.00     0.045 C 
ENDROOT
BRANCH   6  11
HETATM   11  C6  UNL     1      26.603  53.921   0.951  1.00  0.00     0.009 C 
HETATM   12  C7  UNL     1      27.011  54.363  -0.212  1.00  0.00    -0.027 C 
BRANCH  12  13
HETATM   13  C8  UNL     1      26.309  55.194  -1.176  1.00  0.00     0.032 C 
BRANCH  13  14
HETATM   14  C9  UNL     1      25.832  54.634  -2.447  1.00  0.00     0.058 C 
BRANCH  14  15
HETATM   15  C10 UNL     1      25.634  55.542  -3.572  1.00  0.00     0.006 C 
HETATM   16  C11 UNL     1      25.994  55.113  -4.968  1.00  0.00     0.065 C 
HETATM   17  N1  UNL     1      25.193  56.750  -3.476  1.00  0.00    -0.278 N 
ATOM     18  H1  UNL     1      24.966  57.093  -2.543  1.00  0.00     0.193 HD
BRANCH  17  19
HETATM   19  O2  UNL     1      25.006  57.599  -4.511  1.00  0.00    -0.290 OA
ATOM     20  H2  UNL     1      24.618  58.464  -4.450  1.00  0.00     0.244 HD
ENDBRANCH  17  19
ENDBRANCH  14  15
ENDBRANCH  13  14
ENDBRANCH  12  13
ENDBRANCH   6  11
BRANCH  10  21
HETATM   21  C14 UNL     1      25.380  49.446   0.705  1.00  0.00     0.020 C 
BRANCH  21  22
HETATM   22  C15 UNL     1      25.135  48.209   0.015  1.00  0.00    -0.087 C 
HETATM   23  C16 UNL     1      25.563  46.904   0.483  1.00  0.00     0.043 C 
HETATM   24  C17 UNL     1      25.370  48.367  -1.491  1.00  0.00     0.043 C 
ENDBRANCH  21  22
ENDBRANCH  10  21
TORSDOF 7
ENDMDL
MODEL 3
REMARK VINA RESULT: -8.561630089      2.368      2.749
REMARK  7 active torsions:
REMARK  status: ('A' for Active; 'I' for Inactive)
REMARK    1  A    between atoms: C5_6  and  C6_7 
REMARK    2  A    between atoms: C7_8  and  C8_9 
REMARK    3  A    between atoms: C8_9  and  C9_10 
REMARK    4  A    between atoms: C9_10  and  C10_11 
REMARK    5  A    between atoms: N1_13  and  O2_15 
REMARK    6  A    between atoms: C13_20  and  C14_21 
REMARK    7  A    between atoms: C14_21  and  C15_22 
ROOT
HETATM    1  C1  UNL     1      26.171  49.217   3.589  1.00  0.00     0.049 C 
HETATM    2  C2  UNL     1      26.390  50.407   2.723  1.00  0.00    -0.042 C 
HETATM    3  C3  UNL     1      26.641  51.581   3.328  1.00  0.00     0.061 C 
HETATM    4  C4  UNL     1      26.899  52.901   2.712  1.00  0.00     0.182 C 
HETATM    5  O1  UNL     1      26.452  53.865   3.383  1.00  0.00    -0.290 OA
HETATM    6  C5  UNL     1      27.588  53.220   1.461  1.00  0.00     0.228 C 
HETATM    7  O3  UNL     1      28.018  52.107   0.695  1.00  0.00    -0.300 OA
HETATM    8  C12 UNL     1      27.376  50.899   0.392  1.00  0.00     0.294 C 
HETATM    9  O4  UNL     1      27.654  50.375  -0.676  1.00  0.00    -0.259 OA
HETATM   10  C13 UNL     1      26.366  50.202   1.287  1.00  0.00     0.045 C 
ENDROOT
BRANCH   6  11
HETATM   11  C6  UNL     1      26.676  54.015   0.558  1.00  0.00     0.009 C 
HETATM   12  C7  UNL     1      26.929  54.194  -0.714  1.00  0.00    -0.027 C 
BRANCH  12  13
HETATM   13  C8  UNL     1      26.161  54.923  -1.710  1.00  0.00     0.032 C 
BRANCH  13  14
HETATM   14  C9  UNL     1      26.106  54.464  -3.103  1.00  0.00     0.058 C 
BRANCH  14  15
HETATM   15  C10 UNL     1      25.759  53.070  -3.359  1.00  0.00     0.006 C 
HETATM   16  C11 UNL     1      26.837  52.055  -3.626  1.00  0.00     0.065 C 
HETATM   17  N1  UNL     1      24.557  52.608  -3.417  1.00  0.00    -0.278 N 
ATOM     18  H1  UNL     1      23.794  53.268  -3.273  1.00  0.00     0.193 HD
BRANCH  17  19
HETATM   19  O2  UNL     1      24.226  51.318  -3.653  1.00  0.00    -0.290 OA
ATOM     20  H2  UNL     1      23.356  50.948  -3.557  1.00  0.00     0.244 HD
ENDBRANCH  17  19
ENDBRANCH  14  15
ENDBRANCH  13  14
ENDBRANCH  12  13
ENDBRANCH   6  11
BRANCH  10  21
HETATM   21  C14 UNL     1      25.478  49.528   0.685  1.00  0.00     0.020 C 
BRANCH  21  22
HETATM   22  C15 UNL     1      25.194  48.229   0.139  1.00  0.00    -0.087 C 
HETATM   23  C16 UNL     1      25.698  46.980   0.677  1.00  0.00     0.043 C 
HETATM   24  C17 UNL     1      25.271  48.251  -1.391  1.00  0.00     0.043 C 
ENDBRANCH  21  22
ENDBRANCH  10  21
TORSDOF 7
ENDMDL
MODEL 4
REMARK VINA RESULT: -8.428594790      2.367      2.853
REMARK  7 active torsions:
REMARK  status: ('A' for Active; 'I' for Inactive)
REMARK    1  A    between atoms: C5_6  and  C6_7 
REMARK    2  A    between atoms: C7_8  and  C8_9 
REMARK    3  A    between atoms: C8_9  and  C9_10 
REMARK    4  A    between atoms: C9_10  and  C10_11 
REMARK    5  A    between atoms: N1_13  and  O2_15 
REMARK    6  A    between atoms: C13_20  and  C14_21 
REMARK    7  A    between atoms: C14_21  and  C15_22 
ROOT
HETATM    1  C1  UNL     1      26.195  49.283   3.246  1.00  0.00     0.049 C 
HETATM    2  C2  UNL     1      26.427  50.490   2.407  1.00  0.00    -0.042 C 
HETATM    3  C3  UNL     1      26.673  51.652   3.038  1.00  0.00     0.061 C 
HETATM    4  C4  UNL     1      26.939  52.983   2.452  1.00  0.00     0.182 C 
HETATM    5  O1  UNL     1      26.486  53.934   3.136  1.00  0.00    -0.290 OA
HETATM    6  C5  UNL     1      27.645  53.325   1.217  1.00  0.00     0.228 C 
HETATM    7  O3  UNL     1      28.083  52.228   0.434  1.00  0.00    -0.300 OA
HETATM    8  C12 UNL     1      27.444  51.027   0.098  1.00  0.00     0.294 C 
HETATM    9  O4  UNL     1      27.734  50.524  -0.976  1.00  0.00    -0.259 OA
HETATM   10  C13 UNL     1      26.421  50.314   0.967  1.00  0.00     0.045 C 
ENDROOT
BRANCH   6  11
HETATM   11  C6  UNL     1      26.745  54.140   0.319  1.00  0.00     0.009 C 
HETATM   12  C7  UNL     1      26.890  54.168  -0.982  1.00  0.00    -0.027 C 
BRANCH  12  13
HETATM   13  C8  UNL     1      26.117  54.890  -1.978  1.00  0.00     0.032 C 
BRANCH  13  14
HETATM   14  C9  UNL     1      25.802  54.280  -3.276  1.00  0.00     0.058 C 
BRANCH  14  15
HETATM   15  C10 UNL     1      26.000  52.844  -3.431  1.00  0.00     0.006 C 
HETATM   16  C11 UNL     1      24.847  51.893  -3.257  1.00  0.00     0.065 C 
HETATM   17  N1  UNL     1      27.133  52.278  -3.680  1.00  0.00    -0.278 N 
ATOM     18  H1  UNL     1      27.948  52.883  -3.774  1.00  0.00     0.193 HD
BRANCH  17  19
HETATM   19  O2  UNL     1      27.327  50.948  -3.825  1.00  0.00    -0.290 OA
ATOM     20  H2  UNL     1      28.166  50.528  -3.974  1.00  0.00     0.244 HD
ENDBRANCH  17  19
ENDBRANCH  14  15
ENDBRANCH  13  14
ENDBRANCH  12  13
ENDBRANCH   6  11
BRANCH  10  21
HETATM   21  C14 UNL     1      25.540  49.653   0.341  1.00  0.00     0.020 C 
BRANCH  21  22
HETATM   22  C15 UNL     1      25.253  48.361  -0.218  1.00  0.00    -0.087 C 
HETATM   23  C16 UNL     1      25.792  47.109   0.280  1.00  0.00     0.043 C 
HETATM   24  C17 UNL     1      25.275  48.409  -1.749  1.00  0.00     0.043 C 
ENDBRANCH  21  22
ENDBRANCH  10  21
TORSDOF 7
ENDMDL
MODEL 5
REMARK VINA RESULT: -8.327449272      2.589      4.086
REMARK  7 active torsions:
REMARK  status: ('A' for Active; 'I' for Inactive)
REMARK    1  A    between atoms: C5_6  and  C6_7 
REMARK    2  A    between atoms: C7_8  and  C8_9 
REMARK    3  A    between atoms: C8_9  and  C9_10 
REMARK    4  A    between atoms: C9_10  and  C10_11 
REMARK    5  A    between atoms: N1_13  and  O2_15 
REMARK    6  A    between atoms: C13_20  and  C14_21 
REMARK    7  A    between atoms: C14_21  and  C15_22 
ROOT
HETATM    1  C1  UNL     1      24.665  45.646   0.646  1.00  0.00     0.049 C 
HETATM    2  C2  UNL     1      25.231  47.012   0.828  1.00  0.00    -0.042 C 
HETATM    3  C3  UNL     1      25.346  47.477   2.084  1.00  0.00     0.061 C 
HETATM    4  C4  UNL     1      25.874  48.781   2.541  1.00  0.00     0.182 C 
HETATM    5  O1  UNL     1      25.295  49.228   3.563  1.00  0.00    -0.290 OA
HETATM    6  C5  UNL     1      26.953  49.591   1.976  1.00  0.00     0.228 C 
HETATM    7  O3  UNL     1      27.537  49.093   0.784  1.00  0.00    -0.300 OA
HETATM    8  C12 UNL     1      26.954  48.521  -0.355  1.00  0.00     0.294 C 
HETATM    9  O4  UNL     1      27.531  48.689  -1.418  1.00  0.00    -0.259 OA
HETATM   10  C13 UNL     1      25.665  47.718  -0.362  1.00  0.00     0.045 C 
ENDROOT
BRANCH   6  11
HETATM   11  C6  UNL     1      26.438  50.970   1.637  1.00  0.00     0.009 C 
HETATM   12  C7  UNL     1      27.145  52.053   1.841  1.00  0.00    -0.027 C 
BRANCH  12  13
HETATM   13  C8  UNL     1      26.801  53.439   1.572  1.00  0.00     0.032 C 
BRANCH  13  14
HETATM   14  C9  UNL     1      27.387  54.154   0.431  1.00  0.00     0.058 C 
BRANCH  14  15
HETATM   15  C10 UNL     1      26.694  54.094  -0.852  1.00  0.00     0.006 C 
HETATM   16  C11 UNL     1      26.994  52.988  -1.827  1.00  0.00     0.065 C 
HETATM   17  N1  UNL     1      25.833  54.960  -1.266  1.00  0.00    -0.278 N 
ATOM     18  H1  UNL     1      25.623  55.744  -0.649  1.00  0.00     0.193 HD
BRANCH  17  19
HETATM   19  O2  UNL     1      25.186  54.913  -2.453  1.00  0.00    -0.290 OA
ATOM     20  H2  UNL     1      25.197  55.597  -3.112  1.00  0.00     0.244 HD
ENDBRANCH  17  19
ENDBRANCH  14  15
ENDBRANCH  13  14
ENDBRANCH  12  13
ENDBRANCH   6  11
BRANCH  10  21
HETATM   21  C14 UNL     1      24.981  47.795  -1.426  1.00  0.00     0.020 C 
BRANCH  21  22
HETATM   22  C15 UNL     1      24.739  47.149  -2.686  1.00  0.00    -0.087 C 
HETATM   23  C16 UNL     1      23.424  46.859  -3.226  1.00  0.00     0.043 C 
HETATM   24  C17 UNL     1      25.700  45.972  -2.891  1.00  0.00     0.043 C 
ENDBRANCH  21  22
ENDBRANCH  10  21
TORSDOF 7
ENDMDL
