MODEL 1
REMARK VINA RESULT: -6.437434009      0.000      0.000
REMARK  19 active torsions:
REMARK  status: ('A' for Active; 'I' for Inactive)
REMARK    1  A    between atoms: O1_2  and  C2_3 
REMARK    2  A    between atoms: C2_3  and  C3_4 
REMARK    3  A    between atoms: C4_5  and  C5_6 
REMARK    4  A    between atoms: C5_6  and  N1_7 
REMARK    5  A    between atoms: N1_7  and  C6_10 
REMARK    6  A    between atoms: C6_10  and  C7_11 
REMARK    7  A    between atoms: C7_11  and  C8_12 
REMARK    8  A    between atoms: C8_12  and  N2_13 
REMARK    9  A    between atoms: N2_13  and  C9_14 
REMARK   10  A    between atoms: C13_20  and  N4_21 
REMARK   11  A    between atoms: N4_21  and  C14_23 
REMARK   12  A    between atoms: C14_23  and  C15_24 
REMARK   13  A    between atoms: C15_24  and  N5_25 
REMARK   14  A    between atoms: N5_25  and  C16_27 
REMARK   15  A    between atoms: C16_27  and  C17_28 
REMARK   16  A    between atoms: C17_28  and  C18_29 
REMARK   17  A    between atoms: C18_29  and  C19_30 
REMARK   18  A    between atoms: C19_30  and  N6_31 
REMARK   19  A    between atoms: N6_31  and  C20_33 
ROOT
HETATM    1  C9  UNL     1      -8.977  28.294  -3.701  1.00  0.00     0.260 A 
HETATM    2  N3  UNL     1      -7.917  28.413  -2.846  1.00  0.00    -0.320 N 
ATOM      3  H3  UNL     1      -7.832  27.733  -2.090  1.00  0.00     0.169 HD
HETATM    4  C10 UNL     1      -6.996  29.358  -2.942  1.00  0.00     0.013 A 
HETATM    5  C11 UNL     1      -5.839  29.463  -1.991  1.00  0.00     0.068 C 
HETATM    6  C12 UNL     1      -7.082  30.276  -3.938  1.00  0.00     0.073 A 
HETATM    7  C13 UNL     1      -8.145  30.202  -4.840  1.00  0.00     0.106 A 
HETATM    8  N7  UNL     1      -9.025  29.238  -4.687  1.00  0.00    -0.302 N 
ATOM      9  H7  UNL     1      -9.798  29.191  -5.352  1.00  0.00     0.171 HD
ENDROOT
BRANCH   7  10
HETATM   10  N4  UNL     1      -8.159  31.101  -5.753  1.00  0.00    -0.375 N 
ATOM     11  H4  UNL     1      -8.949  31.742  -5.839  1.00  0.00     0.161 HD
BRANCH  10  12
HETATM   12  C14 UNL     1      -7.034  31.188  -6.660  1.00  0.00     0.141 C 
BRANCH  12  13
HETATM   13  C15 UNL     1      -7.269  30.223  -7.764  1.00  0.00     0.138 C 
BRANCH  13  14
HETATM   14  N5  UNL     1      -8.020  30.742  -8.902  1.00  0.00    -0.398 N 
ATOM     15  H5  UNL     1      -8.704  30.208  -9.439  1.00  0.00     0.158 HD
BRANCH  14  16
HETATM   16  C16 UNL     1      -7.669  32.082  -9.158  1.00  0.00     0.079 C 
BRANCH  16  17
HETATM   17  C17 UNL     1      -8.362  32.866 -10.180  1.00  0.00    -0.008 C 
BRANCH  17  18
HETATM   18  C18 UNL     1      -9.810  33.075 -10.191  1.00  0.00     0.048 C 
BRANCH  18  19
HETATM   19  C19 UNL     1     -10.545  33.267  -8.912  1.00  0.00     0.126 C 
BRANCH  19  20
HETATM   20  N6  UNL     1     -11.354  32.069  -8.696  1.00  0.00    -0.368 N 
ATOM     21  H6  UNL     1     -11.983  31.721  -9.419  1.00  0.00     0.161 HD
BRANCH  20  22
HETATM   22  C20 UNL     1     -11.234  31.410  -7.453  1.00  0.00     0.348 C 
HETATM   23  O2  UNL     1     -10.658  30.322  -7.343  1.00  0.00    -0.284 OA
ENDBRANCH  20  22
ENDBRANCH  19  20
ENDBRANCH  18  19
ENDBRANCH  17  18
ENDBRANCH  16  17
ENDBRANCH  14  16
ENDBRANCH  13  14
ENDBRANCH  12  13
ENDBRANCH  10  12
ENDBRANCH   7  10
BRANCH   1  24
HETATM   24  N2  UNL     1      -9.776  27.419  -3.551  1.00  0.00    -0.388 NA
BRANCH  24  25
HETATM   25  C8  UNL     1     -10.580  26.394  -3.303  1.00  0.00     0.160 C 
BRANCH  25  26
HETATM   26  C7  UNL     1     -11.843  26.249  -4.152  1.00  0.00     0.087 C 
BRANCH  26  27
HETATM   27  C6  UNL     1     -13.006  26.893  -3.450  1.00  0.00     0.239 C 
BRANCH  27  28
HETATM   28  N1  UNL     1     -12.666  27.555  -2.223  1.00  0.00    -0.065 N 
ATOM     29  H12 UNL     1     -11.657  27.644  -2.109  1.00  0.00     0.278 HD
ATOM     30  H11 UNL     1     -12.863  26.970  -1.412  1.00  0.00     0.278 HD
BRANCH  28  31
HETATM   31  C5  UNL     1     -13.336  28.852  -2.129  1.00  0.00     0.325 C 
BRANCH  31  32
HETATM   32  C4  UNL     1     -14.700  28.658  -1.581  1.00  0.00    -0.077 C 
HETATM   33  C3  UNL     1     -15.804  28.516  -1.121  1.00  0.00    -0.079 C 
BRANCH  33  34
HETATM   34  C2  UNL     1     -17.150  28.358  -0.538  1.00  0.00     0.260 C 
BRANCH  34  35
HETATM   35  O1  UNL     1     -17.990  29.417  -0.866  1.00  0.00    -0.384 OA
HETATM   36  C1  UNL     1     -18.466  29.163  -2.152  1.00  0.00     0.202 C 
ENDBRANCH  34  35
ENDBRANCH  33  34
ENDBRANCH  31  32
ENDBRANCH  28  31
ENDBRANCH  27  28
ENDBRANCH  26  27
ENDBRANCH  25  26
ENDBRANCH  24  25
ENDBRANCH   1  24
TORSDOF 19
ENDMDL
MODEL 2
REMARK VINA RESULT: -6.394460425      2.692      8.511
REMARK  19 active torsions:
REMARK  status: ('A' for Active; 'I' for Inactive)
REMARK    1  A    between atoms: O1_2  and  C2_3 
REMARK    2  A    between atoms: C2_3  and  C3_4 
REMARK    3  A    between atoms: C4_5  and  C5_6 
REMARK    4  A    between atoms: C5_6  and  N1_7 
REMARK    5  A    between atoms: N1_7  and  C6_10 
REMARK    6  A    between atoms: C6_10  and  C7_11 
REMARK    7  A    between atoms: C7_11  and  C8_12 
REMARK    8  A    between atoms: C8_12  and  N2_13 
REMARK    9  A    between atoms: N2_13  and  C9_14 
REMARK   10  A    between atoms: C13_20  and  N4_21 
REMARK   11  A    between atoms: N4_21  and  C14_23 
REMARK   12  A    between atoms: C14_23  and  C15_24 
REMARK   13  A    between atoms: C15_24  and  N5_25 
REMARK   14  A    between atoms: N5_25  and  C16_27 
REMARK   15  A    between atoms: C16_27  and  C17_28 
REMARK   16  A    between atoms: C17_28  and  C18_29 
REMARK   17  A    between atoms: C18_29  and  C19_30 
REMARK   18  A    between atoms: C19_30  and  N6_31 
REMARK   19  A    between atoms: N6_31  and  C20_33 
ROOT
HETATM    1  C9  UNL     1      -8.036  29.510  -2.970  1.00  0.00     0.260 A 
HETATM    2  N3  UNL     1      -8.263  30.642  -3.702  1.00  0.00    -0.320 N 
ATOM      3  H3  UNL     1      -7.489  31.295  -3.829  1.00  0.00     0.169 HD
HETATM    4  C10 UNL     1      -9.427  30.939  -4.256  1.00  0.00     0.013 A 
HETATM    5  C11 UNL     1      -9.649  32.189  -5.059  1.00  0.00     0.068 C 
HETATM    6  C12 UNL     1     -10.476  30.090  -4.104  1.00  0.00     0.073 A 
HETATM    7  C13 UNL     1     -10.299  28.919  -3.366  1.00  0.00     0.106 A 
HETATM    8  N7  UNL     1      -9.116  28.684  -2.843  1.00  0.00    -0.302 N 
ATOM      9  H7  UNL     1      -8.997  27.826  -2.306  1.00  0.00     0.171 HD
ENDROOT
BRANCH   7  10
HETATM   10  N4  UNL     1     -11.332  28.167  -3.267  1.00  0.00    -0.375 N 
ATOM     11  H4  UNL     1     -12.215  28.538  -2.915  1.00  0.00     0.161 HD
BRANCH  10  12
HETATM   12  C14 UNL     1     -11.221  26.779  -3.666  1.00  0.00     0.141 C 
BRANCH  12  13
HETATM   13  C15 UNL     1     -12.578  26.309  -4.046  1.00  0.00     0.138 C 
BRANCH  13  14
HETATM   14  N5  UNL     1     -13.671  26.816  -3.223  1.00  0.00    -0.398 N 
ATOM     15  H5  UNL     1     -13.664  26.845  -2.204  1.00  0.00     0.158 HD
BRANCH  14  16
HETATM   16  C16 UNL     1     -14.736  27.260  -4.032  1.00  0.00     0.079 C 
BRANCH  16  17
HETATM   17  C17 UNL     1     -15.846  28.029  -3.469  1.00  0.00    -0.008 C 
BRANCH  17  18
HETATM   18  C18 UNL     1     -16.477  27.712  -2.188  1.00  0.00     0.048 C 
BRANCH  18  19
HETATM   19  C19 UNL     1     -16.244  28.584  -1.006  1.00  0.00     0.126 C 
BRANCH  19  20
HETATM   20  N6  UNL     1     -15.126  28.010  -0.261  1.00  0.00    -0.368 N 
ATOM     21  H6  UNL     1     -15.209  27.105   0.200  1.00  0.00     0.161 HD
BRANCH  20  22
HETATM   22  C20 UNL     1     -13.925  28.752  -0.202  1.00  0.00     0.348 C 
HETATM   23  O2  UNL     1     -13.333  29.119  -1.223  1.00  0.00    -0.284 OA
ENDBRANCH  20  22
ENDBRANCH  19  20
ENDBRANCH  18  19
ENDBRANCH  17  18
ENDBRANCH  16  17
ENDBRANCH  14  16
ENDBRANCH  13  14
ENDBRANCH  12  13
ENDBRANCH  10  12
ENDBRANCH   7  10
BRANCH   1  24
HETATM   24  N2  UNL     1      -6.959  29.308  -2.493  1.00  0.00    -0.388 NA
BRANCH  24  25
HETATM   25  C8  UNL     1      -5.802  28.962  -1.947  1.00  0.00     0.160 C 
BRANCH  25  26
HETATM   26  C7  UNL     1      -5.527  29.404  -0.509  1.00  0.00     0.087 C 
BRANCH  26  27
HETATM   27  C6  UNL     1      -4.632  30.612  -0.509  1.00  0.00     0.239 C 
BRANCH  27  28
HETATM   28  N1  UNL     1      -5.209  31.778  -1.115  1.00  0.00    -0.065 N 
ATOM     29  H12 UNL     1      -5.546  32.439  -0.416  1.00  0.00     0.278 HD
ATOM     30  H11 UNL     1      -6.098  31.567  -1.569  1.00  0.00     0.278 HD
BRANCH  28  31
HETATM   31  C5  UNL     1      -4.266  32.404  -2.040  1.00  0.00     0.325 C 
BRANCH  31  32
HETATM   32  C4  UNL     1      -4.747  32.217  -3.430  1.00  0.00    -0.077 C 
HETATM   33  C3  UNL     1      -5.119  32.073  -4.566  1.00  0.00    -0.079 C 
BRANCH  33  34
HETATM   34  C2  UNL     1      -5.554  31.908  -5.966  1.00  0.00     0.260 C 
BRANCH  34  35
HETATM   35  O1  UNL     1      -6.442  30.847  -6.117  1.00  0.00    -0.384 OA
HETATM   36  C1  UNL     1      -6.950  30.934  -7.412  1.00  0.00     0.202 C 
ENDBRANCH  34  35
ENDBRANCH  33  34
ENDBRANCH  31  32
ENDBRANCH  28  31
ENDBRANCH  27  28
ENDBRANCH  26  27
ENDBRANCH  25  26
ENDBRANCH  24  25
ENDBRANCH   1  24
TORSDOF 19
ENDMDL
MODEL 3
REMARK VINA RESULT: -6.157837938      0.930      1.921
REMARK  19 active torsions:
REMARK  status: ('A' for Active; 'I' for Inactive)
REMARK    1  A    between atoms: O1_2  and  C2_3 
REMARK    2  A    between atoms: C2_3  and  C3_4 
REMARK    3  A    between atoms: C4_5  and  C5_6 
REMARK    4  A    between atoms: C5_6  and  N1_7 
REMARK    5  A    between atoms: N1_7  and  C6_10 
REMARK    6  A    between atoms: C6_10  and  C7_11 
REMARK    7  A    between atoms: C7_11  and  C8_12 
REMARK    8  A    between atoms: C8_12  and  N2_13 
REMARK    9  A    between atoms: N2_13  and  C9_14 
REMARK   10  A    between atoms: C13_20  and  N4_21 
REMARK   11  A    between atoms: N4_21  and  C14_23 
REMARK   12  A    between atoms: C14_23  and  C15_24 
REMARK   13  A    between atoms: C15_24  and  N5_25 
REMARK   14  A    between atoms: N5_25  and  C16_27 
REMARK   15  A    between atoms: C16_27  and  C17_28 
REMARK   16  A    between atoms: C17_28  and  C18_29 
REMARK   17  A    between atoms: C18_29  and  C19_30 
REMARK   18  A    between atoms: C19_30  and  N6_31 
REMARK   19  A    between atoms: N6_31  and  C20_33 
ROOT
HETATM    1  C9  UNL     1      -9.194  28.102  -3.626  1.00  0.00     0.260 A 
HETATM    2  N3  UNL     1      -8.058  28.237  -2.877  1.00  0.00    -0.320 N 
ATOM      3  H3  UNL     1      -7.843  27.507  -2.196  1.00  0.00     0.169 HD
HETATM    4  C10 UNL     1      -7.223  29.257  -2.982  1.00  0.00     0.013 A 
HETATM    5  C11 UNL     1      -5.980  29.378  -2.148  1.00  0.00     0.068 C 
HETATM    6  C12 UNL     1      -7.483  30.243  -3.878  1.00  0.00     0.073 A 
HETATM    7  C13 UNL     1      -8.629  30.157  -4.669  1.00  0.00     0.106 A 
HETATM    8  N7  UNL     1      -9.416  29.116  -4.514  1.00  0.00    -0.302 N 
ATOM      9  H7  UNL     1     -10.251  29.061  -5.097  1.00  0.00     0.171 HD
ENDROOT
BRANCH   7  10
HETATM   10  N4  UNL     1      -8.807  31.123  -5.493  1.00  0.00    -0.375 N 
ATOM     11  H4  UNL     1      -8.311  31.145  -6.385  1.00  0.00     0.161 HD
BRANCH  10  12
HETATM   12  C14 UNL     1      -9.725  32.183  -5.132  1.00  0.00     0.141 C 
BRANCH  12  13
HETATM   13  C15 UNL     1     -10.974  31.982  -5.911  1.00  0.00     0.138 C 
BRANCH  13  14
HETATM   14  N5  UNL     1     -10.803  31.366  -7.222  1.00  0.00    -0.398 N 
ATOM     15  H5  UNL     1     -10.321  30.483  -7.390  1.00  0.00     0.158 HD
BRANCH  14  16
HETATM   16  C16 UNL     1     -11.397  32.159  -8.224  1.00  0.00     0.079 C 
BRANCH  16  17
HETATM   17  C17 UNL     1     -10.649  33.227  -8.888  1.00  0.00    -0.008 C 
BRANCH  17  18
HETATM   18  C18 UNL     1      -9.899  33.034 -10.128  1.00  0.00     0.048 C 
BRANCH  18  19
HETATM   19  C19 UNL     1      -8.413  32.975 -10.099  1.00  0.00     0.126 C 
BRANCH  19  20
HETATM   20  N6  UNL     1      -8.036  31.565 -10.155  1.00  0.00    -0.368 N 
ATOM     21  H6  UNL     1      -8.110  31.033 -11.023  1.00  0.00     0.161 HD
BRANCH  20  22
HETATM   22  C20 UNL     1      -7.565  30.962  -8.968  1.00  0.00     0.348 C 
HETATM   23  O2  UNL     1      -8.300  30.280  -8.246  1.00  0.00    -0.284 OA
ENDBRANCH  20  22
ENDBRANCH  19  20
ENDBRANCH  18  19
ENDBRANCH  17  18
ENDBRANCH  16  17
ENDBRANCH  14  16
ENDBRANCH  13  14
ENDBRANCH  12  13
ENDBRANCH  10  12
ENDBRANCH   7  10
BRANCH   1  24
HETATM   24  N2  UNL     1      -9.907  27.156  -3.474  1.00  0.00    -0.388 NA
BRANCH  24  25
HETATM   25  C8  UNL     1     -10.785  26.168  -3.375  1.00  0.00     0.160 C 
BRANCH  25  26
HETATM   26  C7  UNL     1     -12.053  26.247  -4.227  1.00  0.00     0.087 C 
BRANCH  26  27
HETATM   27  C6  UNL     1     -13.131  26.972  -3.471  1.00  0.00     0.239 C 
BRANCH  27  28
HETATM   28  N1  UNL     1     -12.702  27.545  -2.227  1.00  0.00    -0.065 N 
ATOM     29  H12 UNL     1     -11.685  27.591  -2.164  1.00  0.00     0.278 HD
ATOM     30  H11 UNL     1     -12.876  26.917  -1.443  1.00  0.00     0.278 HD
BRANCH  28  31
HETATM   31  C5  UNL     1     -13.316  28.854  -2.018  1.00  0.00     0.325 C 
BRANCH  31  32
HETATM   32  C4  UNL     1     -14.689  28.670  -1.487  1.00  0.00    -0.077 C 
HETATM   33  C3  UNL     1     -15.801  28.499  -1.058  1.00  0.00    -0.079 C 
BRANCH  33  34
HETATM   34  C2  UNL     1     -17.162  28.265  -0.538  1.00  0.00     0.260 C 
BRANCH  34  35
HETATM   35  O1  UNL     1     -18.018  29.327  -0.817  1.00  0.00    -0.384 OA
HETATM   36  C1  UNL     1     -18.448  29.156  -2.131  1.00  0.00     0.202 C 
ENDBRANCH  34  35
ENDBRANCH  33  34
ENDBRANCH  31  32
ENDBRANCH  28  31
ENDBRANCH  27  28
ENDBRANCH  26  27
ENDBRANCH  25  26
ENDBRANCH  24  25
ENDBRANCH   1  24
TORSDOF 19
ENDMDL
MODEL 4
REMARK VINA RESULT: -6.147819199      2.457      8.893
REMARK  19 active torsions:
REMARK  status: ('A' for Active; 'I' for Inactive)
REMARK    1  A    between atoms: O1_2  and  C2_3 
REMARK    2  A    between atoms: C2_3  and  C3_4 
REMARK    3  A    between atoms: C4_5  and  C5_6 
REMARK    4  A    between atoms: C5_6  and  N1_7 
REMARK    5  A    between atoms: N1_7  and  C6_10 
REMARK    6  A    between atoms: C6_10  and  C7_11 
REMARK    7  A    between atoms: C7_11  and  C8_12 
REMARK    8  A    between atoms: C8_12  and  N2_13 
REMARK    9  A    between atoms: N2_13  and  C9_14 
REMARK   10  A    between atoms: C13_20  and  N4_21 
REMARK   11  A    between atoms: N4_21  and  C14_23 
REMARK   12  A    between atoms: C14_23  and  C15_24 
REMARK   13  A    between atoms: C15_24  and  N5_25 
REMARK   14  A    between atoms: N5_25  and  C16_27 
REMARK   15  A    between atoms: C16_27  and  C17_28 
REMARK   16  A    between atoms: C17_28  and  C18_29 
REMARK   17  A    between atoms: C18_29  and  C19_30 
REMARK   18  A    between atoms: C19_30  and  N6_31 
REMARK   19  A    between atoms: N6_31  and  C20_33 
ROOT
HETATM    1  C9  UNL     1      -8.686  29.706  -3.479  1.00  0.00     0.260 A 
HETATM    2  N3  UNL     1      -8.943  30.239  -4.711  1.00  0.00    -0.320 N 
ATOM      3  H3  UNL     1      -8.179  30.702  -5.203  1.00  0.00     0.169 HD
HETATM    4  C10 UNL     1     -10.126  30.190  -5.302  1.00  0.00     0.013 A 
HETATM    5  C11 UNL     1     -10.382  30.782  -6.658  1.00  0.00     0.068 C 
HETATM    6  C12 UNL     1     -11.163  29.580  -4.672  1.00  0.00     0.073 A 
HETATM    7  C13 UNL     1     -10.955  29.018  -3.412  1.00  0.00     0.106 A 
HETATM    8  N7  UNL     1      -9.755  29.102  -2.882  1.00  0.00    -0.302 N 
ATOM      9  H7  UNL     1      -9.613  28.687  -1.961  1.00  0.00     0.171 HD
ENDROOT
BRANCH   7  10
HETATM   10  N4  UNL     1     -11.979  28.459  -2.880  1.00  0.00    -0.375 N 
ATOM     11  H4  UNL     1     -12.570  28.971  -2.224  1.00  0.00     0.161 HD
BRANCH  10  12
HETATM   12  C14 UNL     1     -12.280  27.086  -3.228  1.00  0.00     0.141 C 
BRANCH  12  13
HETATM   13  C15 UNL     1     -13.724  27.013  -3.566  1.00  0.00     0.138 C 
BRANCH  13  14
HETATM   14  N5  UNL     1     -14.436  28.286  -3.559  1.00  0.00    -0.398 N 
ATOM     15  H5  UNL     1     -14.027  29.178  -3.280  1.00  0.00     0.158 HD
BRANCH  14  16
HETATM   16  C16 UNL     1     -15.765  28.114  -3.992  1.00  0.00     0.079 C 
BRANCH  16  17
HETATM   17  C17 UNL     1     -16.876  28.098  -3.040  1.00  0.00    -0.008 C 
BRANCH  17  18
HETATM   18  C18 UNL     1     -16.776  28.615  -1.676  1.00  0.00     0.048 C 
BRANCH  18  19
HETATM   19  C19 UNL     1     -16.596  27.679  -0.535  1.00  0.00     0.126 C 
BRANCH  19  20
HETATM   20  N6  UNL     1     -15.165  27.617  -0.249  1.00  0.00    -0.368 N 
ATOM     21  H6  UNL     1     -14.664  26.729  -0.252  1.00  0.00     0.161 HD
BRANCH  20  22
HETATM   22  C20 UNL     1     -14.497  28.830   0.032  1.00  0.00     0.348 C 
HETATM   23  O2  UNL     1     -13.556  29.233  -0.661  1.00  0.00    -0.284 OA
ENDBRANCH  20  22
ENDBRANCH  19  20
ENDBRANCH  18  19
ENDBRANCH  17  18
ENDBRANCH  16  17
ENDBRANCH  14  16
ENDBRANCH  13  14
ENDBRANCH  12  13
ENDBRANCH  10  12
ENDBRANCH   7  10
BRANCH   1  24
HETATM   24  N2  UNL     1      -7.594  29.792  -3.003  1.00  0.00    -0.388 NA
BRANCH  24  25
HETATM   25  C8  UNL     1      -6.336  29.846  -2.586  1.00  0.00     0.160 C 
BRANCH  25  26
HETATM   26  C7  UNL     1      -5.749  31.218  -2.252  1.00  0.00     0.087 C 
BRANCH  26  27
HETATM   27  C6  UNL     1      -5.846  32.120  -3.451  1.00  0.00     0.239 C 
BRANCH  27  28
HETATM   28  N1  UNL     1      -5.549  31.480  -4.701  1.00  0.00    -0.065 N 
ATOM     29  H12 UNL     1      -5.987  30.561  -4.767  1.00  0.00     0.278 HD
ATOM     30  H11 UNL     1      -4.573  31.190  -4.754  1.00  0.00     0.278 HD
BRANCH  28  31
HETATM   31  C5  UNL     1      -5.921  32.337  -5.825  1.00  0.00     0.325 C 
BRANCH  31  32
HETATM   32  C4  UNL     1      -6.397  31.492  -6.947  1.00  0.00    -0.077 C 
HETATM   33  C3  UNL     1      -6.791  30.791  -7.844  1.00  0.00    -0.079 C 
BRANCH  33  34
HETATM   34  C2  UNL     1      -7.280  29.915  -8.925  1.00  0.00     0.260 C 
BRANCH  34  35
HETATM   35  O1  UNL     1      -6.247  29.211  -9.536  1.00  0.00    -0.384 OA
HETATM   36  C1  UNL     1      -5.606  30.108 -10.390  1.00  0.00     0.202 C 
ENDBRANCH  34  35
ENDBRANCH  33  34
ENDBRANCH  31  32
ENDBRANCH  28  31
ENDBRANCH  27  28
ENDBRANCH  26  27
ENDBRANCH  25  26
ENDBRANCH  24  25
ENDBRANCH   1  24
TORSDOF 19
ENDMDL
MODEL 5
REMARK VINA RESULT: -6.068084813      2.612      8.817
REMARK  19 active torsions:
REMARK  status: ('A' for Active; 'I' for Inactive)
REMARK    1  A    between atoms: O1_2  and  C2_3 
REMARK    2  A    between atoms: C2_3  and  C3_4 
REMARK    3  A    between atoms: C4_5  and  C5_6 
REMARK    4  A    between atoms: C5_6  and  N1_7 
REMARK    5  A    between atoms: N1_7  and  C6_10 
REMARK    6  A    between atoms: C6_10  and  C7_11 
REMARK    7  A    between atoms: C7_11  and  C8_12 
REMARK    8  A    between atoms: C8_12  and  N2_13 
REMARK    9  A    between atoms: N2_13  and  C9_14 
REMARK   10  A    between atoms: C13_20  and  N4_21 
REMARK   11  A    between atoms: N4_21  and  C14_23 
REMARK   12  A    between atoms: C14_23  and  C15_24 
REMARK   13  A    between atoms: C15_24  and  N5_25 
REMARK   14  A    between atoms: N5_25  and  C16_27 
REMARK   15  A    between atoms: C16_27  and  C17_28 
REMARK   16  A    between atoms: C17_28  and  C18_29 
REMARK   17  A    between atoms: C18_29  and  C19_30 
REMARK   18  A    between atoms: C19_30  and  N6_31 
REMARK   19  A    between atoms: N6_31  and  C20_33 
ROOT
HETATM    1  C9  UNL     1      -8.994  29.978  -3.132  1.00  0.00     0.260 A 
HETATM    2  N3  UNL     1      -9.083  30.528  -4.380  1.00  0.00    -0.320 N 
ATOM      3  H3  UNL     1      -8.349  31.172  -4.675  1.00  0.00     0.169 HD
HETATM    4  C10 UNL     1     -10.067  30.274  -5.227  1.00  0.00     0.013 A 
HETATM    5  C11 UNL     1     -10.139  30.890  -6.595  1.00  0.00     0.068 C 
HETATM    6  C12 UNL     1     -11.059  29.422  -4.864  1.00  0.00     0.073 A 
HETATM    7  C13 UNL     1     -11.017  28.831  -3.601  1.00  0.00     0.106 A 
HETATM    8  N7  UNL     1     -10.011  29.126  -2.807  1.00  0.00    -0.302 N 
ATOM      9  H7  UNL     1      -9.989  28.689  -1.887  1.00  0.00     0.171 HD
ENDROOT
BRANCH   7  10
HETATM   10  N4  UNL     1     -11.986  28.037  -3.329  1.00  0.00    -0.375 N 
ATOM     11  H4  UNL     1     -11.866  27.281  -2.654  1.00  0.00     0.161 HD
BRANCH  10  12
HETATM   12  C14 UNL     1     -13.255  28.235  -3.998  1.00  0.00     0.141 C 
BRANCH  12  13
HETATM   13  C15 UNL     1     -13.973  26.934  -3.995  1.00  0.00     0.138 C 
BRANCH  13  14
HETATM   14  N5  UNL     1     -15.391  27.000  -4.336  1.00  0.00    -0.398 N 
ATOM     15  H5  UNL     1     -15.908  26.260  -4.810  1.00  0.00     0.158 HD
BRANCH  14  16
HETATM   16  C16 UNL     1     -15.945  28.226  -3.918  1.00  0.00     0.079 C 
BRANCH  16  17
HETATM   17  C17 UNL     1     -17.050  28.272  -2.962  1.00  0.00    -0.008 C 
BRANCH  17  18
HETATM   18  C18 UNL     1     -16.880  28.613  -1.550  1.00  0.00     0.048 C 
BRANCH  18  19
HETATM   19  C19 UNL     1     -16.486  27.565  -0.571  1.00  0.00     0.126 C 
BRANCH  19  20
HETATM   20  N6  UNL     1     -15.037  27.653  -0.404  1.00  0.00    -0.368 N 
ATOM     21  H6  UNL     1     -14.455  26.816  -0.402  1.00  0.00     0.161 HD
BRANCH  20  22
HETATM   22  C20 UNL     1     -14.471  28.937  -0.245  1.00  0.00     0.348 C 
HETATM   23  O2  UNL     1     -13.426  29.265  -0.819  1.00  0.00    -0.284 OA
ENDBRANCH  20  22
ENDBRANCH  19  20
ENDBRANCH  18  19
ENDBRANCH  17  18
ENDBRANCH  16  17
ENDBRANCH  14  16
ENDBRANCH  13  14
ENDBRANCH  12  13
ENDBRANCH  10  12
ENDBRANCH   7  10
BRANCH   1  24
HETATM   24  N2  UNL     1      -8.079  30.256  -2.415  1.00  0.00    -0.388 NA
BRANCH  24  25
HETATM   25  C8  UNL     1      -7.072  30.446  -1.575  1.00  0.00     0.160 C 
BRANCH  25  26
HETATM   26  C7  UNL     1      -5.943  29.414  -1.562  1.00  0.00     0.087 C 
BRANCH  26  27
HETATM   27  C6  UNL     1      -4.659  30.070  -1.136  1.00  0.00     0.239 C 
BRANCH  27  28
HETATM   28  N1  UNL     1      -4.761  31.483  -0.906  1.00  0.00    -0.065 N 
ATOM     29  H12 UNL     1      -4.633  31.715   0.079  1.00  0.00     0.278 HD
ATOM     30  H11 UNL     1      -5.719  31.815  -1.020  1.00  0.00     0.278 HD
BRANCH  28  31
HETATM   31  C5  UNL     1      -3.829  32.217  -1.760  1.00  0.00     0.325 C 
BRANCH  31  32
HETATM   32  C4  UNL     1      -4.340  32.220  -3.152  1.00  0.00    -0.077 C 
HETATM   33  C3  UNL     1      -4.776  32.219  -4.275  1.00  0.00    -0.079 C 
BRANCH  33  34
HETATM   34  C2  UNL     1      -5.331  32.212  -5.641  1.00  0.00     0.260 C 
BRANCH  34  35
HETATM   35  O1  UNL     1      -6.306  31.232  -5.805  1.00  0.00    -0.384 OA
HETATM   36  C1  UNL     1      -6.551  31.140  -7.174  1.00  0.00     0.202 C 
ENDBRANCH  34  35
ENDBRANCH  33  34
ENDBRANCH  31  32
ENDBRANCH  28  31
ENDBRANCH  27  28
ENDBRANCH  26  27
ENDBRANCH  25  26
ENDBRANCH  24  25
ENDBRANCH   1  24
TORSDOF 19
ENDMDL
