MODEL 1
REMARK VINA RESULT: -7.714334222      0.000      0.000
REMARK  18 active torsions:
REMARK  status: ('A' for Active; 'I' for Inactive)
REMARK    1  A    between atoms: N1_2  and  C2_5 
REMARK    2  A    between atoms: C2_5  and  C3_6 
REMARK    3  A    between atoms: C3_6  and  N2_7 
REMARK    4  A    between atoms: N2_7  and  C4_9 
REMARK    5  A    between atoms: C5_10  and  C6_11 
REMARK    6  A    between atoms: C6_11  and  O1_12 
REMARK    7  A    between atoms: C7_15  and  O3_16 
REMARK    8  A    between atoms: O3_16  and  C8_17 
REMARK    9  A    between atoms: C8_17  and  C9_18 
REMARK   10  A    between atoms: C10_20  and  S1_21 
REMARK   11  A    between atoms: S1_21  and  C11_22 
REMARK   12  A    between atoms: C12_24  and  C13_25 
REMARK   13  A    between atoms: C13_25  and  O6_26 
REMARK   14  A    between atoms: C14_28  and  N3_29 
REMARK   15  A    between atoms: C15_33  and  O7_34 
REMARK   16  A    between atoms: C16_36  and  N4_37 
REMARK   17  A    between atoms: C17_41  and  O8_42 
REMARK   18  A    between atoms: C18_44  and  N5_45 
ROOT
HETATM    1  C9  UNL     1     -21.177  -1.014   3.145  1.00  0.00     0.177 C 
HETATM    2  O4  UNL     1     -20.420   0.100   3.465  1.00  0.00    -0.363 OA
HETATM    3  C10 UNL     1     -19.992   0.540   2.218  1.00  0.00     0.219 C 
HETATM    4  C16 UNL     1     -21.326   0.662   1.506  1.00  0.00     0.253 C 
HETATM    5  C17 UNL     1     -21.842  -0.762   1.794  1.00  0.00     0.183 C 
ENDROOT
BRANCH   1   6
HETATM    6  C8  UNL     1     -22.260  -1.307   4.185  1.00  0.00     0.205 C 
BRANCH   6   7
HETATM    7  O3  UNL     1     -23.004  -0.152   4.260  1.00  0.00    -0.356 OA
BRANCH   7   8
HETATM    8  C7  UNL     1     -23.099   0.413   5.530  1.00  0.00     0.292 C 
HETATM    9  O2  UNL     1     -22.923  -0.531   6.523  1.00  0.00    -0.350 OA
HETATM   10  C5  UNL     1     -24.070  -0.594   7.291  1.00  0.00     0.172 C 
HETATM   11  C4  UNL     1     -24.698   0.778   7.193  1.00  0.00     0.143 C 
HETATM   12  C18 UNL     1     -24.420   1.094   5.739  1.00  0.00     0.263 C 
BRANCH  10  13
HETATM   13  C6  UNL     1     -24.982  -1.614   6.599  1.00  0.00     0.198 C 
BRANCH  13  14
HETATM   14  O1  UNL     1     -24.479  -2.904   6.675  1.00  0.00    -0.398 OA
ATOM     15  H1  UNL     1     -24.866  -3.398   7.388  1.00  0.00     0.209 HD
ENDBRANCH  13  14
ENDBRANCH  10  13
BRANCH  11  16
HETATM   16  N2  UNL     1     -23.995   1.745   7.968  1.00  0.00    -0.411 N 
ATOM     17  H2  UNL     1     -22.985   1.860   7.889  1.00  0.00     0.153 HD
BRANCH  16  18
HETATM   18  C3  UNL     1     -24.771   2.544   8.861  1.00  0.00     0.142 C 
BRANCH  18  19
HETATM   19  C2  UNL     1     -26.142   1.887   8.958  1.00  0.00     0.251 C 
BRANCH  19  20
HETATM   20  N1  UNL     1     -27.161   2.760   9.454  1.00  0.00    -0.077 N 
HETATM   21  C1  UNL     1     -27.029   4.043   8.799  1.00  0.00     0.267 C 
ATOM     22  H12 UNL     1     -27.149   2.837  10.471  1.00  0.00     0.276 HD
ATOM     23  H11 UNL     1     -28.097   2.365   9.355  1.00  0.00     0.276 HD
ENDBRANCH  19  20
ENDBRANCH  18  19
ENDBRANCH  16  18
ENDBRANCH  11  16
BRANCH  12  24
HETATM   24  N5  UNL     1     -24.283   2.523   5.522  1.00  0.00    -0.068 N 
ATOM     25  H53 UNL     1     -24.541   3.053   6.354  1.00  0.00     0.275 HD
ATOM     26  H52 UNL     1     -23.303   2.798   5.457  1.00  0.00     0.275 HD
ATOM     27  H51 UNL     1     -24.813   2.829   4.705  1.00  0.00     0.275 HD
ENDBRANCH  12  24
ENDBRANCH   7   8
ENDBRANCH   6   7
ENDBRANCH   1   6
BRANCH   5  28
HETATM   28  O8  UNL     1     -21.364  -1.681   0.894  1.00  0.00    -0.391 OA
ATOM     29  H8  UNL     1     -20.752  -1.245   0.313  1.00  0.00     0.210 HD
ENDBRANCH   5  28
BRANCH   3  30
HETATM   30  S1  UNL     1     -18.982   1.995   2.200  1.00  0.00    -0.101 SA
BRANCH  30  31
HETATM   31  C11 UNL     1     -19.928   3.421   2.642  1.00  0.00     0.216 C 
HETATM   32  O5  UNL     1     -21.240   3.195   3.021  1.00  0.00    -0.363 OA
HETATM   33  C12 UNL     1     -21.835   4.451   3.104  1.00  0.00     0.179 C 
HETATM   34  C14 UNL     1     -21.037   5.397   2.226  1.00  0.00     0.246 C 
HETATM   35  C15 UNL     1     -20.160   4.389   1.478  1.00  0.00     0.190 C 
BRANCH  33  36
HETATM   36  C13 UNL     1     -23.264   4.336   2.627  1.00  0.00     0.198 C 
BRANCH  36  37
HETATM   37  O6  UNL     1     -24.144   4.774   3.619  1.00  0.00    -0.398 OA
ATOM     38  H6  UNL     1     -24.705   5.462   3.282  1.00  0.00     0.209 HD
ENDBRANCH  36  37
ENDBRANCH  33  36
BRANCH  34  39
HETATM   39  N3  UNL     1     -20.183   6.175   3.072  1.00  0.00    -0.070 N 
ATOM     40  H33 UNL     1     -19.704   6.922   2.569  1.00  0.00     0.274 HD
ATOM     41  H32 UNL     1     -20.703   6.761   3.725  1.00  0.00     0.274 HD
ATOM     42  H31 UNL     1     -19.537   5.540   3.541  1.00  0.00     0.274 HD
ENDBRANCH  34  39
BRANCH  35  43
HETATM   43  O7  UNL     1     -18.995   5.000   1.081  1.00  0.00    -0.390 OA
ATOM     44  H7  UNL     1     -19.124   5.541   0.311  1.00  0.00     0.210 HD
ENDBRANCH  35  43
ENDBRANCH  30  31
ENDBRANCH   3  30
BRANCH   4  45
HETATM   45  N4  UNL     1     -21.216   0.939   0.111  1.00  0.00    -0.069 N 
ATOM     46  H43 UNL     1     -20.838   1.874  -0.040  1.00  0.00     0.275 HD
ATOM     47  H42 UNL     1     -20.471   0.382  -0.307  1.00  0.00     0.275 HD
ATOM     48  H41 UNL     1     -22.087   0.816  -0.406  1.00  0.00     0.275 HD
ENDBRANCH   4  45
TORSDOF 18
ENDMDL
MODEL 2
REMARK VINA RESULT: -7.659524055      1.637      2.502
REMARK  18 active torsions:
REMARK  status: ('A' for Active; 'I' for Inactive)
REMARK    1  A    between atoms: N1_2  and  C2_5 
REMARK    2  A    between atoms: C2_5  and  C3_6 
REMARK    3  A    between atoms: C3_6  and  N2_7 
REMARK    4  A    between atoms: N2_7  and  C4_9 
REMARK    5  A    between atoms: C5_10  and  C6_11 
REMARK    6  A    between atoms: C6_11  and  O1_12 
REMARK    7  A    between atoms: C7_15  and  O3_16 
REMARK    8  A    between atoms: O3_16  and  C8_17 
REMARK    9  A    between atoms: C8_17  and  C9_18 
REMARK   10  A    between atoms: C10_20  and  S1_21 
REMARK   11  A    between atoms: S1_21  and  C11_22 
REMARK   12  A    between atoms: C12_24  and  C13_25 
REMARK   13  A    between atoms: C13_25  and  O6_26 
REMARK   14  A    between atoms: C14_28  and  N3_29 
REMARK   15  A    between atoms: C15_33  and  O7_34 
REMARK   16  A    between atoms: C16_36  and  N4_37 
REMARK   17  A    between atoms: C17_41  and  O8_42 
REMARK   18  A    between atoms: C18_44  and  N5_45 
ROOT
HETATM    1  C9  UNL     1     -21.084   0.126   3.533  1.00  0.00     0.177 C 
HETATM    2  O4  UNL     1     -21.457   0.868   2.424  1.00  0.00    -0.363 OA
HETATM    3  C10 UNL     1     -20.482   1.858   2.385  1.00  0.00     0.219 C 
HETATM    4  C16 UNL     1     -19.230   1.002   2.384  1.00  0.00     0.253 C 
HETATM    5  C17 UNL     1     -19.560   0.159   3.632  1.00  0.00     0.183 C 
ENDROOT
BRANCH   1   6
HETATM    6  C8  UNL     1     -21.545  -1.330   3.448  1.00  0.00     0.205 C 
BRANCH   6   7
HETATM    7  O3  UNL     1     -22.759  -1.357   4.094  1.00  0.00    -0.356 OA
BRANCH   7   8
HETATM    8  C7  UNL     1     -22.803  -0.669   5.305  1.00  0.00     0.292 C 
HETATM    9  O2  UNL     1     -22.716  -1.528   6.384  1.00  0.00    -0.350 OA
HETATM   10  C5  UNL     1     -23.866  -1.413   7.142  1.00  0.00     0.172 C 
HETATM   11  C4  UNL     1     -24.364  -0.004   6.910  1.00  0.00     0.143 C 
HETATM   12  C18 UNL     1     -24.056   0.147   5.436  1.00  0.00     0.263 C 
BRANCH  10  13
HETATM   13  C6  UNL     1     -24.867  -2.405   6.539  1.00  0.00     0.198 C 
BRANCH  13  14
HETATM   14  O1  UNL     1     -24.404  -3.711   6.587  1.00  0.00    -0.398 OA
ATOM     15  H1  UNL     1     -25.108  -4.337   6.712  1.00  0.00     0.209 HD
ENDBRANCH  13  14
ENDBRANCH  10  13
BRANCH  11  16
HETATM   16  N2  UNL     1     -23.577   0.962   7.599  1.00  0.00    -0.411 N 
ATOM     17  H2  UNL     1     -22.564   1.004   7.485  1.00  0.00     0.153 HD
BRANCH  16  18
HETATM   18  C3  UNL     1     -24.271   1.870   8.454  1.00  0.00     0.142 C 
BRANCH  18  19
HETATM   19  C2  UNL     1     -25.591   1.203   8.822  1.00  0.00     0.251 C 
BRANCH  19  20
HETATM   20  N1  UNL     1     -26.457   2.036   9.599  1.00  0.00    -0.077 N 
HETATM   21  C1  UNL     1     -25.758   3.263   9.911  1.00  0.00     0.267 C 
ATOM     22  H12 UNL     1     -26.809   1.563  10.432  1.00  0.00     0.276 HD
ATOM     23  H11 UNL     1     -27.354   2.202   9.142  1.00  0.00     0.276 HD
ENDBRANCH  19  20
ENDBRANCH  18  19
ENDBRANCH  16  18
ENDBRANCH  11  16
BRANCH  12  24
HETATM   24  N5  UNL     1     -23.788   1.530   5.088  1.00  0.00    -0.068 N 
ATOM     25  H53 UNL     1     -24.572   1.947   4.585  1.00  0.00     0.275 HD
ATOM     26  H52 UNL     1     -23.793   2.131   5.912  1.00  0.00     0.275 HD
ATOM     27  H51 UNL     1     -22.918   1.622   4.564  1.00  0.00     0.275 HD
ENDBRANCH  12  24
ENDBRANCH   7   8
ENDBRANCH   6   7
ENDBRANCH   1   6
BRANCH   5  28
HETATM   28  O8  UNL     1     -19.212   0.794   4.797  1.00  0.00    -0.391 OA
ATOM     29  H8  UNL     1     -18.542   0.281   5.233  1.00  0.00     0.210 HD
ENDBRANCH   5  28
BRANCH   3  30
HETATM   30  S1  UNL     1     -20.605   3.031   1.063  1.00  0.00    -0.101 SA
BRANCH  30  31
HETATM   31  C11 UNL     1     -21.119   4.610   1.671  1.00  0.00     0.216 C 
HETATM   32  O5  UNL     1     -20.111   5.511   1.969  1.00  0.00    -0.363 OA
HETATM   33  C12 UNL     1     -20.730   6.572   2.625  1.00  0.00     0.179 C 
HETATM   34  C14 UNL     1     -22.024   6.051   3.224  1.00  0.00     0.246 C 
HETATM   35  C15 UNL     1     -21.818   4.546   3.033  1.00  0.00     0.190 C 
BRANCH  33  36
HETATM   36  C13 UNL     1     -19.797   7.083   3.697  1.00  0.00     0.198 C 
BRANCH  36  37
HETATM   37  O6  UNL     1     -18.550   7.390   3.149  1.00  0.00    -0.398 OA
ATOM     38  H6  UNL     1     -18.192   6.636   2.697  1.00  0.00     0.209 HD
ENDBRANCH  36  37
ENDBRANCH  33  36
BRANCH  34  39
HETATM   39  N3  UNL     1     -23.103   6.455   2.374  1.00  0.00    -0.070 N 
ATOM     40  H33 UNL     1     -23.349   7.438   2.491  1.00  0.00     0.274 HD
ATOM     41  H32 UNL     1     -22.835   6.496   1.391  1.00  0.00     0.274 HD
ATOM     42  H31 UNL     1     -23.890   5.829   2.543  1.00  0.00     0.274 HD
ENDBRANCH  34  39
BRANCH  35  43
HETATM   43  O7  UNL     1     -23.039   3.922   2.952  1.00  0.00    -0.390 OA
ATOM     44  H7  UNL     1     -23.633   4.219   3.631  1.00  0.00     0.210 HD
ENDBRANCH  35  43
ENDBRANCH  30  31
ENDBRANCH   3  30
BRANCH   4  45
HETATM   45  N4  UNL     1     -18.020   1.744   2.523  1.00  0.00    -0.069 N 
ATOM     46  H43 UNL     1     -17.234   1.117   2.699  1.00  0.00     0.275 HD
ATOM     47  H42 UNL     1     -17.732   2.132   1.624  1.00  0.00     0.275 HD
ATOM     48  H41 UNL     1     -18.060   2.476   3.232  1.00  0.00     0.275 HD
ENDBRANCH   4  45
TORSDOF 18
ENDMDL
MODEL 3
REMARK VINA RESULT: -7.633842661      1.652      2.277
REMARK  18 active torsions:
REMARK  status: ('A' for Active; 'I' for Inactive)
REMARK    1  A    between atoms: N1_2  and  C2_5 
REMARK    2  A    between atoms: C2_5  and  C3_6 
REMARK    3  A    between atoms: C3_6  and  N2_7 
REMARK    4  A    between atoms: N2_7  and  C4_9 
REMARK    5  A    between atoms: C5_10  and  C6_11 
REMARK    6  A    between atoms: C6_11  and  O1_12 
REMARK    7  A    between atoms: C7_15  and  O3_16 
REMARK    8  A    between atoms: O3_16  and  C8_17 
REMARK    9  A    between atoms: C8_17  and  C9_18 
REMARK   10  A    between atoms: C10_20  and  S1_21 
REMARK   11  A    between atoms: S1_21  and  C11_22 
REMARK   12  A    between atoms: C12_24  and  C13_25 
REMARK   13  A    between atoms: C13_25  and  O6_26 
REMARK   14  A    between atoms: C14_28  and  N3_29 
REMARK   15  A    between atoms: C15_33  and  O7_34 
REMARK   16  A    between atoms: C16_36  and  N4_37 
REMARK   17  A    between atoms: C17_41  and  O8_42 
REMARK   18  A    between atoms: C18_44  and  N5_45 
ROOT
HETATM    1  C9  UNL     1     -21.167  -0.368   4.508  1.00  0.00     0.177 C 
HETATM    2  O4  UNL     1     -20.601   0.873   4.271  1.00  0.00    -0.363 OA
HETATM    3  C10 UNL     1     -20.083   0.725   2.990  1.00  0.00     0.219 C 
HETATM    4  C16 UNL     1     -21.324   0.263   2.251  1.00  0.00     0.253 C 
HETATM    5  C17 UNL     1     -21.688  -0.913   3.179  1.00  0.00     0.183 C 
ENDROOT
BRANCH   1   6
HETATM    6  C8  UNL     1     -22.324  -0.306   5.507  1.00  0.00     0.205 C 
BRANCH   6   7
HETATM    7  O3  UNL     1     -22.790   0.986   5.432  1.00  0.00    -0.356 OA
BRANCH   7   8
HETATM    8  C7  UNL     1     -24.093   1.176   5.889  1.00  0.00     0.292 C 
HETATM    9  O2  UNL     1     -24.318   2.488   6.259  1.00  0.00    -0.350 OA
HETATM   10  C5  UNL     1     -24.646   2.527   7.601  1.00  0.00     0.172 C 
HETATM   11  C4  UNL     1     -25.282   1.187   7.899  1.00  0.00     0.143 C 
HETATM   12  C18 UNL     1     -24.409   0.285   7.054  1.00  0.00     0.263 C 
BRANCH  10  13
HETATM   13  C6  UNL     1     -23.315   2.630   8.355  1.00  0.00     0.198 C 
BRANCH  13  14
HETATM   14  O1  UNL     1     -23.037   3.928   8.755  1.00  0.00    -0.398 OA
ATOM     15  H1  UNL     1     -22.413   4.355   8.180  1.00  0.00     0.209 HD
ENDBRANCH  13  14
ENDBRANCH  10  13
BRANCH  11  16
HETATM   16  N2  UNL     1     -26.603   1.094   7.376  1.00  0.00    -0.411 N 
ATOM     17  H2  UNL     1     -26.795   0.627   6.490  1.00  0.00     0.153 HD
BRANCH  16  18
HETATM   18  C3  UNL     1     -27.647   1.685   8.150  1.00  0.00     0.142 C 
BRANCH  18  19
HETATM   19  C2  UNL     1     -28.084   2.943   7.410  1.00  0.00     0.251 C 
BRANCH  19  20
HETATM   20  N1  UNL     1     -27.627   4.154   8.019  1.00  0.00    -0.077 N 
HETATM   21  C1  UNL     1     -27.515   3.940   9.445  1.00  0.00     0.267 C 
ATOM     22  H12 UNL     1     -28.216   4.954   7.788  1.00  0.00     0.276 HD
ATOM     23  H11 UNL     1     -26.758   4.496   7.606  1.00  0.00     0.276 HD
ENDBRANCH  19  20
ENDBRANCH  18  19
ENDBRANCH  16  18
ENDBRANCH  11  16
BRANCH  12  24
HETATM   24  N5  UNL     1     -25.138  -0.887   6.602  1.00  0.00    -0.068 N 
ATOM     25  H53 UNL     1     -24.559  -1.726   6.646  1.00  0.00     0.275 HD
ATOM     26  H52 UNL     1     -25.860  -1.158   7.268  1.00  0.00     0.275 HD
ATOM     27  H51 UNL     1     -25.524  -0.748   5.668  1.00  0.00     0.275 HD
ENDBRANCH  12  24
ENDBRANCH   7   8
ENDBRANCH   6   7
ENDBRANCH   1   6
BRANCH   5  28
HETATM   28  O8  UNL     1     -20.991  -2.054   2.873  1.00  0.00    -0.391 OA
ATOM     29  H8  UNL     1     -20.063  -1.880   2.981  1.00  0.00     0.210 HD
ENDBRANCH   5  28
BRANCH   3  30
HETATM   30  S1  UNL     1     -19.269   2.141   2.302  1.00  0.00    -0.101 SA
BRANCH  30  31
HETATM   31  C11 UNL     1     -20.097   3.630   2.773  1.00  0.00     0.216 C 
HETATM   32  O5  UNL     1     -21.412   3.499   3.185  1.00  0.00    -0.363 OA
HETATM   33  C12 UNL     1     -21.912   4.795   3.287  1.00  0.00     0.179 C 
HETATM   34  C14 UNL     1     -21.068   5.685   2.392  1.00  0.00     0.246 C 
HETATM   35  C15 UNL     1     -20.287   4.620   1.619  1.00  0.00     0.190 C 
BRANCH  33  36
HETATM   36  C13 UNL     1     -23.357   4.787   2.847  1.00  0.00     0.198 C 
BRANCH  36  37
HETATM   37  O6  UNL     1     -24.176   4.326   3.878  1.00  0.00    -0.398 OA
ATOM     38  H6  UNL     1     -24.955   4.866   3.948  1.00  0.00     0.209 HD
ENDBRANCH  36  37
ENDBRANCH  33  36
BRANCH  34  39
HETATM   39  N3  UNL     1     -20.139   6.394   3.219  1.00  0.00    -0.070 N 
ATOM     40  H33 UNL     1     -19.808   7.257   2.789  1.00  0.00     0.274 HD
ATOM     41  H32 UNL     1     -20.579   6.810   4.040  1.00  0.00     0.274 HD
ATOM     42  H31 UNL     1     -19.379   5.757   3.459  1.00  0.00     0.274 HD
ENDBRANCH  34  39
BRANCH  35  43
HETATM   43  O7  UNL     1     -19.090   5.145   1.194  1.00  0.00    -0.390 OA
ATOM     44  H7  UNL     1     -18.653   5.630   1.884  1.00  0.00     0.210 HD
ENDBRANCH  35  43
ENDBRANCH  30  31
ENDBRANCH   3  30
BRANCH   4  45
HETATM   45  N4  UNL     1     -21.080  -0.150   0.907  1.00  0.00    -0.069 N 
ATOM     46  H43 UNL     1     -21.957  -0.235   0.394  1.00  0.00     0.275 HD
ATOM     47  H42 UNL     1     -20.642   0.602   0.375  1.00  0.00     0.275 HD
ATOM     48  H41 UNL     1     -20.534  -1.008   0.829  1.00  0.00     0.275 HD
ENDBRANCH   4  45
TORSDOF 18
ENDMDL
MODEL 4
REMARK VINA RESULT: -7.630817684      2.771      7.971
REMARK  18 active torsions:
REMARK  status: ('A' for Active; 'I' for Inactive)
REMARK    1  A    between atoms: N1_2  and  C2_5 
REMARK    2  A    between atoms: C2_5  and  C3_6 
REMARK    3  A    between atoms: C3_6  and  N2_7 
REMARK    4  A    between atoms: N2_7  and  C4_9 
REMARK    5  A    between atoms: C5_10  and  C6_11 
REMARK    6  A    between atoms: C6_11  and  O1_12 
REMARK    7  A    between atoms: C7_15  and  O3_16 
REMARK    8  A    between atoms: O3_16  and  C8_17 
REMARK    9  A    between atoms: C8_17  and  C9_18 
REMARK   10  A    between atoms: C10_20  and  S1_21 
REMARK   11  A    between atoms: S1_21  and  C11_22 
REMARK   12  A    between atoms: C12_24  and  C13_25 
REMARK   13  A    between atoms: C13_25  and  O6_26 
REMARK   14  A    between atoms: C14_28  and  N3_29 
REMARK   15  A    between atoms: C15_33  and  O7_34 
REMARK   16  A    between atoms: C16_36  and  N4_37 
REMARK   17  A    between atoms: C17_41  and  O8_42 
REMARK   18  A    between atoms: C18_44  and  N5_45 
ROOT
HETATM    1  C9  UNL     1     -21.739   1.296   4.256  1.00  0.00     0.177 C 
HETATM    2  O4  UNL     1     -22.092   1.767   5.510  1.00  0.00    -0.363 OA
HETATM    3  C10 UNL     1     -23.029   0.829   5.929  1.00  0.00     0.219 C 
HETATM    4  C16 UNL     1     -22.226  -0.446   5.756  1.00  0.00     0.253 C 
HETATM    5  C17 UNL     1     -21.814  -0.229   4.286  1.00  0.00     0.183 C 
ENDROOT
BRANCH   1   6
HETATM    6  C8  UNL     1     -20.326   1.716   3.847  1.00  0.00     0.205 C 
BRANCH   6   7
HETATM    7  O3  UNL     1     -20.504   2.753   2.962  1.00  0.00    -0.356 OA
BRANCH   7   8
HETATM    8  C7  UNL     1     -20.732   2.374   1.640  1.00  0.00     0.292 C 
HETATM    9  O2  UNL     1     -19.558   2.031   0.998  1.00  0.00    -0.350 OA
HETATM   10  C5  UNL     1     -19.366   2.883  -0.073  1.00  0.00     0.172 C 
HETATM   11  C4  UNL     1     -20.752   3.317  -0.496  1.00  0.00     0.143 C 
HETATM   12  C18 UNL     1     -21.411   3.460   0.858  1.00  0.00     0.263 C 
BRANCH  10  13
HETATM   13  C6  UNL     1     -18.610   4.094   0.485  1.00  0.00     0.198 C 
BRANCH  13  14
HETATM   14  O1  UNL     1     -17.311   3.777   0.853  1.00  0.00    -0.398 OA
ATOM     15  H1  UNL     1     -17.213   3.705   1.795  1.00  0.00     0.209 HD
ENDBRANCH  13  14
ENDBRANCH  10  13
BRANCH  11  16
HETATM   16  N2  UNL     1     -21.448   2.284  -1.188  1.00  0.00    -0.411 N 
ATOM     17  H2  UNL     1     -22.443   2.118  -1.039  1.00  0.00     0.153 HD
BRANCH  16  18
HETATM   18  C3  UNL     1     -20.687   1.493  -2.100  1.00  0.00     0.142 C 
BRANCH  18  19
HETATM   19  C2  UNL     1     -21.065   0.039  -1.842  1.00  0.00     0.251 C 
BRANCH  19  20
HETATM   20  N1  UNL     1     -20.541  -0.480  -0.616  1.00  0.00    -0.077 N 
HETATM   21  C1  UNL     1     -21.625  -1.081   0.130  1.00  0.00     0.267 C 
ATOM     22  H12 UNL     1     -20.038   0.225  -0.077  1.00  0.00     0.276 HD
ATOM     23  H11 UNL     1     -19.764  -1.124  -0.764  1.00  0.00     0.276 HD
ENDBRANCH  19  20
ENDBRANCH  18  19
ENDBRANCH  16  18
ENDBRANCH  11  16
BRANCH  12  24
HETATM   24  N5  UNL     1     -22.838   3.203   0.785  1.00  0.00    -0.068 N 
ATOM     25  H53 UNL     1     -23.041   2.386   0.210  1.00  0.00     0.275 HD
ATOM     26  H52 UNL     1     -23.202   2.864   1.676  1.00  0.00     0.275 HD
ATOM     27  H51 UNL     1     -23.349   4.024   0.461  1.00  0.00     0.275 HD
ENDBRANCH  12  24
ENDBRANCH   7   8
ENDBRANCH   6   7
ENDBRANCH   1   6
BRANCH   5  28
HETATM   28  O8  UNL     1     -22.786  -0.635   3.406  1.00  0.00    -0.391 OA
ATOM     29  H8  UNL     1     -22.642  -0.198   2.575  1.00  0.00     0.210 HD
ENDBRANCH   5  28
BRANCH   3  30
HETATM   30  S1  UNL     1     -23.726   1.079   7.538  1.00  0.00    -0.101 SA
BRANCH  30  31
HETATM   31  C11 UNL     1     -25.403   1.624   7.416  1.00  0.00     0.216 C 
HETATM   32  O5  UNL     1     -25.613   2.827   6.764  1.00  0.00    -0.363 OA
HETATM   33  C12 UNL     1     -26.949   3.153   6.984  1.00  0.00     0.179 C 
HETATM   34  C14 UNL     1     -27.397   2.432   8.242  1.00  0.00     0.246 C 
HETATM   35  C15 UNL     1     -26.043   1.952   8.770  1.00  0.00     0.190 C 
BRANCH  33  36
HETATM   36  C13 UNL     1     -27.056   4.651   7.143  1.00  0.00     0.198 C 
BRANCH  36  37
HETATM   37  O6  UNL     1     -26.453   5.057   8.335  1.00  0.00    -0.398 OA
ATOM     38  H6  UNL     1     -26.030   5.900   8.221  1.00  0.00     0.209 HD
ENDBRANCH  36  37
ENDBRANCH  33  36
BRANCH  34  39
HETATM   39  N3  UNL     1     -28.147   1.277   7.850  1.00  0.00    -0.070 N 
ATOM     40  H33 UNL     1     -29.108   1.500   7.594  1.00  0.00     0.274 HD
ATOM     41  H32 UNL     1     -27.849   0.900   6.950  1.00  0.00     0.274 HD
ATOM     42  H31 UNL     1     -28.090   0.591   8.603  1.00  0.00     0.274 HD
ENDBRANCH  34  39
BRANCH  35  43
HETATM   43  O7  UNL     1     -26.222   0.826   9.536  1.00  0.00    -0.390 OA
ATOM     44  H7  UNL     1     -27.108   0.765   9.874  1.00  0.00     0.210 HD
ENDBRANCH  35  43
ENDBRANCH  30  31
ENDBRANCH   3  30
BRANCH   4  45
HETATM   45  N4  UNL     1     -22.984  -1.639   5.946  1.00  0.00    -0.069 N 
ATOM     46  H43 UNL     1     -23.134  -1.813   6.940  1.00  0.00     0.275 HD
ATOM     47  H42 UNL     1     -23.949  -1.502   5.647  1.00  0.00     0.275 HD
ATOM     48  H41 UNL     1     -22.584  -2.462   5.495  1.00  0.00     0.275 HD
ENDBRANCH   4  45
TORSDOF 18
ENDMDL
MODEL 5
REMARK VINA RESULT: -7.599667359      2.814      7.798
REMARK  18 active torsions:
REMARK  status: ('A' for Active; 'I' for Inactive)
REMARK    1  A    between atoms: N1_2  and  C2_5 
REMARK    2  A    between atoms: C2_5  and  C3_6 
REMARK    3  A    between atoms: C3_6  and  N2_7 
REMARK    4  A    between atoms: N2_7  and  C4_9 
REMARK    5  A    between atoms: C5_10  and  C6_11 
REMARK    6  A    between atoms: C6_11  and  O1_12 
REMARK    7  A    between atoms: C7_15  and  O3_16 
REMARK    8  A    between atoms: O3_16  and  C8_17 
REMARK    9  A    between atoms: C8_17  and  C9_18 
REMARK   10  A    between atoms: C10_20  and  S1_21 
REMARK   11  A    between atoms: S1_21  and  C11_22 
REMARK   12  A    between atoms: C12_24  and  C13_25 
REMARK   13  A    between atoms: C13_25  and  O6_26 
REMARK   14  A    between atoms: C14_28  and  N3_29 
REMARK   15  A    between atoms: C15_33  and  O7_34 
REMARK   16  A    between atoms: C16_36  and  N4_37 
REMARK   17  A    between atoms: C17_41  and  O8_42 
REMARK   18  A    between atoms: C18_44  and  N5_45 
ROOT
HETATM    1  C9  UNL     1     -21.999   1.138   4.325  1.00  0.00     0.177 C 
HETATM    2  O4  UNL     1     -22.366   1.690   5.541  1.00  0.00    -0.363 OA
HETATM    3  C10 UNL     1     -23.217   0.723   6.063  1.00  0.00     0.219 C 
HETATM    4  C16 UNL     1     -22.319  -0.496   5.982  1.00  0.00     0.253 C 
HETATM    5  C17 UNL     1     -21.952  -0.380   4.489  1.00  0.00     0.183 C 
ENDROOT
BRANCH   1   6
HETATM    6  C8  UNL     1     -20.631   1.629   3.845  1.00  0.00     0.205 C 
BRANCH   6   7
HETATM    7  O3  UNL     1     -20.827   2.944   3.496  1.00  0.00    -0.356 OA
BRANCH   7   8
HETATM    8  C7  UNL     1     -20.969   3.182   2.130  1.00  0.00     0.292 C 
HETATM    9  O2  UNL     1     -20.321   2.222   1.375  1.00  0.00    -0.350 OA
HETATM   10  C5  UNL     1     -19.345   2.835   0.612  1.00  0.00     0.172 C 
HETATM   11  C4  UNL     1     -19.835   4.249   0.389  1.00  0.00     0.143 C 
HETATM   12  C18 UNL     1     -20.447   4.534   1.743  1.00  0.00     0.263 C 
BRANCH  10  13
HETATM   13  C6  UNL     1     -18.089   2.872   1.490  1.00  0.00     0.198 C 
BRANCH  13  14
HETATM   14  O1  UNL     1     -17.083   3.646   0.934  1.00  0.00    -0.398 OA
ATOM     15  H1  UNL     1     -16.340   3.744   1.519  1.00  0.00     0.209 HD
ENDBRANCH  13  14
ENDBRANCH  10  13
BRANCH  11  16
HETATM   16  N2  UNL     1     -20.893   4.304  -0.564  1.00  0.00    -0.411 N 
ATOM     17  H2  UNL     1     -21.696   4.919  -0.434  1.00  0.00     0.153 HD
BRANCH  16  18
HETATM   18  C3  UNL     1     -20.775   3.458  -1.708  1.00  0.00     0.142 C 
BRANCH  18  19
HETATM   19  C2  UNL     1     -22.096   2.710  -1.838  1.00  0.00     0.251 C 
BRANCH  19  20
HETATM   20  N1  UNL     1     -22.975   2.900  -0.725  1.00  0.00    -0.077 N 
HETATM   21  C1  UNL     1     -23.468   1.609  -0.301  1.00  0.00     0.267 C 
ATOM     22  H12 UNL     1     -23.727   3.559  -0.929  1.00  0.00     0.276 HD
ATOM     23  H11 UNL     1     -22.536   3.421   0.035  1.00  0.00     0.276 HD
ENDBRANCH  19  20
ENDBRANCH  18  19
ENDBRANCH  16  18
ENDBRANCH  11  16
BRANCH  12  24
HETATM   24  N5  UNL     1     -21.544   5.481   1.641  1.00  0.00    -0.068 N 
ATOM     25  H53 UNL     1     -21.409   6.126   0.864  1.00  0.00     0.275 HD
ATOM     26  H52 UNL     1     -22.400   5.027   1.323  1.00  0.00     0.275 HD
ATOM     27  H51 UNL     1     -21.689   5.979   2.520  1.00  0.00     0.275 HD
ENDBRANCH  12  24
ENDBRANCH   7   8
ENDBRANCH   6   7
ENDBRANCH   1   6
BRANCH   5  28
HETATM   28  O8  UNL     1     -22.904  -0.936   3.673  1.00  0.00    -0.391 OA
ATOM     29  H8  UNL     1     -22.613  -0.858   2.772  1.00  0.00     0.210 HD
ENDBRANCH   5  28
BRANCH   3  30
HETATM   30  S1  UNL     1     -23.903   1.060   7.661  1.00  0.00    -0.101 SA
BRANCH  30  31
HETATM   31  C11 UNL     1     -25.558   1.665   7.519  1.00  0.00     0.216 C 
HETATM   32  O5  UNL     1     -25.728   2.819   6.774  1.00  0.00    -0.363 OA
HETATM   33  C12 UNL     1     -27.046   3.218   6.985  1.00  0.00     0.179 C 
HETATM   34  C14 UNL     1     -27.503   2.620   8.303  1.00  0.00     0.246 C 
HETATM   35  C15 UNL     1     -26.161   2.126   8.850  1.00  0.00     0.190 C 
BRANCH  33  36
HETATM   36  C13 UNL     1     -27.088   4.728   7.024  1.00  0.00     0.198 C 
BRANCH  36  37
HETATM   37  O6  UNL     1     -26.395   5.204   8.139  1.00  0.00    -0.398 OA
ATOM     38  H6  UNL     1     -26.879   5.018   8.934  1.00  0.00     0.209 HD
ENDBRANCH  36  37
ENDBRANCH  33  36
BRANCH  34  39
HETATM   39  N3  UNL     1     -28.306   1.471   8.015  1.00  0.00    -0.070 N 
ATOM     40  H33 UNL     1     -28.545   1.395   7.027  1.00  0.00     0.274 HD
ATOM     41  H32 UNL     1     -27.788   0.596   8.098  1.00  0.00     0.274 HD
ATOM     42  H31 UNL     1     -29.129   1.500   8.617  1.00  0.00     0.274 HD
ENDBRANCH  34  39
BRANCH  35  43
HETATM   43  O7  UNL     1     -26.374   1.074   9.707  1.00  0.00    -0.390 OA
ATOM     44  H7  UNL     1     -26.774   1.356  10.520  1.00  0.00     0.210 HD
ENDBRANCH  35  43
ENDBRANCH  30  31
ENDBRANCH   3  30
BRANCH   4  45
HETATM   45  N4  UNL     1     -22.976  -1.723   6.295  1.00  0.00    -0.069 N 
ATOM     46  H43 UNL     1     -22.434  -2.516   5.952  1.00  0.00     0.275 HD
ATOM     47  H42 UNL     1     -22.934  -1.906   7.297  1.00  0.00     0.275 HD
ATOM     48  H41 UNL     1     -23.938  -1.775   5.961  1.00  0.00     0.275 HD
ENDBRANCH   4  45
TORSDOF 18
ENDMDL
