MODEL 1
REMARK VINA RESULT: -7.773530664      0.000      0.000
REMARK  17 active torsions:
REMARK  status: ('A' for Active; 'I' for Inactive)
REMARK    1  A    between atoms: S1_2  and  N1_3 
REMARK    2  A    between atoms: S1_2  and  O8_38 
REMARK    3  A    between atoms: N1_3  and  C2_5 
REMARK    4  A    between atoms: C3_6  and  O1_7 
REMARK    5  A    between atoms: O1_7  and  C4_8 
REMARK    6  A    between atoms: C5_9  and  N2_10 
REMARK    7  A    between atoms: C8_16  and  O2_17 
REMARK    8  A    between atoms: O2_17  and  C9_18 
REMARK    9  A    between atoms: C9_18  and  C10_19 
REMARK   10  A    between atoms: C10_19  and  N3_20 
REMARK   11  A    between atoms: C11_24  and  O3_25 
REMARK   12  A    between atoms: C12_28  and  C13_29 
REMARK   13  A    between atoms: C13_29  and  O5_30 
REMARK   14  A    between atoms: C14_32  and  O6_33 
REMARK   15  A    between atoms: C15_35  and  O7_36 
REMARK   16  A    between atoms: O8_38  and  C16_39 
REMARK   17  A    between atoms: C16_39  and  C17_40 
ROOT
HETATM    1  C2  UNL     1     -22.688   1.536   1.993  1.00  0.00     0.176 C 
HETATM    2  C3  UNL     1     -22.338   1.250   3.461  1.00  0.00     0.286 C 
HETATM    3  O4  UNL     1     -21.616   0.072   3.591  1.00  0.00    -0.349 OA
HETATM    4  C12 UNL     1     -20.318   0.182   3.113  1.00  0.00     0.179 C 
HETATM    5  C14 UNL     1     -20.330   0.961   1.834  1.00  0.00     0.180 C 
HETATM    6  C15 UNL     1     -21.697   0.722   1.192  1.00  0.00     0.177 C 
ENDROOT
BRANCH   2   7
HETATM    7  O1  UNL     1     -23.478   1.140   4.213  1.00  0.00    -0.349 OA
BRANCH   7   8
HETATM    8  C4  UNL     1     -23.228   1.043   5.587  1.00  0.00     0.186 C 
HETATM    9  C5  UNL     1     -23.829  -0.171   6.212  1.00  0.00     0.215 C 
HETATM   10  C6  UNL     1     -24.198  -0.035   7.649  1.00  0.00     0.038 C 
HETATM   11  C7  UNL     1     -24.992   1.178   7.989  1.00  0.00     0.036 C 
HETATM   12  C8  UNL     1     -25.194   1.955   6.682  1.00  0.00     0.152 C 
HETATM   13  C11 UNL     1     -23.813   2.299   6.201  1.00  0.00     0.178 C 
BRANCH   9  14
HETATM   14  N2  UNL     1     -22.887  -1.304   6.142  1.00  0.00    -0.072 N 
ATOM     15  H23 UNL     1     -23.253  -2.069   5.576  1.00  0.00     0.274 HD
ATOM     16  H22 UNL     1     -22.065  -1.081   5.581  1.00  0.00     0.274 HD
ATOM     17  H21 UNL     1     -22.633  -1.614   7.081  1.00  0.00     0.274 HD
ENDBRANCH   9  14
BRANCH  12  18
HETATM   18  O2  UNL     1     -26.040   3.004   6.821  1.00  0.00    -0.382 OA
BRANCH  18  19
HETATM   19  C9  UNL     1     -27.026   2.898   7.751  1.00  0.00     0.195 C 
BRANCH  19  20
HETATM   20  C10 UNL     1     -27.152   4.130   8.642  1.00  0.00     0.255 C 
BRANCH  20  21
HETATM   21  N3  UNL     1     -27.198   3.749  10.042  1.00  0.00    -0.077 N 
ATOM     22  H33 UNL     1     -27.888   3.017  10.212  1.00  0.00     0.274 HD
ATOM     23  H32 UNL     1     -26.360   3.238  10.323  1.00  0.00     0.274 HD
ATOM     24  H31 UNL     1     -27.358   4.565  10.633  1.00  0.00     0.274 HD
ENDBRANCH  20  21
ENDBRANCH  19  20
ENDBRANCH  18  19
ENDBRANCH  12  18
BRANCH  13  25
HETATM   25  O3  UNL     1     -22.954   2.656   7.247  1.00  0.00    -0.390 OA
ATOM     26  H3  UNL     1     -22.681   3.548   7.071  1.00  0.00     0.210 HD
ENDBRANCH  13  25
ENDBRANCH   7   8
ENDBRANCH   2   7
BRANCH   1  27
HETATM   27  N1  UNL     1     -22.606   2.948   1.708  1.00  0.00    -0.341 N 
ATOM     28  H1  UNL     1     -23.209   3.271   0.951  1.00  0.00     0.169 HD
BRANCH  27  29
HETATM   29  S1  UNL     1     -21.677   4.137   2.426  1.00  0.00     0.001 SA
HETATM   30  C1  UNL     1     -22.662   5.877   2.783  1.00  0.00     0.133 C 
BRANCH  29  31
HETATM   31  O8  UNL     1     -20.082   4.375   2.635  1.00  0.00    -0.306 OA
BRANCH  31  32
HETATM   32  C16 UNL     1     -19.313   4.974   1.631  1.00  0.00     0.258 C 
BRANCH  32  33
HETATM   33  C17 UNL     1     -18.610   3.959   0.828  1.00  0.00     0.111 C 
HETATM   34  N4  UNL     1     -19.192   3.416  -0.209  1.00  0.00    -0.389 N 
ATOM     35  H42 UNL     1     -20.138   3.742  -0.408  1.00  0.00     0.157 HD
ATOM     36  H41 UNL     1     -18.705   2.713  -0.765  1.00  0.00     0.157 HD
HETATM   37  N5  UNL     1     -17.300   3.507   1.104  1.00  0.00    -0.086 NA
ENDBRANCH  32  33
ENDBRANCH  31  32
ENDBRANCH  29  31
ENDBRANCH  27  29
ENDBRANCH   1  27
BRANCH   6  38
HETATM   38  O7  UNL     1     -21.612   1.046  -0.131  1.00  0.00    -0.391 OA
ATOM     39  H7  UNL     1     -21.490   0.311  -0.720  1.00  0.00     0.210 HD
ENDBRANCH   6  38
BRANCH   4  40
HETATM   40  C13 UNL     1     -19.382   0.817   4.111  1.00  0.00     0.198 C 
BRANCH  40  41
HETATM   41  O5  UNL     1     -18.618   1.815   3.508  1.00  0.00    -0.398 OA
ATOM     42  H5  UNL     1     -17.899   1.437   3.014  1.00  0.00     0.209 HD
ENDBRANCH  40  41
ENDBRANCH   4  40
BRANCH   5  43
HETATM   43  O6  UNL     1     -19.358   0.458   0.972  1.00  0.00    -0.390 OA
ATOM     44  H6  UNL     1     -18.977   1.170   0.472  1.00  0.00     0.210 HD
ENDBRANCH   5  43
TORSDOF 17
ENDMDL
MODEL 2
REMARK VINA RESULT: -7.447535524      2.489      3.607
REMARK  17 active torsions:
REMARK  status: ('A' for Active; 'I' for Inactive)
REMARK    1  A    between atoms: S1_2  and  N1_3 
REMARK    2  A    between atoms: S1_2  and  O8_38 
REMARK    3  A    between atoms: N1_3  and  C2_5 
REMARK    4  A    between atoms: C3_6  and  O1_7 
REMARK    5  A    between atoms: O1_7  and  C4_8 
REMARK    6  A    between atoms: C5_9  and  N2_10 
REMARK    7  A    between atoms: C8_16  and  O2_17 
REMARK    8  A    between atoms: O2_17  and  C9_18 
REMARK    9  A    between atoms: C9_18  and  C10_19 
REMARK   10  A    between atoms: C10_19  and  N3_20 
REMARK   11  A    between atoms: C11_24  and  O3_25 
REMARK   12  A    between atoms: C12_28  and  C13_29 
REMARK   13  A    between atoms: C13_29  and  O5_30 
REMARK   14  A    between atoms: C14_32  and  O6_33 
REMARK   15  A    between atoms: C15_35  and  O7_36 
REMARK   16  A    between atoms: O8_38  and  C16_39 
REMARK   17  A    between atoms: C16_39  and  C17_40 
ROOT
HETATM    1  C2  UNL     1     -21.396   3.182   0.522  1.00  0.00     0.176 C 
HETATM    2  C3  UNL     1     -20.856   2.172   1.546  1.00  0.00     0.286 C 
HETATM    3  O4  UNL     1     -19.703   1.551   1.086  1.00  0.00    -0.349 OA
HETATM    4  C12 UNL     1     -18.605   2.399   1.072  1.00  0.00     0.179 C 
HETATM    5  C14 UNL     1     -19.029   3.743   0.565  1.00  0.00     0.180 C 
HETATM    6  C15 UNL     1     -20.216   3.501  -0.368  1.00  0.00     0.177 C 
ENDROOT
BRANCH   2   7
HETATM    7  O1  UNL     1     -21.791   1.205   1.805  1.00  0.00    -0.349 OA
BRANCH   7   8
HETATM    8  C4  UNL     1     -21.333   0.212   2.678  1.00  0.00     0.186 C 
HETATM    9  C5  UNL     1     -22.060  -1.083   2.533  1.00  0.00     0.215 C 
HETATM   10  C6  UNL     1     -22.138  -1.916   3.766  1.00  0.00     0.038 C 
HETATM   11  C7  UNL     1     -22.584  -1.197   4.990  1.00  0.00     0.036 C 
HETATM   12  C8  UNL     1     -22.841   0.259   4.580  1.00  0.00     0.152 C 
HETATM   13  C11 UNL     1     -21.522   0.771   4.073  1.00  0.00     0.178 C 
BRANCH   9  14
HETATM   14  N2  UNL     1     -21.407  -1.928   1.515  1.00  0.00    -0.072 N 
ATOM     15  H23 UNL     1     -21.621  -1.616   0.568  1.00  0.00     0.274 HD
ATOM     16  H22 UNL     1     -20.397  -1.787   1.496  1.00  0.00     0.274 HD
ATOM     17  H21 UNL     1     -21.651  -2.908   1.657  1.00  0.00     0.274 HD
ENDBRANCH   9  14
BRANCH  12  18
HETATM   18  O2  UNL     1     -23.408   0.991   5.570  1.00  0.00    -0.382 OA
BRANCH  18  19
HETATM   19  C9  UNL     1     -24.506   0.475   6.184  1.00  0.00     0.195 C 
BRANCH  19  20
HETATM   20  C10 UNL     1     -24.932   1.261   7.421  1.00  0.00     0.255 C 
BRANCH  20  21
HETATM   21  N3  UNL     1     -25.108   0.374   8.557  1.00  0.00    -0.077 N 
ATOM     22  H33 UNL     1     -25.194  -0.600   8.266  1.00  0.00     0.274 HD
ATOM     23  H32 UNL     1     -24.254   0.293   9.109  1.00  0.00     0.274 HD
ATOM     24  H31 UNL     1     -25.901   0.671   9.126  1.00  0.00     0.274 HD
ENDBRANCH  20  21
ENDBRANCH  19  20
ENDBRANCH  18  19
ENDBRANCH  12  18
BRANCH  13  25
HETATM   25  O3  UNL     1     -20.440   0.307   4.828  1.00  0.00    -0.390 OA
ATOM     26  H3  UNL     1     -20.812  -0.087   5.608  1.00  0.00     0.210 HD
ENDBRANCH  13  25
ENDBRANCH   7   8
ENDBRANCH   2   7
BRANCH   1  27
HETATM   27  N1  UNL     1     -21.927   4.351   1.180  1.00  0.00    -0.341 N 
ATOM     28  H1  UNL     1     -22.238   5.095   0.554  1.00  0.00     0.169 HD
BRANCH  27  29
HETATM   29  S1  UNL     1     -22.114   4.675   2.809  1.00  0.00     0.001 SA
HETATM   30  C1  UNL     1     -23.785   3.876   3.641  1.00  0.00     0.133 C 
BRANCH  29  31
HETATM   31  O8  UNL     1     -21.457   5.739   3.848  1.00  0.00    -0.306 OA
BRANCH  31  32
HETATM   32  C16 UNL     1     -21.003   6.986   3.400  1.00  0.00     0.258 C 
BRANCH  32  33
HETATM   33  C17 UNL     1     -19.534   7.015   3.320  1.00  0.00     0.111 C 
HETATM   34  N4  UNL     1     -18.902   6.239   2.479  1.00  0.00    -0.389 N 
ATOM     35  H42 UNL     1     -19.490   5.635   1.905  1.00  0.00     0.157 HD
ATOM     36  H41 UNL     1     -17.883   6.259   2.423  1.00  0.00     0.157 HD
HETATM   37  N5  UNL     1     -18.720   7.852   4.114  1.00  0.00    -0.086 NA
ENDBRANCH  32  33
ENDBRANCH  31  32
ENDBRANCH  29  31
ENDBRANCH  27  29
ENDBRANCH   1  27
BRANCH   6  38
HETATM   38  O7  UNL     1     -20.367   4.600  -1.164  1.00  0.00    -0.391 OA
ATOM     39  H7  UNL     1     -20.778   4.437  -2.004  1.00  0.00     0.210 HD
ENDBRANCH   6  38
BRANCH   4  40
HETATM   40  C13 UNL     1     -17.948   2.526   2.424  1.00  0.00     0.198 C 
BRANCH  40  41
HETATM   41  O5  UNL     1     -16.623   2.936   2.294  1.00  0.00    -0.398 OA
ATOM     42  H5  UNL     1     -16.393   3.555   2.977  1.00  0.00     0.209 HD
ENDBRANCH  40  41
ENDBRANCH   4  40
BRANCH   5  43
HETATM   43  O6  UNL     1     -18.000   4.305  -0.186  1.00  0.00    -0.390 OA
ATOM     44  H6  UNL     1     -17.886   5.215   0.060  1.00  0.00     0.210 HD
ENDBRANCH   5  43
TORSDOF 17
ENDMDL
MODEL 3
REMARK VINA RESULT: -7.441149411      1.029      1.044
REMARK  17 active torsions:
REMARK  status: ('A' for Active; 'I' for Inactive)
REMARK    1  A    between atoms: S1_2  and  N1_3 
REMARK    2  A    between atoms: S1_2  and  O8_38 
REMARK    3  A    between atoms: N1_3  and  C2_5 
REMARK    4  A    between atoms: C3_6  and  O1_7 
REMARK    5  A    between atoms: O1_7  and  C4_8 
REMARK    6  A    between atoms: C5_9  and  N2_10 
REMARK    7  A    between atoms: C8_16  and  O2_17 
REMARK    8  A    between atoms: O2_17  and  C9_18 
REMARK    9  A    between atoms: C9_18  and  C10_19 
REMARK   10  A    between atoms: C10_19  and  N3_20 
REMARK   11  A    between atoms: C11_24  and  O3_25 
REMARK   12  A    between atoms: C12_28  and  C13_29 
REMARK   13  A    between atoms: C13_29  and  O5_30 
REMARK   14  A    between atoms: C14_32  and  O6_33 
REMARK   15  A    between atoms: C15_35  and  O7_36 
REMARK   16  A    between atoms: O8_38  and  C16_39 
REMARK   17  A    between atoms: C16_39  and  C17_40 
ROOT
HETATM    1  C2  UNL     1     -22.668   2.415   2.882  1.00  0.00     0.176 C 
HETATM    2  C3  UNL     1     -22.601   1.313   3.951  1.00  0.00     0.286 C 
HETATM    3  O4  UNL     1     -22.444   0.059   3.378  1.00  0.00    -0.349 OA
HETATM    4  C12 UNL     1     -21.179  -0.132   2.840  1.00  0.00     0.179 C 
HETATM    5  C14 UNL     1     -20.754   1.116   2.129  1.00  0.00     0.180 C 
HETATM    6  C15 UNL     1     -22.034   1.803   1.654  1.00  0.00     0.177 C 
ENDROOT
BRANCH   2   7
HETATM    7  O1  UNL     1     -23.747   1.302   4.702  1.00  0.00    -0.349 OA
BRANCH   7   8
HETATM    8  C4  UNL     1     -23.516   1.053   6.059  1.00  0.00     0.186 C 
HETATM    9  C5  UNL     1     -23.935  -0.313   6.489  1.00  0.00     0.215 C 
HETATM   10  C6  UNL     1     -24.355  -0.436   7.913  1.00  0.00     0.038 C 
HETATM   11  C7  UNL     1     -25.334   0.584   8.378  1.00  0.00     0.036 C 
HETATM   12  C8  UNL     1     -25.624   1.497   7.179  1.00  0.00     0.152 C 
HETATM   13  C11 UNL     1     -24.302   2.109   6.811  1.00  0.00     0.178 C 
BRANCH   9  14
HETATM   14  N2  UNL     1     -22.828  -1.270   6.309  1.00  0.00    -0.072 N 
ATOM     15  H23 UNL     1     -23.118  -2.092   5.779  1.00  0.00     0.274 HD
ATOM     16  H22 UNL     1     -22.120  -0.917   5.665  1.00  0.00     0.274 HD
ATOM     17  H21 UNL     1     -22.427  -1.524   7.212  1.00  0.00     0.274 HD
ENDBRANCH   9  14
BRANCH  12  18
HETATM   18  O2  UNL     1     -26.625   2.377   7.421  1.00  0.00    -0.382 OA
BRANCH  18  19
HETATM   19  C9  UNL     1     -27.113   2.443   8.689  1.00  0.00     0.195 C 
BRANCH  19  20
HETATM   20  C10 UNL     1     -26.830   3.776   9.377  1.00  0.00     0.255 C 
BRANCH  20  21
HETATM   21  N3  UNL     1     -25.509   3.772   9.979  1.00  0.00    -0.077 N 
ATOM     22  H33 UNL     1     -25.297   4.660  10.433  1.00  0.00     0.274 HD
ATOM     23  H32 UNL     1     -25.469   3.167  10.799  1.00  0.00     0.274 HD
ATOM     24  H31 UNL     1     -24.799   3.521   9.289  1.00  0.00     0.274 HD
ENDBRANCH  20  21
ENDBRANCH  19  20
ENDBRANCH  18  19
ENDBRANCH  12  18
BRANCH  13  25
HETATM   25  O3  UNL     1     -23.533   2.441   7.932  1.00  0.00    -0.390 OA
ATOM     26  H3  UNL     1     -23.242   1.617   8.305  1.00  0.00     0.210 HD
ENDBRANCH  13  25
ENDBRANCH   7   8
ENDBRANCH   2   7
BRANCH   1  27
HETATM   27  N1  UNL     1     -21.985   3.607   3.325  1.00  0.00    -0.341 N 
ATOM     28  H1  UNL     1     -21.765   3.632   4.321  1.00  0.00     0.169 HD
BRANCH  27  29
HETATM   29  S1  UNL     1     -21.499   4.951   2.458  1.00  0.00     0.001 SA
HETATM   30  C1  UNL     1     -22.759   6.539   2.590  1.00  0.00     0.133 C 
BRANCH  29  31
HETATM   31  O8  UNL     1     -20.423   5.221   1.270  1.00  0.00    -0.306 OA
BRANCH  31  32
HETATM   32  C16 UNL     1     -19.048   5.135   1.521  1.00  0.00     0.258 C 
BRANCH  32  33
HETATM   33  C17 UNL     1     -18.447   4.008   0.789  1.00  0.00     0.111 C 
HETATM   34  N4  UNL     1     -19.052   3.496  -0.251  1.00  0.00    -0.389 N 
ATOM     35  H42 UNL     1     -19.941   3.928  -0.503  1.00  0.00     0.157 HD
ATOM     36  H41 UNL     1     -18.635   2.715  -0.758  1.00  0.00     0.157 HD
HETATM   37  N5  UNL     1     -17.216   3.411   1.139  1.00  0.00    -0.086 NA
ENDBRANCH  32  33
ENDBRANCH  31  32
ENDBRANCH  29  31
ENDBRANCH  27  29
ENDBRANCH   1  27
BRANCH   6  38
HETATM   38  O7  UNL     1     -21.706   2.687   0.667  1.00  0.00    -0.391 OA
ATOM     39  H7  UNL     1     -21.168   2.333  -0.032  1.00  0.00     0.210 HD
ENDBRANCH   6  38
BRANCH   4  40
HETATM   40  C13 UNL     1     -20.157  -0.525   3.878  1.00  0.00     0.198 C 
BRANCH  40  41
HETATM   41  O5  UNL     1     -18.865  -0.409   3.369  1.00  0.00    -0.398 OA
ATOM     42  H5  UNL     1     -18.453  -1.263   3.299  1.00  0.00     0.209 HD
ENDBRANCH  40  41
ENDBRANCH   4  40
BRANCH   5  43
HETATM   43  O6  UNL     1     -20.004   0.781   1.005  1.00  0.00    -0.390 OA
ATOM     44  H6  UNL     1     -20.106   1.453   0.342  1.00  0.00     0.210 HD
ENDBRANCH   5  43
TORSDOF 17
ENDMDL
MODEL 4
REMARK VINA RESULT: -7.246102738      2.723      4.903
REMARK  17 active torsions:
REMARK  status: ('A' for Active; 'I' for Inactive)
REMARK    1  A    between atoms: S1_2  and  N1_3 
REMARK    2  A    between atoms: S1_2  and  O8_38 
REMARK    3  A    between atoms: N1_3  and  C2_5 
REMARK    4  A    between atoms: C3_6  and  O1_7 
REMARK    5  A    between atoms: O1_7  and  C4_8 
REMARK    6  A    between atoms: C5_9  and  N2_10 
REMARK    7  A    between atoms: C8_16  and  O2_17 
REMARK    8  A    between atoms: O2_17  and  C9_18 
REMARK    9  A    between atoms: C9_18  and  C10_19 
REMARK   10  A    between atoms: C10_19  and  N3_20 
REMARK   11  A    between atoms: C11_24  and  O3_25 
REMARK   12  A    between atoms: C12_28  and  C13_29 
REMARK   13  A    between atoms: C13_29  and  O5_30 
REMARK   14  A    between atoms: C14_32  and  O6_33 
REMARK   15  A    between atoms: C15_35  and  O7_36 
REMARK   16  A    between atoms: O8_38  and  C16_39 
REMARK   17  A    between atoms: C16_39  and  C17_40 
ROOT
HETATM    1  C2  UNL     1     -21.070   3.508   0.775  1.00  0.00     0.176 C 
HETATM    2  C3  UNL     1     -20.346   2.692   1.858  1.00  0.00     0.286 C 
HETATM    3  O4  UNL     1     -19.291   1.967   1.325  1.00  0.00    -0.349 OA
HETATM    4  C12 UNL     1     -18.219   2.768   0.956  1.00  0.00     0.179 C 
HETATM    5  C14 UNL     1     -18.739   4.005   0.289  1.00  0.00     0.180 C 
HETATM    6  C15 UNL     1     -20.072   3.625  -0.354  1.00  0.00     0.177 C 
ENDROOT
BRANCH   2   7
HETATM    7  O1  UNL     1     -21.212   1.816   2.457  1.00  0.00    -0.349 OA
BRANCH   7   8
HETATM    8  C4  UNL     1     -20.828   0.477   2.320  1.00  0.00     0.186 C 
HETATM    9  C5  UNL     1     -21.822  -0.350   1.577  1.00  0.00     0.215 C 
HETATM   10  C6  UNL     1     -21.857  -1.793   1.945  1.00  0.00     0.038 C 
HETATM   11  C7  UNL     1     -21.926  -2.075   3.405  1.00  0.00     0.036 C 
HETATM   12  C8  UNL     1     -21.940  -0.717   4.118  1.00  0.00     0.152 C 
HETATM   13  C11 UNL     1     -20.651  -0.047   3.731  1.00  0.00     0.178 C 
BRANCH   9  14
HETATM   14  N2  UNL     1     -21.545  -0.308   0.129  1.00  0.00    -0.072 N 
ATOM     15  H23 UNL     1     -20.974   0.497  -0.126  1.00  0.00     0.274 HD
ATOM     16  H22 UNL     1     -20.902  -1.047  -0.157  1.00  0.00     0.274 HD
ATOM     17  H21 UNL     1     -22.417  -0.339  -0.401  1.00  0.00     0.274 HD
ENDBRANCH   9  14
BRANCH  12  18
HETATM   18  O2  UNL     1     -22.161  -0.826   5.450  1.00  0.00    -0.382 OA
BRANCH  18  19
HETATM   19  C9  UNL     1     -23.040  -1.777   5.865  1.00  0.00     0.195 C 
BRANCH  19  20
HETATM   20  C10 UNL     1     -24.401  -1.210   6.260  1.00  0.00     0.255 C 
BRANCH  20  21
HETATM   21  N3  UNL     1     -24.282  -0.352   7.426  1.00  0.00    -0.077 N 
ATOM     22  H33 UNL     1     -23.493  -0.623   8.014  1.00  0.00     0.274 HD
ATOM     23  H32 UNL     1     -23.970   0.586   7.175  1.00  0.00     0.274 HD
ATOM     24  H31 UNL     1     -25.157  -0.334   7.950  1.00  0.00     0.274 HD
ENDBRANCH  20  21
ENDBRANCH  19  20
ENDBRANCH  18  19
ENDBRANCH  12  18
BRANCH  13  25
HETATM   25  O3  UNL     1     -19.576  -0.940   3.682  1.00  0.00    -0.390 OA
ATOM     26  H3  UNL     1     -19.062  -0.693   2.922  1.00  0.00     0.210 HD
ENDBRANCH  13  25
ENDBRANCH   7   8
ENDBRANCH   2   7
BRANCH   1  27
HETATM   27  N1  UNL     1     -21.484   4.793   1.286  1.00  0.00    -0.341 N 
ATOM     28  H1  UNL     1     -21.598   5.521   0.580  1.00  0.00     0.169 HD
BRANCH  27  29
HETATM   29  S1  UNL     1     -21.805   5.273   2.855  1.00  0.00     0.001 SA
HETATM   30  C1  UNL     1     -20.535   6.682   3.581  1.00  0.00     0.133 C 
BRANCH  29  31
HETATM   31  O8  UNL     1     -22.692   4.672   4.077  1.00  0.00    -0.306 OA
BRANCH  31  32
HETATM   32  C16 UNL     1     -23.524   3.564   3.877  1.00  0.00     0.258 C 
BRANCH  32  33
HETATM   33  C17 UNL     1     -23.552   2.702   5.069  1.00  0.00     0.111 C 
HETATM   34  N4  UNL     1     -22.454   2.144   5.507  1.00  0.00    -0.389 N 
ATOM     35  H42 UNL     1     -21.608   2.350   4.975  1.00  0.00     0.157 HD
ATOM     36  H41 UNL     1     -22.472   1.546   6.334  1.00  0.00     0.157 HD
HETATM   37  N5  UNL     1     -24.722   2.417   5.807  1.00  0.00    -0.086 NA
ENDBRANCH  32  33
ENDBRANCH  31  32
ENDBRANCH  29  31
ENDBRANCH  27  29
ENDBRANCH   1  27
BRANCH   6  38
HETATM   38  O7  UNL     1     -20.373   4.559  -1.303  1.00  0.00    -0.391 OA
ATOM     39  H7  UNL     1     -20.142   4.321  -2.193  1.00  0.00     0.210 HD
ENDBRANCH   6  38
BRANCH   4  40
HETATM   40  C13 UNL     1     -17.331   3.127   2.121  1.00  0.00     0.198 C 
BRANCH  40  41
HETATM   41  O5  UNL     1     -16.336   2.168   2.297  1.00  0.00    -0.398 OA
ATOM     42  H5  UNL     1     -16.093   2.099   3.214  1.00  0.00     0.209 HD
ENDBRANCH  40  41
ENDBRANCH   4  40
BRANCH   5  43
HETATM   43  O6  UNL     1     -17.867   4.389  -0.726  1.00  0.00    -0.390 OA
ATOM     44  H6  UNL     1     -18.191   4.073  -1.561  1.00  0.00     0.210 HD
ENDBRANCH   5  43
TORSDOF 17
ENDMDL
MODEL 5
REMARK VINA RESULT: -7.113898790      1.211      1.431
REMARK  17 active torsions:
REMARK  status: ('A' for Active; 'I' for Inactive)
REMARK    1  A    between atoms: S1_2  and  N1_3 
REMARK    2  A    between atoms: S1_2  and  O8_38 
REMARK    3  A    between atoms: N1_3  and  C2_5 
REMARK    4  A    between atoms: C3_6  and  O1_7 
REMARK    5  A    between atoms: O1_7  and  C4_8 
REMARK    6  A    between atoms: C5_9  and  N2_10 
REMARK    7  A    between atoms: C8_16  and  O2_17 
REMARK    8  A    between atoms: O2_17  and  C9_18 
REMARK    9  A    between atoms: C9_18  and  C10_19 
REMARK   10  A    between atoms: C10_19  and  N3_20 
REMARK   11  A    between atoms: C11_24  and  O3_25 
REMARK   12  A    between atoms: C12_28  and  C13_29 
REMARK   13  A    between atoms: C13_29  and  O5_30 
REMARK   14  A    between atoms: C14_32  and  O6_33 
REMARK   15  A    between atoms: C15_35  and  O7_36 
REMARK   16  A    between atoms: O8_38  and  C16_39 
REMARK   17  A    between atoms: C16_39  and  C17_40 
ROOT
HETATM    1  C2  UNL     1     -22.575   1.732   2.062  1.00  0.00     0.176 C 
HETATM    2  C3  UNL     1     -22.280   1.267   3.497  1.00  0.00     0.286 C 
HETATM    3  O4  UNL     1     -21.719  -0.002   3.514  1.00  0.00    -0.349 OA
HETATM    4  C12 UNL     1     -20.413  -0.018   3.045  1.00  0.00     0.179 C 
HETATM    5  C14 UNL     1     -20.311   0.870   1.844  1.00  0.00     0.180 C 
HETATM    6  C15 UNL     1     -21.691   0.873   1.187  1.00  0.00     0.177 C 
ENDROOT
BRANCH   2   7
HETATM    7  O1  UNL     1     -23.432   1.238   4.239  1.00  0.00    -0.349 OA
BRANCH   7   8
HETATM    8  C4  UNL     1     -23.202   1.119   5.613  1.00  0.00     0.186 C 
HETATM    9  C5  UNL     1     -23.797  -0.113   6.207  1.00  0.00     0.215 C 
HETATM   10  C6  UNL     1     -24.190  -0.008   7.641  1.00  0.00     0.038 C 
HETATM   11  C7  UNL     1     -25.003   1.189   7.990  1.00  0.00     0.036 C 
HETATM   12  C8  UNL     1     -25.195   1.988   6.694  1.00  0.00     0.152 C 
HETATM   13  C11 UNL     1     -23.810   2.357   6.242  1.00  0.00     0.178 C 
BRANCH   9  14
HETATM   14  N2  UNL     1     -22.840  -1.233   6.132  1.00  0.00    -0.072 N 
ATOM     15  H23 UNL     1     -23.305  -2.117   5.926  1.00  0.00     0.274 HD
ATOM     16  H22 UNL     1     -22.251  -1.175   5.301  1.00  0.00     0.274 HD
ATOM     17  H21 UNL     1     -22.286  -1.286   6.987  1.00  0.00     0.274 HD
ENDBRANCH   9  14
BRANCH  12  18
HETATM   18  O2  UNL     1     -26.055   3.024   6.839  1.00  0.00    -0.382 OA
BRANCH  18  19
HETATM   19  C9  UNL     1     -27.016   2.915   7.795  1.00  0.00     0.195 C 
BRANCH  19  20
HETATM   20  C10 UNL     1     -27.149   4.163   8.664  1.00  0.00     0.255 C 
BRANCH  20  21
HETATM   21  N3  UNL     1     -27.208   3.805  10.069  1.00  0.00    -0.077 N 
ATOM     22  H33 UNL     1     -26.292   3.867  10.514  1.00  0.00     0.274 HD
ATOM     23  H32 UNL     1     -27.694   4.514  10.620  1.00  0.00     0.274 HD
ATOM     24  H31 UNL     1     -27.626   2.882  10.189  1.00  0.00     0.274 HD
ENDBRANCH  20  21
ENDBRANCH  19  20
ENDBRANCH  18  19
ENDBRANCH  12  18
BRANCH  13  25
HETATM   25  O3  UNL     1     -22.973   2.705   7.306  1.00  0.00    -0.390 OA
ATOM     26  H3  UNL     1     -23.536   2.800   8.065  1.00  0.00     0.210 HD
ENDBRANCH  13  25
ENDBRANCH   7   8
ENDBRANCH   2   7
BRANCH   1  27
HETATM   27  N1  UNL     1     -22.307   3.141   1.910  1.00  0.00    -0.341 N 
ATOM     28  H1  UNL     1     -22.016   3.426   0.974  1.00  0.00     0.169 HD
BRANCH  27  29
HETATM   29  S1  UNL     1     -22.401   4.380   3.028  1.00  0.00     0.001 SA
HETATM   30  C1  UNL     1     -24.250   5.194   3.231  1.00  0.00     0.133 C 
BRANCH  29  31
HETATM   31  O8  UNL     1     -21.315   5.325   3.784  1.00  0.00    -0.306 OA
BRANCH  31  32
HETATM   32  C16 UNL     1     -20.930   6.552   3.229  1.00  0.00     0.258 C 
BRANCH  32  33
HETATM   33  C17 UNL     1     -19.524   6.518   2.796  1.00  0.00     0.111 C 
HETATM   34  N4  UNL     1     -18.666   7.387   3.263  1.00  0.00    -0.389 N 
ATOM     35  H42 UNL     1     -19.039   8.065   3.928  1.00  0.00     0.157 HD
ATOM     36  H41 UNL     1     -17.692   7.363   2.962  1.00  0.00     0.157 HD
HETATM   37  N5  UNL     1     -19.007   5.580   1.875  1.00  0.00    -0.086 NA
ENDBRANCH  32  33
ENDBRANCH  31  32
ENDBRANCH  29  31
ENDBRANCH  27  29
ENDBRANCH   1  27
BRANCH   6  38
HETATM   38  O7  UNL     1     -21.553   1.303  -0.101  1.00  0.00    -0.391 OA
ATOM     39  H7  UNL     1     -20.669   1.271  -0.446  1.00  0.00     0.210 HD
ENDBRANCH   6  38
BRANCH   4  40
HETATM   40  C13 UNL     1     -19.411   0.393   4.095  1.00  0.00     0.198 C 
BRANCH  40  41
HETATM   41  O5  UNL     1     -18.708   1.526   3.690  1.00  0.00    -0.398 OA
ATOM     42  H5  UNL     1     -18.259   1.368   2.867  1.00  0.00     0.209 HD
ENDBRANCH  40  41
ENDBRANCH   4  40
BRANCH   5  43
HETATM   43  O6  UNL     1     -19.405   0.326   0.937  1.00  0.00    -0.390 OA
ATOM     44  H6  UNL     1     -19.111   1.002   0.337  1.00  0.00     0.210 HD
ENDBRANCH   5  43
TORSDOF 17
ENDMDL
