MODEL 1
REMARK VINA RESULT: -8.092654984      0.000      0.000
REMARK  9 active torsions:
REMARK  status: ('A' for Active; 'I' for Inactive)
REMARK    1  A    between atoms: C1_4  and  N2_5 
REMARK    2  A    between atoms: C1_4  and  C8_15 
REMARK    3  A    between atoms: N2_5  and  C2_7 
REMARK    4  A    between atoms: C2_7  and  C3_8 
REMARK    5  A    between atoms: C8_15  and  O1_16 
REMARK    6  A    between atoms: C8_15  and  C9_18 
REMARK    7  A    between atoms: C9_18  and  C10_20 
REMARK    8  A    between atoms: C12_24  and  C13_25 
REMARK    9  A    between atoms: C13_25  and  O2_26 
ROOT
HETATM    1  C8  UNL     1     -22.529  -1.300   3.859  1.00  0.00     0.223 C 
ENDROOT
BRANCH   1   2
HETATM    2  C1  UNL     1     -23.182  -1.233   5.175  1.00  0.00     0.103 C 
HETATM    3  N1  UNL     1     -23.220  -2.240   5.959  1.00  0.00    -0.387 N 
ATOM      4  H12 UNL     1     -23.673  -2.193   6.872  1.00  0.00     0.157 HD
ATOM      5  H11 UNL     1     -22.786  -3.114   5.664  1.00  0.00     0.157 HD
BRANCH   2   6
HETATM    6  N2  UNL     1     -23.785  -0.019   5.583  1.00  0.00    -0.372 N 
ATOM      7  H2  UNL     1     -24.656   0.252   5.128  1.00  0.00     0.161 HD
BRANCH   6   8
HETATM    8  C2  UNL     1     -23.262   0.854   6.584  1.00  0.00     0.177 C 
BRANCH   8   9
HETATM    9  C3  UNL     1     -24.353   1.308   7.473  1.00  0.00     0.026 A 
HETATM   10  C4  UNL     1     -25.160   0.388   8.128  1.00  0.00     0.027 A 
HETATM   11  C5  UNL     1     -26.183   0.770   8.960  1.00  0.00     0.003 A 
HETATM   12  C6  UNL     1     -26.418   2.106   9.152  1.00  0.00     0.017 A 
HETATM   13  C7  UNL     1     -25.612   3.010   8.498  1.00  0.00     0.088 A 
HETATM   14  N3  UNL     1     -24.611   2.607   7.682  1.00  0.00    -0.368 N 
ATOM     15  H3  UNL     1     -24.037   3.309   7.215  1.00  0.00     0.165 HD
ENDBRANCH   8   9
ENDBRANCH   6   8
ENDBRANCH   2   6
ENDBRANCH   1   2
BRANCH   1  16
HETATM   16  O1  UNL     1     -22.350  -2.638   3.437  1.00  0.00    -0.385 OA
ATOM     17  H1  UNL     1     -21.574  -2.732   2.897  1.00  0.00     0.210 HD
ENDBRANCH   1  16
BRANCH   1  18
HETATM   18  C9  UNL     1     -21.147  -0.684   3.870  1.00  0.00     0.254 C 
HETATM   19  F1  UNL     1     -20.654  -0.462   5.115  1.00  0.00    -0.242 F 
BRANCH  18  20
HETATM   20  C10 UNL     1     -21.215   0.617   3.078  1.00  0.00     0.253 C 
HETATM   21  N4  UNL     1     -20.657   1.663   3.863  1.00  0.00    -0.394 N 
HETATM   22  C11 UNL     1     -19.257   1.883   3.720  1.00  0.00     0.125 C 
ATOM     23  H4  UNL     1     -21.228   2.224   4.494  1.00  0.00     0.155 HD
HETATM   24  C12 UNL     1     -18.792   1.762   2.305  1.00  0.00     0.051 C 
HETATM   25  C14 UNL     1     -20.037   1.585   1.435  1.00  0.00     0.178 C 
HETATM   26  O3  UNL     1     -20.632   0.403   1.860  1.00  0.00    -0.364 OA
BRANCH  24  27
HETATM   27  C13 UNL     1     -18.141   3.055   1.853  1.00  0.00     0.172 C 
BRANCH  27  28
HETATM   28  O2  UNL     1     -16.764   3.010   1.975  1.00  0.00    -0.400 OA
ATOM     29  H2  UNL     1     -16.474   3.298   2.832  1.00  0.00     0.209 HD
ENDBRANCH  27  28
ENDBRANCH  24  27
ENDBRANCH  18  20
ENDBRANCH   1  18
TORSDOF 9
ENDMDL
MODEL 2
REMARK VINA RESULT: -8.076889694      1.452      1.786
REMARK  9 active torsions:
REMARK  status: ('A' for Active; 'I' for Inactive)
REMARK    1  A    between atoms: C1_4  and  N2_5 
REMARK    2  A    between atoms: C1_4  and  C8_15 
REMARK    3  A    between atoms: N2_5  and  C2_7 
REMARK    4  A    between atoms: C2_7  and  C3_8 
REMARK    5  A    between atoms: C8_15  and  O1_16 
REMARK    6  A    between atoms: C8_15  and  C9_18 
REMARK    7  A    between atoms: C9_18  and  C10_20 
REMARK    8  A    between atoms: C12_24  and  C13_25 
REMARK    9  A    between atoms: C13_25  and  O2_26 
ROOT
HETATM    1  C8  UNL     1     -21.846  -0.711   3.627  1.00  0.00     0.223 C 
ENDROOT
BRANCH   1   2
HETATM    2  C1  UNL     1     -22.825  -1.254   4.582  1.00  0.00     0.103 C 
HETATM    3  N1  UNL     1     -23.130  -2.493   4.600  1.00  0.00    -0.387 N 
ATOM      4  H12 UNL     1     -23.809  -2.869   5.263  1.00  0.00     0.157 HD
ATOM      5  H11 UNL     1     -22.683  -3.124   3.935  1.00  0.00     0.157 HD
BRANCH   2   6
HETATM    6  N2  UNL     1     -23.444  -0.378   5.505  1.00  0.00    -0.372 N 
ATOM      7  H2  UNL     1     -23.576   0.593   5.220  1.00  0.00     0.161 HD
BRANCH   6   8
HETATM    8  C2  UNL     1     -23.898  -0.752   6.805  1.00  0.00     0.177 C 
BRANCH   8   9
HETATM    9  C3  UNL     1     -24.604   0.383   7.436  1.00  0.00     0.026 A 
HETATM   10  C4  UNL     1     -24.360   1.685   7.022  1.00  0.00     0.027 A 
HETATM   11  C5  UNL     1     -24.995   2.765   7.583  1.00  0.00     0.003 A 
HETATM   12  C6  UNL     1     -25.902   2.554   8.587  1.00  0.00     0.017 A 
HETATM   13  C7  UNL     1     -26.138   1.258   8.990  1.00  0.00     0.088 A 
HETATM   14  N3  UNL     1     -25.498   0.212   8.421  1.00  0.00    -0.368 N 
ATOM     15  H3  UNL     1     -25.700  -0.732   8.750  1.00  0.00     0.165 HD
ENDBRANCH   8   9
ENDBRANCH   6   8
ENDBRANCH   2   6
ENDBRANCH   1   2
BRANCH   1  16
HETATM   16  O1  UNL     1     -20.976  -1.719   3.149  1.00  0.00    -0.385 OA
ATOM     17  H1  UNL     1     -21.148  -1.923   2.236  1.00  0.00     0.210 HD
ENDBRANCH   1  16
BRANCH   1  18
HETATM   18  C9  UNL     1     -20.955   0.340   4.250  1.00  0.00     0.254 C 
HETATM   19  F1  UNL     1     -21.574   1.528   4.465  1.00  0.00    -0.242 F 
BRANCH  18  20
HETATM   20  C10 UNL     1     -19.746   0.519   3.339  1.00  0.00     0.253 C 
HETATM   21  N4  UNL     1     -20.199   0.709   2.005  1.00  0.00    -0.394 N 
HETATM   22  C11 UNL     1     -20.447   2.055   1.607  1.00  0.00     0.125 C 
ATOM     23  H4  UNL     1     -20.340  -0.074   1.368  1.00  0.00     0.155 HD
HETATM   24  C12 UNL     1     -19.424   3.012   2.129  1.00  0.00     0.051 C 
HETATM   25  C14 UNL     1     -18.337   2.182   2.813  1.00  0.00     0.178 C 
HETATM   26  O3  UNL     1     -18.967   1.516   3.858  1.00  0.00    -0.364 OA
BRANCH  24  27
HETATM   27  C13 UNL     1     -18.746   3.734   0.982  1.00  0.00     0.172 C 
BRANCH  27  28
HETATM   28  O2  UNL     1     -17.379   3.834   1.171  1.00  0.00    -0.400 OA
ATOM     29  H2  UNL     1     -16.917   3.975   0.353  1.00  0.00     0.209 HD
ENDBRANCH  27  28
ENDBRANCH  24  27
ENDBRANCH  18  20
ENDBRANCH   1  18
TORSDOF 9
ENDMDL
MODEL 3
REMARK VINA RESULT: -8.053163441      1.310      1.525
REMARK  9 active torsions:
REMARK  status: ('A' for Active; 'I' for Inactive)
REMARK    1  A    between atoms: C1_4  and  N2_5 
REMARK    2  A    between atoms: C1_4  and  C8_15 
REMARK    3  A    between atoms: N2_5  and  C2_7 
REMARK    4  A    between atoms: C2_7  and  C3_8 
REMARK    5  A    between atoms: C8_15  and  O1_16 
REMARK    6  A    between atoms: C8_15  and  C9_18 
REMARK    7  A    between atoms: C9_18  and  C10_20 
REMARK    8  A    between atoms: C12_24  and  C13_25 
REMARK    9  A    between atoms: C13_25  and  O2_26 
ROOT
HETATM    1  C8  UNL     1     -22.250  -1.060   3.338  1.00  0.00     0.223 C 
ENDROOT
BRANCH   1   2
HETATM    2  C1  UNL     1     -22.954  -1.115   4.628  1.00  0.00     0.103 C 
HETATM    3  N1  UNL     1     -23.156  -2.218   5.237  1.00  0.00    -0.387 N 
ATOM      4  H12 UNL     1     -23.645  -2.257   6.132  1.00  0.00     0.157 HD
ATOM      5  H11 UNL     1     -22.821  -3.085   4.818  1.00  0.00     0.157 HD
BRANCH   2   6
HETATM    6  N2  UNL     1     -23.419   0.088   5.210  1.00  0.00    -0.372 N 
ATOM      7  H2  UNL     1     -24.181   0.577   4.740  1.00  0.00     0.161 HD
BRANCH   6   8
HETATM    8  C2  UNL     1     -22.901   0.668   6.407  1.00  0.00     0.177 C 
BRANCH   8   9
HETATM    9  C3  UNL     1     -24.015   1.118   7.269  1.00  0.00     0.026 A 
HETATM   10  C4  UNL     1     -24.824   0.195   7.917  1.00  0.00     0.027 A 
HETATM   11  C5  UNL     1     -25.867   0.574   8.724  1.00  0.00     0.003 A 
HETATM   12  C6  UNL     1     -26.121   1.908   8.900  1.00  0.00     0.017 A 
HETATM   13  C7  UNL     1     -25.312   2.816   8.253  1.00  0.00     0.088 A 
HETATM   14  N3  UNL     1     -24.291   2.416   7.461  1.00  0.00    -0.368 N 
ATOM     15  H3  UNL     1     -23.715   3.120   7.000  1.00  0.00     0.165 HD
ENDBRANCH   8   9
ENDBRANCH   6   8
ENDBRANCH   2   6
ENDBRANCH   1   2
BRANCH   1  16
HETATM   16  O1  UNL     1     -21.025  -1.765   3.386  1.00  0.00    -0.385 OA
ATOM     17  H1  UNL     1     -20.355  -1.268   3.842  1.00  0.00     0.210 HD
ENDBRANCH   1  16
BRANCH   1  18
HETATM   18  C9  UNL     1     -21.894   0.354   2.936  1.00  0.00     0.254 C 
HETATM   19  F1  UNL     1     -22.549   0.792   1.829  1.00  0.00    -0.242 F 
BRANCH  18  20
HETATM   20  C10 UNL     1     -20.386   0.409   2.726  1.00  0.00     0.253 C 
HETATM   21  N4  UNL     1     -20.122   0.706   1.360  1.00  0.00    -0.394 N 
HETATM   22  C11 UNL     1     -20.017   2.086   1.023  1.00  0.00     0.125 C 
ATOM     23  H4  UNL     1     -20.013  -0.027   0.661  1.00  0.00     0.155 HD
HETATM   24  C12 UNL     1     -19.284   2.882   2.054  1.00  0.00     0.051 C 
HETATM   25  C14 UNL     1     -18.745   1.893   3.088  1.00  0.00     0.178 C 
HETATM   26  O3  UNL     1     -19.861   1.277   3.642  1.00  0.00    -0.364 OA
BRANCH  24  27
HETATM   27  C13 UNL     1     -18.072   3.552   1.438  1.00  0.00     0.172 C 
BRANCH  27  28
HETATM   28  O2  UNL     1     -16.889   3.071   1.970  1.00  0.00    -0.400 OA
ATOM     29  H2  UNL     1     -16.138   3.575   1.679  1.00  0.00     0.209 HD
ENDBRANCH  27  28
ENDBRANCH  24  27
ENDBRANCH  18  20
ENDBRANCH   1  18
TORSDOF 9
ENDMDL
MODEL 4
REMARK VINA RESULT: -8.007740629      3.343      7.266
REMARK  9 active torsions:
REMARK  status: ('A' for Active; 'I' for Inactive)
REMARK    1  A    between atoms: C1_4  and  N2_5 
REMARK    2  A    between atoms: C1_4  and  C8_15 
REMARK    3  A    between atoms: N2_5  and  C2_7 
REMARK    4  A    between atoms: C2_7  and  C3_8 
REMARK    5  A    between atoms: C8_15  and  O1_16 
REMARK    6  A    between atoms: C8_15  and  C9_18 
REMARK    7  A    between atoms: C9_18  and  C10_20 
REMARK    8  A    between atoms: C12_24  and  C13_25 
REMARK    9  A    between atoms: C13_25  and  O2_26 
ROOT
HETATM    1  C8  UNL     1     -23.667  -0.613   7.141  1.00  0.00     0.223 C 
ENDROOT
BRANCH   1   2
HETATM    2  C1  UNL     1     -23.756  -1.603   6.058  1.00  0.00     0.103 C 
HETATM    3  N1  UNL     1     -24.180  -2.789   6.265  1.00  0.00    -0.387 N 
ATOM      4  H12 UNL     1     -24.242  -3.476   5.513  1.00  0.00     0.157 HD
ATOM      5  H11 UNL     1     -24.464  -3.057   7.207  1.00  0.00     0.157 HD
BRANCH   2   6
HETATM    6  N2  UNL     1     -23.362  -1.230   4.751  1.00  0.00    -0.372 N 
ATOM      7  H2  UNL     1     -23.963  -0.582   4.243  1.00  0.00     0.161 HD
BRANCH   6   8
HETATM    8  C2  UNL     1     -22.184  -1.695   4.091  1.00  0.00     0.177 C 
BRANCH   8   9
HETATM    9  C3  UNL     1     -21.247  -0.570   3.889  1.00  0.00     0.026 A 
HETATM   10  C4  UNL     1     -20.650   0.058   4.973  1.00  0.00     0.027 A 
HETATM   11  C5  UNL     1     -19.776   1.105   4.826  1.00  0.00     0.003 A 
HETATM   12  C6  UNL     1     -19.478   1.549   3.565  1.00  0.00     0.017 A 
HETATM   13  C7  UNL     1     -20.075   0.919   2.495  1.00  0.00     0.088 A 
HETATM   14  N3  UNL     1     -20.934  -0.110   2.668  1.00  0.00    -0.368 N 
ATOM     15  H3  UNL     1     -21.356  -0.549   1.849  1.00  0.00     0.165 HD
ENDBRANCH   8   9
ENDBRANCH   6   8
ENDBRANCH   2   6
ENDBRANCH   1   2
BRANCH   1  16
HETATM   16  O1  UNL     1     -24.164  -1.132   8.360  1.00  0.00    -0.385 OA
ATOM     17  H1  UNL     1     -24.135  -2.082   8.371  1.00  0.00     0.210 HD
ENDBRANCH   1  16
BRANCH   1  18
HETATM   18  C9  UNL     1     -24.486   0.627   6.858  1.00  0.00     0.254 C 
HETATM   19  F1  UNL     1     -23.918   1.467   5.956  1.00  0.00    -0.242 F 
BRANCH  18  20
HETATM   20  C10 UNL     1     -24.720   1.339   8.185  1.00  0.00     0.253 C 
HETATM   21  N4  UNL     1     -24.583   2.741   7.986  1.00  0.00    -0.394 N 
HETATM   22  C11 UNL     1     -25.767   3.447   7.628  1.00  0.00     0.125 C 
ATOM     23  H4  UNL     1     -23.687   3.214   8.092  1.00  0.00     0.155 HD
HETATM   24  C12 UNL     1     -26.973   2.972   8.373  1.00  0.00     0.051 C 
HETATM   25  C14 UNL     1     -26.492   1.958   9.411  1.00  0.00     0.178 C 
HETATM   26  O3  UNL     1     -25.919   0.918   8.689  1.00  0.00    -0.364 OA
BRANCH  24  27
HETATM   27  C13 UNL     1     -27.592   4.115   9.154  1.00  0.00     0.172 C 
BRANCH  27  28
HETATM   28  O2  UNL     1     -27.553   3.889  10.518  1.00  0.00    -0.400 OA
ATOM     29  H2  UNL     1     -28.022   4.558  11.003  1.00  0.00     0.209 HD
ENDBRANCH  27  28
ENDBRANCH  24  27
ENDBRANCH  18  20
ENDBRANCH   1  18
TORSDOF 9
ENDMDL
MODEL 5
REMARK VINA RESULT: -7.982663626      3.162      6.096
REMARK  9 active torsions:
REMARK  status: ('A' for Active; 'I' for Inactive)
REMARK    1  A    between atoms: C1_4  and  N2_5 
REMARK    2  A    between atoms: C1_4  and  C8_15 
REMARK    3  A    between atoms: N2_5  and  C2_7 
REMARK    4  A    between atoms: C2_7  and  C3_8 
REMARK    5  A    between atoms: C8_15  and  O1_16 
REMARK    6  A    between atoms: C8_15  and  C9_18 
REMARK    7  A    between atoms: C9_18  and  C10_20 
REMARK    8  A    between atoms: C12_24  and  C13_25 
REMARK    9  A    between atoms: C13_25  and  O2_26 
ROOT
HETATM    1  C8  UNL     1     -21.666  -0.506   4.125  1.00  0.00     0.223 C 
ENDROOT
BRANCH   1   2
HETATM    2  C1  UNL     1     -20.386   0.197   3.950  1.00  0.00     0.103 C 
HETATM    3  N1  UNL     1     -19.294  -0.433   3.751  1.00  0.00    -0.387 N 
ATOM      4  H12 UNL     1     -18.407   0.055   3.630  1.00  0.00     0.157 HD
ATOM      5  H11 UNL     1     -19.310  -1.452   3.711  1.00  0.00     0.157 HD
BRANCH   2   6
HETATM    6  N2  UNL     1     -20.365   1.611   4.005  1.00  0.00    -0.372 N 
ATOM      7  H2  UNL     1     -20.462   2.050   4.921  1.00  0.00     0.161 HD
BRANCH   6   8
HETATM    8  C2  UNL     1     -20.219   2.468   2.873  1.00  0.00     0.177 C 
BRANCH   8   9
HETATM    9  C3  UNL     1     -21.237   3.540   2.921  1.00  0.00     0.026 A 
HETATM   10  C4  UNL     1     -20.886   4.860   2.675  1.00  0.00     0.027 A 
HETATM   11  C5  UNL     1     -21.801   5.882   2.711  1.00  0.00     0.003 A 
HETATM   12  C6  UNL     1     -23.108   5.592   2.999  1.00  0.00     0.017 A 
HETATM   13  C7  UNL     1     -23.447   4.279   3.241  1.00  0.00     0.088 A 
HETATM   14  N3  UNL     1     -22.525   3.291   3.201  1.00  0.00    -0.368 N 
ATOM     15  H3  UNL     1     -22.816   2.332   3.387  1.00  0.00     0.165 HD
ENDBRANCH   8   9
ENDBRANCH   6   8
ENDBRANCH   2   6
ENDBRANCH   1   2
BRANCH   1  16
HETATM   16  O1  UNL     1     -22.680   0.054   3.312  1.00  0.00    -0.385 OA
ATOM     17  H1  UNL     1     -23.506   0.111   3.777  1.00  0.00     0.210 HD
ENDBRANCH   1  16
BRANCH   1  18
HETATM   18  C9  UNL     1     -22.182  -0.419   5.544  1.00  0.00     0.254 C 
HETATM   19  F1  UNL     1     -22.397  -1.627   6.125  1.00  0.00    -0.242 F 
BRANCH  18  20
HETATM   20  C10 UNL     1     -23.466   0.402   5.519  1.00  0.00     0.253 C 
HETATM   21  N4  UNL     1     -24.391  -0.161   6.441  1.00  0.00    -0.394 N 
HETATM   22  C11 UNL     1     -24.336   0.336   7.774  1.00  0.00     0.125 C 
ATOM     23  H4  UNL     1     -25.056  -0.882   6.163  1.00  0.00     0.155 HD
HETATM   24  C12 UNL     1     -24.118   1.814   7.834  1.00  0.00     0.051 C 
HETATM   25  C14 UNL     1     -24.178   2.337   6.398  1.00  0.00     0.178 C 
HETATM   26  O3  UNL     1     -23.136   1.713   5.723  1.00  0.00    -0.364 OA
BRANCH  24  27
HETATM   27  C13 UNL     1     -25.258   2.484   8.576  1.00  0.00     0.172 C 
BRANCH  27  28
HETATM   28  O2  UNL     1     -25.454   3.786   8.154  1.00  0.00    -0.400 OA
ATOM     29  H2  UNL     1     -26.154   3.851   7.514  1.00  0.00     0.209 HD
ENDBRANCH  27  28
ENDBRANCH  24  27
ENDBRANCH  18  20
ENDBRANCH   1  18
TORSDOF 9
ENDMDL
