MODEL 1
REMARK VINA RESULT: -6.958227490      0.000      0.000
REMARK  1 active torsions:
REMARK  status: ('A' for Active; 'I' for Inactive)
REMARK    1  A    between atoms: C2_5  and  N3_6 
REMARK       I    between atoms: N3_6  and  C3_8 
ROOT
HETATM    1  C1  UNL     1      -3.403   9.697   8.571  1.00  0.00     0.182 C 
HETATM    2  N1  UNL     1      -2.113   9.742   9.223  1.00  0.00    -0.243 N 
HETATM    3  N2  UNL     1      -1.902   9.086  10.368  1.00  0.00    -0.127 N 
ATOM      4  H2  UNL     1      -2.664   8.550  10.782  1.00  0.00     0.206 HD
HETATM    5  C2  UNL     1      -0.716   9.115  10.986  1.00  0.00     0.702 A 
HETATM    6  N6  UNL     1       0.284   9.824  10.432  1.00  0.00    -0.150 N 
ATOM      7  H6  UNL     1       1.190   9.848  10.899  1.00  0.00     0.188 HD
HETATM    8  C4  UNL     1       0.126  10.509   9.272  1.00  0.00     0.329 A 
HETATM    9  O1  UNL     1       1.053  11.169   8.755  1.00  0.00    -0.261 OA
HETATM   10  C5  UNL     1      -1.117  10.452   8.665  1.00  0.00     0.330 A 
HETATM   11  O2  UNL     1      -1.358  11.051   7.591  1.00  0.00    -0.260 OA
ENDROOT
BRANCH   5  12
HETATM   12  N3  UNL     1      -0.517   8.478  12.095  1.00  0.00    -0.162 N 
HETATM   13  C3  UNL     1      -1.496   8.377  13.108  1.00  0.00     0.200 C 
HETATM   14  N4  UNL     1      -1.535   9.176  14.107  1.00  0.00    -0.373 N 
HETATM   15  N5  UNL     1      -2.471   7.357  13.014  1.00  0.00    -0.063 NA
ATOM     16  H42 UNL     1      -0.833   9.911  14.175  1.00  0.00     0.158 HD
ATOM     17  H41 UNL     1      -2.242   9.103  14.839  1.00  0.00     0.158 HD
ATOM     18  H3  UNL     1       0.386   8.030  12.244  1.00  0.00     0.187 HD
ENDBRANCH   5  12
TORSDOF 1
ENDMDL
MODEL 2
REMARK VINA RESULT: -6.813164982      2.504      4.533
REMARK  1 active torsions:
REMARK  status: ('A' for Active; 'I' for Inactive)
REMARK    1  A    between atoms: C2_5  and  N3_6 
REMARK       I    between atoms: N3_6  and  C3_8 
ROOT
HETATM    1  C1  UNL     1      -1.250   8.192  13.476  1.00  0.00     0.182 C 
HETATM    2  N1  UNL     1      -0.938   8.411  12.081  1.00  0.00    -0.243 N 
HETATM    3  N2  UNL     1      -1.471   9.440  11.414  1.00  0.00    -0.127 N 
ATOM      4  H2  UNL     1      -2.105  10.073  11.901  1.00  0.00     0.206 HD
HETATM    5  C2  UNL     1      -1.195   9.658  10.123  1.00  0.00     0.702 A 
HETATM    6  N6  UNL     1      -0.358   8.818   9.490  1.00  0.00    -0.150 N 
ATOM      7  H6  UNL     1      -0.144   8.982   8.507  1.00  0.00     0.188 HD
HETATM    8  C4  UNL     1       0.211   7.759  10.118  1.00  0.00     0.329 A 
HETATM    9  O1  UNL     1       0.990   6.975   9.532  1.00  0.00    -0.261 OA
HETATM   10  C5  UNL     1      -0.101   7.568  11.453  1.00  0.00     0.330 A 
HETATM   11  O2  UNL     1       0.377   6.618  12.116  1.00  0.00    -0.260 OA
ENDROOT
BRANCH   5  12
HETATM   12  N3  UNL     1      -1.714  10.656   9.482  1.00  0.00    -0.162 N 
HETATM   13  C3  UNL     1      -1.011  11.386   8.499  1.00  0.00     0.200 C 
HETATM   14  N4  UNL     1      -0.391  12.474   8.764  1.00  0.00    -0.373 N 
HETATM   15  N5  UNL     1      -0.990  10.897   7.172  1.00  0.00    -0.063 NA
ATOM     16  H42 UNL     1      -0.406  12.826   9.721  1.00  0.00     0.158 HD
ATOM     17  H41 UNL     1       0.117  13.001   8.054  1.00  0.00     0.158 HD
ATOM     18  H3  UNL     1      -2.673  10.926   9.696  1.00  0.00     0.187 HD
ENDBRANCH   5  12
TORSDOF 1
ENDMDL
MODEL 3
REMARK VINA RESULT: -6.809663858      2.925      4.692
REMARK  1 active torsions:
REMARK  status: ('A' for Active; 'I' for Inactive)
REMARK    1  A    between atoms: C2_5  and  N3_6 
REMARK       I    between atoms: N3_6  and  C3_8 
ROOT
HETATM    1  C1  UNL     1       0.732   6.649   9.344  1.00  0.00     0.182 C 
HETATM    2  N1  UNL     1      -0.066   7.641  10.030  1.00  0.00    -0.243 N 
HETATM    3  N2  UNL     1      -0.583   8.681   9.367  1.00  0.00    -0.127 N 
ATOM      4  H2  UNL     1      -0.408   8.769   8.366  1.00  0.00     0.206 HD
HETATM    5  C2  UNL     1      -1.323   9.609   9.984  1.00  0.00     0.702 A 
HETATM    6  N6  UNL     1      -1.548   9.484  11.303  1.00  0.00    -0.150 N 
ATOM      7  H6  UNL     1      -2.113  10.189  11.777  1.00  0.00     0.188 HD
HETATM    8  C4  UNL     1      -1.049   8.451  12.025  1.00  0.00     0.329 A 
HETATM    9  O1  UNL     1      -1.256   8.331  13.252  1.00  0.00    -0.261 OA
HETATM   10  C5  UNL     1      -0.288   7.512  11.349  1.00  0.00     0.330 A 
HETATM   11  O2  UNL     1       0.214   6.522  11.931  1.00  0.00    -0.260 OA
ENDROOT
BRANCH   5  12
HETATM   12  N3  UNL     1      -1.821  10.614   9.336  1.00  0.00    -0.162 N 
HETATM   13  C3  UNL     1      -1.073  11.379   8.414  1.00  0.00     0.200 C 
HETATM   14  N4  UNL     1      -0.488  12.469   8.740  1.00  0.00    -0.373 N 
HETATM   15  N5  UNL     1      -0.967  10.922   7.079  1.00  0.00    -0.063 NA
ATOM     16  H42 UNL     1      -0.565  12.797   9.702  1.00  0.00     0.158 HD
ATOM     17  H41 UNL     1       0.051  13.021   8.074  1.00  0.00     0.158 HD
ATOM     18  H3  UNL     1      -2.796  10.864   9.500  1.00  0.00     0.187 HD
ENDBRANCH   5  12
TORSDOF 1
ENDMDL
MODEL 4
REMARK VINA RESULT: -6.673004908      1.222      2.310
REMARK  1 active torsions:
REMARK  status: ('A' for Active; 'I' for Inactive)
REMARK    1  A    between atoms: C2_5  and  N3_6 
REMARK       I    between atoms: N3_6  and  C3_8 
ROOT
HETATM    1  C1  UNL     1       0.194  11.645   8.965  1.00  0.00     0.182 C 
HETATM    2  N1  UNL     1      -0.660  10.635   9.550  1.00  0.00    -0.243 N 
HETATM    3  N2  UNL     1      -0.309  10.015  10.681  1.00  0.00    -0.127 N 
ATOM      4  H2  UNL     1       0.571  10.262  11.132  1.00  0.00     0.206 HD
HETATM    5  C2  UNL     1      -1.086   9.078  11.237  1.00  0.00     0.702 A 
HETATM    6  N6  UNL     1      -2.245   8.759  10.636  1.00  0.00    -0.150 N 
ATOM      7  H6  UNL     1      -2.840   8.046  11.057  1.00  0.00     0.188 HD
HETATM    8  C4  UNL     1      -2.650   9.356   9.487  1.00  0.00     0.329 A 
HETATM    9  O1  UNL     1      -3.727   9.062   8.926  1.00  0.00    -0.261 OA
HETATM   10  C5  UNL     1      -1.818  10.320   8.945  1.00  0.00     0.330 A 
HETATM   11  O2  UNL     1      -2.107  10.926   7.887  1.00  0.00    -0.260 OA
ENDROOT
BRANCH   5  12
HETATM   12  N3  UNL     1      -0.741   8.480  12.333  1.00  0.00    -0.162 N 
HETATM   13  C3  UNL     1      -1.615   8.332  13.433  1.00  0.00     0.200 C 
HETATM   14  N4  UNL     1      -1.620   9.146  14.420  1.00  0.00    -0.373 N 
HETATM   15  N5  UNL     1      -2.517   7.243  13.444  1.00  0.00    -0.063 NA
ATOM     16  H42 UNL     1      -0.970   9.931  14.412  1.00  0.00     0.158 HD
ATOM     17  H41 UNL     1      -2.251   9.039  15.215  1.00  0.00     0.158 HD
ATOM     18  H3  UNL     1       0.202   8.100  12.405  1.00  0.00     0.187 HD
ENDBRANCH   5  12
TORSDOF 1
ENDMDL
MODEL 5
REMARK VINA RESULT: -6.596792914      3.073      4.584
REMARK  1 active torsions:
REMARK  status: ('A' for Active; 'I' for Inactive)
REMARK    1  A    between atoms: C2_5  and  N3_6 
REMARK       I    between atoms: N3_6  and  C3_8 
ROOT
HETATM    1  C1  UNL     1      -0.339   5.490   9.519  1.00  0.00     0.182 C 
HETATM    2  N1  UNL     1      -0.401   6.852  10.001  1.00  0.00    -0.243 N 
HETATM    3  N2  UNL     1      -0.061   7.874   9.208  1.00  0.00    -0.127 N 
ATOM      4  H2  UNL     1       0.245   7.683   8.254  1.00  0.00     0.206 HD
HETATM    5  C2  UNL     1      -0.111   9.141   9.636  1.00  0.00     0.702 A 
HETATM    6  N6  UNL     1      -0.515   9.382  10.895  1.00  0.00    -0.150 N 
ATOM      7  H6  UNL     1      -0.556  10.346  11.224  1.00  0.00     0.188 HD
HETATM    8  C4  UNL     1      -0.872   8.385  11.742  1.00  0.00     0.329 A 
HETATM    9  O1  UNL     1      -1.249   8.606  12.913  1.00  0.00    -0.261 OA
HETATM   10  C5  UNL     1      -0.806   7.088  11.260  1.00  0.00     0.330 A 
HETATM   11  O2  UNL     1      -1.116   6.102  11.968  1.00  0.00    -0.260 OA
ENDROOT
BRANCH   5  12
HETATM   12  N3  UNL     1       0.220  10.126   8.864  1.00  0.00    -0.162 N 
HETATM   13  C3  UNL     1       0.011  11.479   9.214  1.00  0.00     0.200 C 
HETATM   14  N4  UNL     1      -1.022  12.133   8.838  1.00  0.00    -0.373 N 
HETATM   15  N5  UNL     1       0.979  12.134  10.010  1.00  0.00    -0.063 NA
ATOM     16  H42 UNL     1      -1.720  11.660   8.264  1.00  0.00     0.158 HD
ATOM     17  H41 UNL     1      -1.174  13.109   9.090  1.00  0.00     0.158 HD
ATOM     18  H3  UNL     1       0.651   9.916   7.964  1.00  0.00     0.187 HD
ENDBRANCH   5  12
TORSDOF 1
ENDMDL
