MODEL 1
REMARK VINA RESULT: -3.918172690      0.000      0.000
REMARK  2 active torsions:
REMARK  status: ('A' for Active; 'I' for Inactive)
REMARK    1  A    between atoms: C2_2  and  O1_3 
REMARK    2  A    between atoms: C9_12  and  O3_13 
ROOT
HETATM    1  C1  UNL     1       4.785  14.555  -9.666  1.00  0.00     0.079 C 
HETATM    2  C2  UNL     1       3.947  15.775  -9.947  1.00  0.00     0.165 C 
HETATM    3  O2  UNL     1       3.857  16.668  -8.953  1.00  0.00    -0.349 OA
HETATM    4  C3  UNL     1       2.716  17.256  -8.625  1.00  0.00     0.136 C 
HETATM    5  C4  UNL     1       1.573  17.329  -9.585  1.00  0.00     0.016 C 
HETATM    6  C5  UNL     1       0.960  18.667  -9.370  1.00  0.00     0.007 C 
HETATM    7  C6  UNL     1       0.793  18.680  -7.838  1.00  0.00     0.001 C 
HETATM    8  C7  UNL     1       0.782  17.302  -7.220  1.00  0.00     0.010 C 
HETATM    9  C8  UNL     1       2.069  16.507  -7.449  1.00  0.00     0.047 C 
HETATM   10  C9  UNL     1       1.864  15.127  -7.929  1.00  0.00     0.162 C 
HETATM   11  C10 UNL     1       1.765  14.803  -9.333  1.00  0.00     0.117 A 
HETATM   12  C11 UNL     1       0.578  13.964  -9.823  1.00  0.00     0.210 A 
HETATM   13  O4  UNL     1       1.756  13.320  -9.485  1.00  0.00    -0.372 OA
HETATM   14  C12 UNL     1       2.543  15.431 -10.388  1.00  0.00     0.087 C 
HETATM   15  C13 UNL     1       1.994  16.808 -10.868  1.00  0.00     0.020 C 
ENDROOT
BRANCH   2  16
HETATM   16  O1  UNL     1       4.554  16.409 -11.058  1.00  0.00    -0.365 OA
ATOM     17  H1  UNL     1       4.382  17.337 -10.950  1.00  0.00     0.213 HD
ENDBRANCH   2  16
BRANCH  10  18
HETATM   18  O3  UNL     1       0.698  14.646  -7.276  1.00  0.00    -0.392 OA
ATOM     19  H3  UNL     1       0.995  14.020  -6.627  1.00  0.00     0.210 HD
ENDBRANCH  10  18
TORSDOF 2
ENDMDL
MODEL 2
REMARK VINA RESULT: -3.913245895      1.999      4.100
REMARK  2 active torsions:
REMARK  status: ('A' for Active; 'I' for Inactive)
REMARK    1  A    between atoms: C2_2  and  O1_3 
REMARK    2  A    between atoms: C9_12  and  O3_13 
ROOT
HETATM    1  C1  UNL     1      -1.894  17.413  -8.283  1.00  0.00     0.079 C 
HETATM    2  C2  UNL     1      -0.452  17.770  -8.529  1.00  0.00     0.165 C 
HETATM    3  O2  UNL     1       0.202  17.002  -9.411  1.00  0.00    -0.349 OA
HETATM    4  C3  UNL     1       1.439  16.576  -9.205  1.00  0.00     0.136 C 
HETATM    5  C4  UNL     1       2.347  17.260  -8.236  1.00  0.00     0.016 C 
HETATM    6  C5  UNL     1       3.696  17.221  -8.860  1.00  0.00     0.007 C 
HETATM    7  C6  UNL     1       3.811  15.730  -9.236  1.00  0.00     0.001 C 
HETATM    8  C7  UNL     1       2.889  14.835  -8.441  1.00  0.00     0.010 C 
HETATM    9  C8  UNL     1       1.404  15.152  -8.625  1.00  0.00     0.047 C 
HETATM   10  C9  UNL     1       0.637  15.261  -7.369  1.00  0.00     0.162 C 
HETATM   11  C10 UNL     1       0.510  16.504  -6.645  1.00  0.00     0.117 A 
HETATM   12  C11 UNL     1       0.835  16.530  -5.146  1.00  0.00     0.210 A 
HETATM   13  O4  UNL     1      -0.475  16.319  -5.541  1.00  0.00    -0.372 OA
HETATM   14  C12 UNL     1       0.365  17.813  -7.259  1.00  0.00     0.087 C 
HETATM   15  C13 UNL     1       1.701  18.456  -7.739  1.00  0.00     0.020 C 
ENDROOT
BRANCH   2  16
HETATM   16  O1  UNL     1      -0.465  19.097  -9.023  1.00  0.00    -0.365 OA
ATOM     17  H1  UNL     1       0.343  19.492  -8.718  1.00  0.00     0.213 HD
ENDBRANCH   2  16
BRANCH  10  18
HETATM   18  O3  UNL     1       1.173  14.283  -6.488  1.00  0.00    -0.392 OA
ATOM     19  H3  UNL     1       0.666  14.339  -5.687  1.00  0.00     0.210 HD
ENDBRANCH  10  18
TORSDOF 2
ENDMDL
MODEL 3
REMARK VINA RESULT: -3.906832607      1.515      3.571
REMARK  2 active torsions:
REMARK  status: ('A' for Active; 'I' for Inactive)
REMARK    1  A    between atoms: C2_2  and  O1_3 
REMARK    2  A    between atoms: C9_12  and  O3_13 
ROOT
HETATM    1  C1  UNL     1       1.664  13.746  -8.291  1.00  0.00     0.079 C 
HETATM    2  C2  UNL     1       1.182  15.023  -7.655  1.00  0.00     0.165 C 
HETATM    3  O2  UNL     1       0.085  15.572  -8.194  1.00  0.00    -0.349 OA
HETATM    4  C3  UNL     1      -0.027  16.874  -8.407  1.00  0.00     0.136 C 
HETATM    5  C4  UNL     1       0.823  17.860  -7.676  1.00  0.00     0.016 C 
HETATM    6  C5  UNL     1      -0.063  19.024  -7.404  1.00  0.00     0.007 C 
HETATM    7  C6  UNL     1      -0.662  19.280  -8.802  1.00  0.00     0.001 C 
HETATM    8  C7  UNL     1       0.169  18.710  -9.928  1.00  0.00     0.010 C 
HETATM    9  C8  UNL     1       0.339  17.191  -9.867  1.00  0.00     0.047 C 
HETATM   10  C9  UNL     1       1.727  16.719 -10.032  1.00  0.00     0.162 C 
HETATM   11  C10 UNL     1       2.631  16.568  -8.916  1.00  0.00     0.117 A 
HETATM   12  C11 UNL     1       4.021  17.214  -8.989  1.00  0.00     0.210 A 
HETATM   13  O4  UNL     1       3.875  15.898  -9.392  1.00  0.00    -0.372 OA
HETATM   14  C12 UNL     1       2.252  16.089  -7.598  1.00  0.00     0.087 C 
HETATM   15  C13 UNL     1       1.606  17.166  -6.677  1.00  0.00     0.020 C 
ENDROOT
BRANCH   2  16
HETATM   16  O1  UNL     1       0.896  14.695  -6.307  1.00  0.00    -0.365 OA
ATOM     17  H1  UNL     1       1.669  14.940  -5.813  1.00  0.00     0.213 HD
ENDBRANCH   2  16
BRANCH  10  18
HETATM   18  O3  UNL     1       2.332  17.584 -10.984  1.00  0.00    -0.392 OA
ATOM     19  H3  UNL     1       1.733  18.311 -11.102  1.00  0.00     0.210 HD
ENDBRANCH  10  18
TORSDOF 2
ENDMDL
MODEL 4
REMARK VINA RESULT: -3.841098067      1.348      1.701
REMARK  2 active torsions:
REMARK  status: ('A' for Active; 'I' for Inactive)
REMARK    1  A    between atoms: C2_2  and  O1_3 
REMARK    2  A    between atoms: C9_12  and  O3_13 
ROOT
HETATM    1  C1  UNL     1       3.902  14.984  -9.387  1.00  0.00     0.079 C 
HETATM    2  C2  UNL     1       3.277  16.292  -8.978  1.00  0.00     0.165 C 
HETATM    3  O2  UNL     1       2.922  16.398  -7.690  1.00  0.00    -0.349 OA
HETATM    4  C3  UNL     1       1.775  16.939  -7.310  1.00  0.00     0.136 C 
HETATM    5  C4  UNL     1       1.014  17.861  -8.205  1.00  0.00     0.016 C 
HETATM    6  C5  UNL     1       0.446  18.905  -7.310  1.00  0.00     0.007 C 
HETATM    7  C6  UNL     1      -0.209  18.039  -6.215  1.00  0.00     0.001 C 
HETATM    8  C7  UNL     1      -0.505  16.626  -6.660  1.00  0.00     0.010 C 
HETATM    9  C8  UNL     1       0.735  15.831  -7.072  1.00  0.00     0.047 C 
HETATM   10  C9  UNL     1       0.615  15.125  -8.361  1.00  0.00     0.162 C 
HETATM   11  C10 UNL     1       0.960  15.745  -9.619  1.00  0.00     0.117 A 
HETATM   12  C11 UNL     1      -0.052  15.706 -10.771  1.00  0.00     0.210 A 
HETATM   13  O4  UNL     1       0.910  14.713 -10.693  1.00  0.00    -0.372 OA
HETATM   14  C12 UNL     1       2.075  16.655  -9.819  1.00  0.00     0.087 C 
HETATM   15  C13 UNL     1       1.797  18.127  -9.392  1.00  0.00     0.020 C 
ENDROOT
BRANCH   2  16
HETATM   16  O1  UNL     1       4.250  17.284  -9.251  1.00  0.00    -0.365 OA
ATOM     17  H1  UNL     1       4.689  17.001 -10.045  1.00  0.00     0.213 HD
ENDBRANCH   2  16
BRANCH  10  18
HETATM   18  O3  UNL     1      -0.728  14.666  -8.441  1.00  0.00    -0.392 OA
ATOM     19  H3  UNL     1      -1.116  14.829  -7.590  1.00  0.00     0.210 HD
ENDBRANCH  10  18
TORSDOF 2
ENDMDL
MODEL 5
REMARK VINA RESULT: -3.820948018      2.488      4.340
REMARK  2 active torsions:
REMARK  status: ('A' for Active; 'I' for Inactive)
REMARK    1  A    between atoms: C2_2  and  O1_3 
REMARK    2  A    between atoms: C9_12  and  O3_13 
ROOT
HETATM    1  C1  UNL     1      -0.311  17.313  -4.784  1.00  0.00     0.079 C 
HETATM    2  C2  UNL     1       0.666  16.485  -5.576  1.00  0.00     0.165 C 
HETATM    3  O2  UNL     1       1.728  17.138  -6.068  1.00  0.00    -0.349 OA
HETATM    4  C3  UNL     1       2.180  16.938  -7.296  1.00  0.00     0.136 C 
HETATM    5  C4  UNL     1       1.857  15.691  -8.052  1.00  0.00     0.016 C 
HETATM    6  C5  UNL     1       3.093  15.355  -8.809  1.00  0.00     0.007 C 
HETATM    7  C6  UNL     1       3.411  16.705  -9.481  1.00  0.00     0.001 C 
HETATM    8  C7  UNL     1       2.216  17.623  -9.587  1.00  0.00     0.010 C 
HETATM    9  C8  UNL     1       1.609  18.012  -8.238  1.00  0.00     0.047 C 
HETATM   10  C9  UNL     1       0.143  17.864  -8.155  1.00  0.00     0.162 C 
HETATM   11  C10 UNL     1      -0.489  16.631  -7.749  1.00  0.00     0.117 A 
HETATM   12  C11 UNL     1      -1.594  16.034  -8.630  1.00  0.00     0.210 A 
HETATM   13  O4  UNL     1      -1.951  16.871  -7.585  1.00  0.00    -0.372 OA
HETATM   14  C12 UNL     1       0.013  15.740  -6.716  1.00  0.00     0.087 C 
HETATM   15  C13 UNL     1       1.146  14.778  -7.183  1.00  0.00     0.020 C 
ENDROOT
BRANCH   2  16
HETATM   16  O1  UNL     1       1.134  15.489  -4.684  1.00  0.00    -0.365 OA
ATOM     17  H1  UNL     1       1.849  15.890  -4.204  1.00  0.00     0.213 HD
ENDBRANCH   2  16
BRANCH  10  18
HETATM   18  O3  UNL     1      -0.367  18.230  -9.430  1.00  0.00    -0.392 OA
ATOM     19  H3  UNL     1       0.269  18.824  -9.811  1.00  0.00     0.210 HD
ENDBRANCH  10  18
TORSDOF 2
ENDMDL
