MODEL 1
REMARK VINA RESULT: -7.974020567      0.000      0.000
REMARK  12 active torsions:
REMARK  status: ('A' for Active; 'I' for Inactive)
REMARK    1  A    between atoms: C2_2  and  C4_4 
REMARK    2  A    between atoms: C4_4  and  C5_5 
REMARK    3  A    between atoms: C9_12  and  C10_13 
REMARK    4  A    between atoms: C11_14  and  C12_15 
REMARK    5  A    between atoms: C12_15  and  C13_16 
REMARK    6  A    between atoms: C13_16  and  C14_17 
REMARK    7  A    between atoms: C14_17  and  C15_18 
REMARK    8  A    between atoms: C23_30  and  O4_31 
REMARK    9  A    between atoms: C24_33  and  C25_34 
REMARK   10  A    between atoms: C25_34  and  C26_35 
REMARK   11  A    between atoms: C26_35  and  C27_36 
REMARK   12  A    between atoms: C27_36  and  N3_37 
ROOT
HETATM    1  C5  UNL     1       8.922  26.229   7.766  1.00  0.00     0.177 C 
HETATM    2  N1  UNL     1       9.937  25.270   8.181  1.00  0.00    -0.348 N 
ATOM      3  H1  UNL     1       9.682  24.625   8.929  1.00  0.00     0.163 HD
HETATM    4  C6  UNL     1      11.223  25.148   7.656  1.00  0.00     0.218 C 
HETATM    5  O1  UNL     1      12.181  24.963   8.479  1.00  0.00    -0.274 OA
HETATM    6  C7  UNL     1      11.557  25.215   6.234  1.00  0.00     0.103 C 
HETATM    7  C8  UNL     1      12.454  24.089   5.801  1.00  0.00     0.021 C 
HETATM    8  C9  UNL     1      11.688  22.898   5.228  1.00  0.00     0.030 C 
HETATM    9  C16 UNL     1      12.278  22.506   3.951  1.00  0.00    -0.022 C 
HETATM   10  C17 UNL     1      11.609  22.415   2.799  1.00  0.00    -0.026 C 
HETATM   11  C18 UNL     1      10.139  22.713   2.679  1.00  0.00     0.053 C 
HETATM   12  C19 UNL     1       9.875  24.154   2.775  1.00  0.00    -0.027 C 
HETATM   13  C20 UNL     1       8.755  24.744   3.146  1.00  0.00    -0.027 C 
HETATM   14  C21 UNL     1       7.506  24.045   3.551  1.00  0.00     0.072 C 
HETATM   15  C22 UNL     1       6.333  24.882   3.170  1.00  0.00     0.141 C 
HETATM   16  N2  UNL     1       6.419  26.188   3.738  1.00  0.00    -0.351 N 
ATOM     17  H2  UNL     1       7.047  26.795   3.211  1.00  0.00     0.163 HD
HETATM   18  C23 UNL     1       5.864  26.830   4.821  1.00  0.00     0.136 C 
HETATM   19  C24 UNL     1       5.978  26.706   6.272  1.00  0.00     0.159 C 
HETATM   20  N6  UNL     1       6.605  25.553   6.820  1.00  0.00    -0.347 N 
ATOM     21  H6  UNL     1       6.275  24.656   6.465  1.00  0.00     0.163 HD
HETATM   22  C29 UNL     1       7.628  25.494   7.794  1.00  0.00     0.241 C 
HETATM   23  O5  UNL     1       7.485  24.746   8.834  1.00  0.00    -0.271 OA
HETATM   24  C30 UNL     1       6.446  25.034   1.647  1.00  0.00     0.229 C 
HETATM   25  O6  UNL     1       7.400  24.608   0.995  1.00  0.00    -0.286 OA
HETATM   26  C31 UNL     1       5.318  25.730   1.042  1.00  0.00     0.201 C 
HETATM   27  O7  UNL     1       5.512  26.325  -0.045  1.00  0.00    -0.289 OA
HETATM   28  C32 UNL     1       3.970  25.728   1.712  1.00  0.00     0.115 C 
HETATM   29  C33 UNL     1       3.961  24.578   2.654  1.00  0.00     0.003 C 
HETATM   30  C34 UNL     1       5.035  24.185   3.321  1.00  0.00     0.045 C 
HETATM   31 CL1  UNL     1       4.918  22.805   4.375  1.00  0.00    -0.086 Cl
ENDROOT
BRANCH   8  32
HETATM   32  C10 UNL     1      11.730  21.848   6.251  1.00  0.00    -0.022 C 
HETATM   33  C11 UNL     1      12.631  21.159   6.842  1.00  0.00    -0.030 C 
BRANCH  33  34
HETATM   34  C12 UNL     1      14.090  21.124   6.741  1.00  0.00     0.027 C 
BRANCH  34  35
HETATM   35  C13 UNL     1      14.766  21.630   8.012  1.00  0.00     0.014 C 
BRANCH  35  36
HETATM   36  C14 UNL     1      16.096  22.238   7.581  1.00  0.00     0.113 C 
BRANCH  36  37
HETATM   37  C15 UNL     1      17.133  21.213   7.797  1.00  0.00     0.172 C 
HETATM   38  O2  UNL     1      17.778  21.245   8.874  1.00  0.00    -0.648 OA
HETATM   39  O3  UNL     1      17.376  20.248   6.831  1.00  0.00    -0.648 OA
ENDBRANCH  36  37
ENDBRANCH  35  36
ENDBRANCH  34  35
ENDBRANCH  33  34
ENDBRANCH   8  32
BRANCH   1  40
HETATM   40  C4  UNL     1       8.901  27.455   8.614  1.00  0.00     0.038 C 
BRANCH  40  41
HETATM   41  C2  UNL     1       9.528  27.369   9.956  1.00  0.00    -0.020 C 
HETATM   42  C1  UNL     1       8.699  28.270  10.897  1.00  0.00     0.009 C 
HETATM   43  C3  UNL     1      10.932  27.856  10.078  1.00  0.00     0.009 C 
ENDBRANCH  40  41
ENDBRANCH   1  40
BRANCH  19  44
HETATM   44  C25 UNL     1       4.569  26.877   6.878  1.00  0.00     0.035 C 
BRANCH  44  45
HETATM   45  C26 UNL     1       4.531  27.919   7.946  1.00  0.00     0.022 C 
BRANCH  45  46
HETATM   46  C27 UNL     1       3.422  28.901   7.524  1.00  0.00     0.122 C 
BRANCH  46  47
HETATM   47  N3  UNL     1       4.139  30.007   6.891  1.00  0.00    -0.367 N 
HETATM   48  C28 UNL     1       3.693  31.197   7.019  1.00  0.00     0.196 C 
HETATM   49  N4  UNL     1       2.523  31.446   7.759  1.00  0.00    -0.067 NA
HETATM   50  N5  UNL     1       4.385  32.269   6.412  1.00  0.00    -0.067 NA
ATOM     51  H3  UNL     1       4.986  29.831   6.351  1.00  0.00     0.161 HD
ENDBRANCH  46  47
ENDBRANCH  45  46
ENDBRANCH  44  45
ENDBRANCH  19  44
BRANCH  18  52
HETATM   52  O4  UNL     1       5.025  27.797   4.506  1.00  0.00    -0.348 OA
ATOM     53  H4  UNL     1       4.294  27.891   5.106  1.00  0.00     0.219 HD
ENDBRANCH  18  52
TORSDOF 12
ENDMDL
MODEL 2
REMARK VINA RESULT: -7.911173553      1.533      1.938
REMARK  12 active torsions:
REMARK  status: ('A' for Active; 'I' for Inactive)
REMARK    1  A    between atoms: C2_2  and  C4_4 
REMARK    2  A    between atoms: C4_4  and  C5_5 
REMARK    3  A    between atoms: C9_12  and  C10_13 
REMARK    4  A    between atoms: C11_14  and  C12_15 
REMARK    5  A    between atoms: C12_15  and  C13_16 
REMARK    6  A    between atoms: C13_16  and  C14_17 
REMARK    7  A    between atoms: C14_17  and  C15_18 
REMARK    8  A    between atoms: C23_30  and  O4_31 
REMARK    9  A    between atoms: C24_33  and  C25_34 
REMARK   10  A    between atoms: C25_34  and  C26_35 
REMARK   11  A    between atoms: C26_35  and  C27_36 
REMARK   12  A    between atoms: C27_36  and  N3_37 
ROOT
HETATM    1  C5  UNL     1       8.838  26.241   7.631  1.00  0.00     0.177 C 
HETATM    2  N1  UNL     1       9.882  25.284   7.967  1.00  0.00    -0.348 N 
ATOM      3  H1  UNL     1       9.681  24.632   8.726  1.00  0.00     0.163 HD
HETATM    4  C6  UNL     1      11.129  25.170   7.353  1.00  0.00     0.218 C 
HETATM    5  O1  UNL     1      12.142  24.982   8.107  1.00  0.00    -0.274 OA
HETATM    6  C7  UNL     1      11.363  25.247   5.912  1.00  0.00     0.103 C 
HETATM    7  C8  UNL     1      12.231  24.127   5.410  1.00  0.00     0.021 C 
HETATM    8  C9  UNL     1      11.430  22.937   4.884  1.00  0.00     0.030 C 
HETATM    9  C16 UNL     1      11.932  22.556   3.566  1.00  0.00    -0.022 C 
HETATM   10  C17 UNL     1      11.185  22.471   2.462  1.00  0.00    -0.026 C 
HETATM   11  C18 UNL     1       9.709  22.765   2.447  1.00  0.00     0.053 C 
HETATM   12  C19 UNL     1       9.448  24.204   2.570  1.00  0.00    -0.027 C 
HETATM   13  C20 UNL     1       8.355  24.788   3.023  1.00  0.00    -0.027 C 
HETATM   14  C21 UNL     1       7.139  24.082   3.509  1.00  0.00     0.072 C 
HETATM   15  C22 UNL     1       5.940  24.917   3.215  1.00  0.00     0.141 C 
HETATM   16  N2  UNL     1       6.062  26.219   3.786  1.00  0.00    -0.351 N 
ATOM     17  H2  UNL     1       6.649  26.833   3.221  1.00  0.00     0.163 HD
HETATM   18  C23 UNL     1       5.581  26.852   4.909  1.00  0.00     0.136 C 
HETATM   19  C24 UNL     1       5.796  26.719   6.347  1.00  0.00     0.159 C 
HETATM   20  N6  UNL     1       6.463  25.564   6.842  1.00  0.00    -0.347 N 
ATOM     21  H6  UNL     1       6.112  24.668   6.505  1.00  0.00     0.163 HD
HETATM   22  C29 UNL     1       7.552  25.502   7.743  1.00  0.00     0.241 C 
HETATM   23  O5  UNL     1       7.483  24.747   8.785  1.00  0.00    -0.271 OA
HETATM   24  C30 UNL     1       5.947  25.080   1.690  1.00  0.00     0.229 C 
HETATM   25  O6  UNL     1       6.855  24.662   0.970  1.00  0.00    -0.286 OA
HETATM   26  C31 UNL     1       4.778  25.777   1.169  1.00  0.00     0.201 C 
HETATM   27  O7  UNL     1       4.894  26.380   0.075  1.00  0.00    -0.289 OA
HETATM   28  C32 UNL     1       3.479  25.765   1.931  1.00  0.00     0.115 C 
HETATM   29  C33 UNL     1       3.539  24.609   2.863  1.00  0.00     0.003 C 
HETATM   30  C34 UNL     1       4.658  24.215   3.452  1.00  0.00     0.045 C 
HETATM   31 CL1  UNL     1       4.618  22.827   4.501  1.00  0.00    -0.086 Cl
ENDROOT
BRANCH   8  32
HETATM   32  C10 UNL     1      11.547  21.881   5.893  1.00  0.00    -0.022 C 
HETATM   33  C11 UNL     1      12.417  21.007   6.231  1.00  0.00    -0.030 C 
BRANCH  33  34
HETATM   34  C12 UNL     1      13.747  20.671   5.722  1.00  0.00     0.027 C 
BRANCH  34  35
HETATM   35  C13 UNL     1      13.715  19.467   4.783  1.00  0.00     0.014 C 
BRANCH  35  36
HETATM   36  C14 UNL     1      14.360  19.920   3.478  1.00  0.00     0.113 C 
BRANCH  36  37
HETATM   37  C15 UNL     1      14.624  18.710   2.681  1.00  0.00     0.172 C 
HETATM   38  O2  UNL     1      15.187  17.741   3.248  1.00  0.00    -0.648 OA
HETATM   39  O3  UNL     1      14.253  18.656   1.346  1.00  0.00    -0.648 OA
ENDBRANCH  36  37
ENDBRANCH  35  36
ENDBRANCH  34  35
ENDBRANCH  33  34
ENDBRANCH   8  32
BRANCH   1  40
HETATM   40  C4  UNL     1       8.873  27.462   8.486  1.00  0.00     0.038 C 
BRANCH  40  41
HETATM   41  C2  UNL     1       9.504  27.341   9.823  1.00  0.00    -0.020 C 
HETATM   42  C1  UNL     1       8.675  28.213  10.792  1.00  0.00     0.009 C 
HETATM   43  C3  UNL     1      10.906  27.831   9.955  1.00  0.00     0.009 C 
ENDBRANCH  40  41
ENDBRANCH   1  40
BRANCH  19  44
HETATM   44  C25 UNL     1       4.432  26.881   7.051  1.00  0.00     0.035 C 
BRANCH  44  45
HETATM   45  C26 UNL     1       4.459  27.931   8.111  1.00  0.00     0.022 C 
BRANCH  45  46
HETATM   46  C27 UNL     1       3.360  28.938   7.722  1.00  0.00     0.122 C 
BRANCH  46  47
HETATM   47  N3  UNL     1       4.081  30.024   7.059  1.00  0.00    -0.367 N 
HETATM   48  C28 UNL     1       3.617  31.213   7.120  1.00  0.00     0.196 C 
HETATM   49  N4  UNL     1       2.424  31.479   7.814  1.00  0.00    -0.067 NA
HETATM   50  N5  UNL     1       4.313  32.265   6.484  1.00  0.00    -0.067 NA
ATOM     51  H3  UNL     1       4.946  29.835   6.552  1.00  0.00     0.161 HD
ENDBRANCH  46  47
ENDBRANCH  45  46
ENDBRANCH  44  45
ENDBRANCH  19  44
BRANCH  18  52
HETATM   52  O4  UNL     1       4.719  27.819   4.660  1.00  0.00    -0.348 OA
ATOM     53  H4  UNL     1       4.873  28.616   5.153  1.00  0.00     0.219 HD
ENDBRANCH  18  52
TORSDOF 12
ENDMDL
MODEL 3
REMARK VINA RESULT: -7.815725389      1.908      2.328
REMARK  12 active torsions:
REMARK  status: ('A' for Active; 'I' for Inactive)
REMARK    1  A    between atoms: C2_2  and  C4_4 
REMARK    2  A    between atoms: C4_4  and  C5_5 
REMARK    3  A    between atoms: C9_12  and  C10_13 
REMARK    4  A    between atoms: C11_14  and  C12_15 
REMARK    5  A    between atoms: C12_15  and  C13_16 
REMARK    6  A    between atoms: C13_16  and  C14_17 
REMARK    7  A    between atoms: C14_17  and  C15_18 
REMARK    8  A    between atoms: C23_30  and  O4_31 
REMARK    9  A    between atoms: C24_33  and  C25_34 
REMARK   10  A    between atoms: C25_34  and  C26_35 
REMARK   11  A    between atoms: C26_35  and  C27_36 
REMARK   12  A    between atoms: C27_36  and  N3_37 
ROOT
HETATM    1  C5  UNL     1       8.706  26.319   7.691  1.00  0.00     0.177 C 
HETATM    2  N1  UNL     1       9.746  25.330   7.936  1.00  0.00    -0.348 N 
ATOM      3  H1  UNL     1       9.593  24.682   8.709  1.00  0.00     0.163 HD
HETATM    4  C6  UNL     1      10.932  25.182   7.217  1.00  0.00     0.218 C 
HETATM    5  O1  UNL     1      12.000  24.962   7.880  1.00  0.00    -0.274 OA
HETATM    6  C7  UNL     1      11.043  25.257   5.760  1.00  0.00     0.103 C 
HETATM    7  C8  UNL     1      11.831  24.114   5.184  1.00  0.00     0.021 C 
HETATM    8  C9  UNL     1      10.954  22.950   4.728  1.00  0.00     0.030 C 
HETATM    9  C16 UNL     1      11.328  22.558   3.372  1.00  0.00    -0.022 C 
HETATM   10  C17 UNL     1      10.487  22.498   2.337  1.00  0.00    -0.026 C 
HETATM   11  C18 UNL     1       9.025  22.835   2.449  1.00  0.00     0.053 C 
HETATM   12  C19 UNL     1       8.817  24.281   2.596  1.00  0.00    -0.027 C 
HETATM   13  C20 UNL     1       7.785  24.895   3.141  1.00  0.00    -0.027 C 
HETATM   14  C21 UNL     1       6.595  24.223   3.730  1.00  0.00     0.072 C 
HETATM   15  C22 UNL     1       5.401  25.093   3.541  1.00  0.00     0.141 C 
HETATM   16  N2  UNL     1       5.608  26.390   4.100  1.00  0.00    -0.351 N 
ATOM     17  H2  UNL     1       6.163  26.988   3.487  1.00  0.00     0.163 HD
HETATM   18  C23 UNL     1       5.245  27.033   5.261  1.00  0.00     0.136 C 
HETATM   19  C24 UNL     1       5.580  26.889   6.676  1.00  0.00     0.159 C 
HETATM   20  N6  UNL     1       6.253  25.714   7.110  1.00  0.00    -0.347 N 
ATOM     21  H6  UNL     1       5.847  24.829   6.804  1.00  0.00     0.163 HD
HETATM   22  C29 UNL     1       7.413  25.616   7.914  1.00  0.00     0.241 C 
HETATM   23  O5  UNL     1       7.412  24.861   8.958  1.00  0.00    -0.271 OA
HETATM   24  C30 UNL     1       5.280  25.261   2.021  1.00  0.00     0.229 C 
HETATM   25  O6  UNL     1       6.110  24.820   1.226  1.00  0.00    -0.286 OA
HETATM   26  C31 UNL     1       4.092  25.994   1.604  1.00  0.00     0.201 C 
HETATM   27  O7  UNL     1       4.131  26.596   0.504  1.00  0.00    -0.289 OA
HETATM   28  C32 UNL     1       2.864  26.017   2.475  1.00  0.00     0.115 C 
HETATM   29  C33 UNL     1       2.970  24.857   3.397  1.00  0.00     0.003 C 
HETATM   30  C34 UNL     1       4.123  24.428   3.887  1.00  0.00     0.045 C 
HETATM   31 CL1  UNL     1       4.133  23.039   4.935  1.00  0.00    -0.086 Cl
ENDROOT
BRANCH   8  32
HETATM   32  C10 UNL     1      11.126  21.887   5.724  1.00  0.00    -0.022 C 
HETATM   33  C11 UNL     1      12.073  21.122   6.116  1.00  0.00    -0.030 C 
BRANCH  33  34
HETATM   34  C12 UNL     1      13.472  20.975   5.712  1.00  0.00     0.027 C 
BRANCH  34  35
HETATM   35  C13 UNL     1      13.674  19.797   4.763  1.00  0.00     0.014 C 
BRANCH  35  36
HETATM   36  C14 UNL     1      14.264  20.374   3.481  1.00  0.00     0.113 C 
BRANCH  36  37
HETATM   37  C15 UNL     1      14.455  19.250   2.547  1.00  0.00     0.172 C 
HETATM   38  O2  UNL     1      14.399  18.083   3.009  1.00  0.00    -0.648 OA
HETATM   39  O3  UNL     1      14.688  19.490   1.201  1.00  0.00    -0.648 OA
ENDBRANCH  36  37
ENDBRANCH  35  36
ENDBRANCH  34  35
ENDBRANCH  33  34
ENDBRANCH   8  32
BRANCH   1  40
HETATM   40  C4  UNL     1       8.850  27.535   8.542  1.00  0.00     0.038 C 
BRANCH  40  41
HETATM   41  C2  UNL     1       9.482  27.366   9.873  1.00  0.00    -0.020 C 
HETATM   42  C1  UNL     1       8.709  28.275  10.855  1.00  0.00     0.009 C 
HETATM   43  C3  UNL     1      10.911  27.775   9.999  1.00  0.00     0.009 C 
ENDBRANCH  40  41
ENDBRANCH   1  40
BRANCH  19  44
HETATM   44  C25 UNL     1       4.287  27.088   7.494  1.00  0.00     0.035 C 
BRANCH  44  45
HETATM   45  C26 UNL     1       3.280  26.016   7.241  1.00  0.00     0.022 C 
BRANCH  45  46
HETATM   46  C27 UNL     1       1.908  26.710   7.324  1.00  0.00     0.122 C 
BRANCH  46  47
HETATM   47  N3  UNL     1       2.217  28.137   7.242  1.00  0.00    -0.367 N 
HETATM   48  C28 UNL     1       1.471  28.975   7.853  1.00  0.00     0.196 C 
HETATM   49  N4  UNL     1       0.361  28.536   8.595  1.00  0.00    -0.067 NA
HETATM   50  N5  UNL     1       1.770  30.355   7.779  1.00  0.00    -0.067 NA
ATOM     51  H3  UNL     1       3.020  28.460   6.702  1.00  0.00     0.161 HD
ENDBRANCH  46  47
ENDBRANCH  45  46
ENDBRANCH  44  45
ENDBRANCH  19  44
BRANCH  18  52
HETATM   52  O4  UNL     1       4.394  28.025   5.088  1.00  0.00    -0.348 OA
ATOM     53  H4  UNL     1       4.075  28.412   5.895  1.00  0.00     0.219 HD
ENDBRANCH  18  52
TORSDOF 12
ENDMDL
MODEL 4
REMARK VINA RESULT: -7.811892715      1.361      1.697
REMARK  12 active torsions:
REMARK  status: ('A' for Active; 'I' for Inactive)
REMARK    1  A    between atoms: C2_2  and  C4_4 
REMARK    2  A    between atoms: C4_4  and  C5_5 
REMARK    3  A    between atoms: C9_12  and  C10_13 
REMARK    4  A    between atoms: C11_14  and  C12_15 
REMARK    5  A    between atoms: C12_15  and  C13_16 
REMARK    6  A    between atoms: C13_16  and  C14_17 
REMARK    7  A    between atoms: C14_17  and  C15_18 
REMARK    8  A    between atoms: C23_30  and  O4_31 
REMARK    9  A    between atoms: C24_33  and  C25_34 
REMARK   10  A    between atoms: C25_34  and  C26_35 
REMARK   11  A    between atoms: C26_35  and  C27_36 
REMARK   12  A    between atoms: C27_36  and  N3_37 
ROOT
HETATM    1  C5  UNL     1       8.898  26.240   7.741  1.00  0.00     0.177 C 
HETATM    2  N1  UNL     1       9.909  25.274   8.144  1.00  0.00    -0.348 N 
ATOM      3  H1  UNL     1       9.659  24.634   8.897  1.00  0.00     0.163 HD
HETATM    4  C6  UNL     1      11.188  25.140   7.602  1.00  0.00     0.218 C 
HETATM    5  O1  UNL     1      12.155  24.949   8.413  1.00  0.00    -0.274 OA
HETATM    6  C7  UNL     1      11.502  25.200   6.175  1.00  0.00     0.103 C 
HETATM    7  C8  UNL     1      12.384  24.064   5.733  1.00  0.00     0.021 C 
HETATM    8  C9  UNL     1      11.599  22.879   5.175  1.00  0.00     0.030 C 
HETATM    9  C16 UNL     1      12.168  22.478   3.891  1.00  0.00    -0.022 C 
HETATM   10  C17 UNL     1      11.484  22.390   2.748  1.00  0.00    -0.026 C 
HETATM   11  C18 UNL     1      10.015  22.700   2.648  1.00  0.00     0.053 C 
HETATM   12  C19 UNL     1       9.764  24.144   2.742  1.00  0.00    -0.027 C 
HETATM   13  C20 UNL     1       8.655  24.745   3.127  1.00  0.00    -0.027 C 
HETATM   14  C21 UNL     1       7.405  24.058   3.552  1.00  0.00     0.072 C 
HETATM   15  C22 UNL     1       6.235  24.903   3.184  1.00  0.00     0.141 C 
HETATM   16  N2  UNL     1       6.340  26.210   3.747  1.00  0.00    -0.351 N 
ATOM     17  H2  UNL     1       6.965  26.811   3.210  1.00  0.00     0.163 HD
HETATM   18  C23 UNL     1       5.805  26.860   4.836  1.00  0.00     0.136 C 
HETATM   19  C24 UNL     1       5.938  26.739   6.285  1.00  0.00     0.159 C 
HETATM   20  N6  UNL     1       6.562  25.582   6.827  1.00  0.00    -0.347 N 
ATOM     21  H6  UNL     1       6.220  24.687   6.480  1.00  0.00     0.163 HD
HETATM   22  C29 UNL     1       7.598  25.517   7.788  1.00  0.00     0.241 C 
HETATM   23  O5  UNL     1       7.463  24.774   8.832  1.00  0.00    -0.271 OA
HETATM   24  C30 UNL     1       6.328  25.050   1.659  1.00  0.00     0.229 C 
HETATM   25  O6  UNL     1       7.270  24.615   0.995  1.00  0.00    -0.286 OA
HETATM   26  C31 UNL     1       5.198  25.755   1.068  1.00  0.00     0.201 C 
HETATM   27  O7  UNL     1       5.383  26.345  -0.024  1.00  0.00    -0.289 OA
HETATM   28  C32 UNL     1       3.859  25.766   1.755  1.00  0.00     0.115 C 
HETATM   29  C33 UNL     1       3.853  24.619   2.701  1.00  0.00     0.003 C 
HETATM   30  C34 UNL     1       4.933  24.219   3.355  1.00  0.00     0.045 C 
HETATM   31 CL1  UNL     1       4.818  22.842   4.414  1.00  0.00    -0.086 Cl
ENDROOT
BRANCH   8  32
HETATM   32  C10 UNL     1      11.646  21.831   6.200  1.00  0.00    -0.022 C 
HETATM   33  C11 UNL     1      12.552  21.157   6.801  1.00  0.00    -0.030 C 
BRANCH  33  34
HETATM   34  C12 UNL     1      14.012  21.143   6.715  1.00  0.00     0.027 C 
BRANCH  34  35
HETATM   35  C13 UNL     1      14.669  21.315   8.082  1.00  0.00     0.014 C 
BRANCH  35  36
HETATM   36  C14 UNL     1      15.983  22.049   7.840  1.00  0.00     0.113 C 
BRANCH  36  37
HETATM   37  C15 UNL     1      17.063  21.050   7.935  1.00  0.00     0.172 C 
HETATM   38  O2  UNL     1      17.351  20.393   6.904  1.00  0.00    -0.648 OA
HETATM   39  O3  UNL     1      17.732  20.855   9.134  1.00  0.00    -0.648 OA
ENDBRANCH  36  37
ENDBRANCH  35  36
ENDBRANCH  34  35
ENDBRANCH  33  34
ENDBRANCH   8  32
BRANCH   1  40
HETATM   40  C4  UNL     1       8.899  27.469   8.585  1.00  0.00     0.038 C 
BRANCH  40  41
HETATM   41  C2  UNL     1       9.522  27.374   9.928  1.00  0.00    -0.020 C 
HETATM   42  C1  UNL     1       8.681  28.258  10.876  1.00  0.00     0.009 C 
HETATM   43  C3  UNL     1      10.921  27.874  10.061  1.00  0.00     0.009 C 
ENDBRANCH  40  41
ENDBRANCH   1  40
BRANCH  19  44
HETATM   44  C25 UNL     1       4.539  26.924   6.910  1.00  0.00     0.035 C 
BRANCH  44  45
HETATM   45  C26 UNL     1       3.654  25.744   6.687  1.00  0.00     0.022 C 
BRANCH  45  46
HETATM   46  C27 UNL     1       2.225  26.311   6.591  1.00  0.00     0.122 C 
BRANCH  46  47
HETATM   47  N3  UNL     1       2.328  27.392   5.612  1.00  0.00    -0.367 N 
HETATM   48  C28 UNL     1       1.721  27.284   4.494  1.00  0.00     0.196 C 
HETATM   49  N4  UNL     1       0.962  26.137   4.200  1.00  0.00    -0.067 NA
HETATM   50  N5  UNL     1       1.816  28.328   3.546  1.00  0.00    -0.067 NA
ATOM     51  H3  UNL     1       2.880  28.224   5.820  1.00  0.00     0.161 HD
ENDBRANCH  46  47
ENDBRANCH  45  46
ENDBRANCH  44  45
ENDBRANCH  19  44
BRANCH  18  52
HETATM   52  O4  UNL     1       4.970  27.833   4.529  1.00  0.00    -0.348 OA
ATOM     53  H4  UNL     1       4.188  27.862   5.069  1.00  0.00     0.219 HD
ENDBRANCH  18  52
TORSDOF 12
ENDMDL
MODEL 5
REMARK VINA RESULT: -7.779730474      2.021      2.473
REMARK  12 active torsions:
REMARK  status: ('A' for Active; 'I' for Inactive)
REMARK    1  A    between atoms: C2_2  and  C4_4 
REMARK    2  A    between atoms: C4_4  and  C5_5 
REMARK    3  A    between atoms: C9_12  and  C10_13 
REMARK    4  A    between atoms: C11_14  and  C12_15 
REMARK    5  A    between atoms: C12_15  and  C13_16 
REMARK    6  A    between atoms: C13_16  and  C14_17 
REMARK    7  A    between atoms: C14_17  and  C15_18 
REMARK    8  A    between atoms: C23_30  and  O4_31 
REMARK    9  A    between atoms: C24_33  and  C25_34 
REMARK   10  A    between atoms: C25_34  and  C26_35 
REMARK   11  A    between atoms: C26_35  and  C27_36 
REMARK   12  A    between atoms: C27_36  and  N3_37 
ROOT
HETATM    1  C5  UNL     1       8.863  26.256   7.648  1.00  0.00     0.177 C 
HETATM    2  N1  UNL     1       9.890  25.283   7.991  1.00  0.00    -0.348 N 
ATOM      3  H1  UNL     1       9.677  24.639   8.753  1.00  0.00     0.163 HD
HETATM    4  C6  UNL     1      11.137  25.146   7.382  1.00  0.00     0.218 C 
HETATM    5  O1  UNL     1      12.145  24.946   8.139  1.00  0.00    -0.274 OA
HETATM    6  C7  UNL     1      11.376  25.214   5.940  1.00  0.00     0.103 C 
HETATM    7  C8  UNL     1      12.228  24.077   5.446  1.00  0.00     0.021 C 
HETATM    8  C9  UNL     1      11.409  22.899   4.922  1.00  0.00     0.030 C 
HETATM    9  C16 UNL     1      11.908  22.503   3.607  1.00  0.00    -0.022 C 
HETATM   10  C17 UNL     1      11.163  22.426   2.502  1.00  0.00    -0.026 C 
HETATM   11  C18 UNL     1       9.692  22.743   2.481  1.00  0.00     0.053 C 
HETATM   12  C19 UNL     1       9.454  24.187   2.598  1.00  0.00    -0.027 C 
HETATM   13  C20 UNL     1       8.370  24.791   3.045  1.00  0.00    -0.027 C 
HETATM   14  C21 UNL     1       7.141  24.107   3.530  1.00  0.00     0.072 C 
HETATM   15  C22 UNL     1       5.957  24.960   3.229  1.00  0.00     0.141 C 
HETATM   16  N2  UNL     1       6.098  26.263   3.795  1.00  0.00    -0.351 N 
ATOM     17  H2  UNL     1       6.697  26.864   3.229  1.00  0.00     0.163 HD
HETATM   18  C23 UNL     1       5.624  26.908   4.914  1.00  0.00     0.136 C 
HETATM   19  C24 UNL     1       5.833  26.778   6.353  1.00  0.00     0.159 C 
HETATM   20  N6  UNL     1       6.480  25.615   6.855  1.00  0.00    -0.347 N 
ATOM     21  H6  UNL     1       6.115  24.723   6.520  1.00  0.00     0.163 HD
HETATM   22  C29 UNL     1       7.564  25.538   7.759  1.00  0.00     0.241 C 
HETATM   23  O5  UNL     1       7.481  24.789   8.805  1.00  0.00    -0.271 OA
HETATM   24  C30 UNL     1       5.970  25.117   1.703  1.00  0.00     0.229 C 
HETATM   25  O6  UNL     1       6.873  24.681   0.988  1.00  0.00    -0.286 OA
HETATM   26  C31 UNL     1       4.814  25.830   1.177  1.00  0.00     0.201 C 
HETATM   27  O7  UNL     1       4.944  26.426   0.080  1.00  0.00    -0.289 OA
HETATM   28  C32 UNL     1       3.513  25.843   1.934  1.00  0.00     0.115 C 
HETATM   29  C33 UNL     1       3.552  24.690   2.871  1.00  0.00     0.003 C 
HETATM   30  C34 UNL     1       4.662  24.280   3.465  1.00  0.00     0.045 C 
HETATM   31 CL1  UNL     1       4.597  22.898   4.520  1.00  0.00    -0.086 Cl
ENDROOT
BRANCH   8  32
HETATM   32  C10 UNL     1      11.505  21.845   5.937  1.00  0.00    -0.022 C 
HETATM   33  C11 UNL     1      12.381  20.993   6.315  1.00  0.00    -0.030 C 
BRANCH  33  34
HETATM   34  C12 UNL     1      13.742  20.692   5.869  1.00  0.00     0.027 C 
BRANCH  34  35
HETATM   35  C13 UNL     1      13.769  19.576   4.828  1.00  0.00     0.014 C 
BRANCH  35  36
HETATM   36  C14 UNL     1      14.446  20.156   3.591  1.00  0.00     0.113 C 
BRANCH  36  37
HETATM   37  C15 UNL     1      14.601  19.056   2.623  1.00  0.00     0.172 C 
HETATM   38  O2  UNL     1      14.595  17.879   3.062  1.00  0.00    -0.648 OA
HETATM   39  O3  UNL     1      14.746  19.328   1.271  1.00  0.00    -0.648 OA
ENDBRANCH  36  37
ENDBRANCH  35  36
ENDBRANCH  34  35
ENDBRANCH  33  34
ENDBRANCH   8  32
BRANCH   1  40
HETATM   40  C4  UNL     1       8.915  27.480   8.498  1.00  0.00     0.038 C 
BRANCH  40  41
HETATM   41  C2  UNL     1       9.523  27.350   9.845  1.00  0.00    -0.020 C 
HETATM   42  C1  UNL     1       8.702  28.248  10.797  1.00  0.00     0.009 C 
HETATM   43  C3  UNL     1      10.936  27.804   9.995  1.00  0.00     0.009 C 
ENDBRANCH  40  41
ENDBRANCH   1  40
BRANCH  19  44
HETATM   44  C25 UNL     1       4.470  26.965   7.052  1.00  0.00     0.035 C 
BRANCH  44  45
HETATM   45  C26 UNL     1       3.566  25.794   6.862  1.00  0.00     0.022 C 
BRANCH  45  46
HETATM   46  C27 UNL     1       2.143  26.379   6.777  1.00  0.00     0.122 C 
BRANCH  46  47
HETATM   47  N3  UNL     1       2.263  27.488   5.832  1.00  0.00    -0.367 N 
HETATM   48  C28 UNL     1       1.592  27.459   4.745  1.00  0.00     0.196 C 
HETATM   49  N4  UNL     1       0.748  26.373   4.455  1.00  0.00    -0.067 NA
HETATM   50  N5  UNL     1       1.702  28.531   3.831  1.00  0.00    -0.067 NA
ATOM     51  H3  UNL     1       2.876  28.277   6.037  1.00  0.00     0.161 HD
ENDBRANCH  46  47
ENDBRANCH  45  46
ENDBRANCH  44  45
ENDBRANCH  19  44
BRANCH  18  52
HETATM   52  O4  UNL     1       4.779  27.888   4.658  1.00  0.00    -0.348 OA
ATOM     53  H4  UNL     1       4.258  28.159   5.405  1.00  0.00     0.219 HD
ENDBRANCH  18  52
TORSDOF 12
ENDMDL
