MODEL 1
REMARK VINA RESULT: -8.536851083      0.000      0.000
REMARK  5 active torsions:
REMARK  status: ('A' for Active; 'I' for Inactive)
REMARK    1  A    between atoms: N1_2  and  C2_5 
REMARK    2  A    between atoms: C2_5  and  C4_7 
REMARK    3  A    between atoms: C5_8  and  C6_9 
REMARK       I    between atoms: C6_9  and  N2_11 
REMARK    4  A    between atoms: N2_11  and  C7_13 
REMARK    5  A    between atoms: N4_16  and  C9_17 
ROOT
HETATM    1  C7  UNL     1      -1.181   8.299  14.563  1.00  0.00     0.145 A 
HETATM    2  C8  UNL     1      -0.423   7.112  14.617  1.00  0.00     0.155 A 
HETATM    3  N3  UNL     1       0.448   6.831  13.526  1.00  0.00    -0.080 NA
HETATM    4  N4  UNL     1      -0.455   6.223  15.602  1.00  0.00    -0.281 N 
HETATM    5  C13 UNL     1      -1.295   6.508  16.628  1.00  0.00     0.331 A 
HETATM    6  O2  UNL     1      -1.349   5.682  17.580  1.00  0.00    -0.246 OA
HETATM    7  N5  UNL     1      -2.038   7.617  16.632  1.00  0.00    -0.273 N 
ATOM      8  H5  UNL     1      -2.655   7.784  17.426  1.00  0.00     0.173 HD
HETATM    9  C14 UNL     1      -2.012   8.539  15.622  1.00  0.00     0.279 A 
HETATM   10  O3  UNL     1      -2.752   9.556  15.730  1.00  0.00    -0.265 OA
ENDROOT
BRANCH   1  11
HETATM   11  N2  UNL     1      -1.005   9.166  13.476  1.00  0.00    -0.316 N 
HETATM   12  C6  UNL     1      -1.473   9.134  12.167  1.00  0.00     0.245 C 
HETATM   13  O1  UNL     1      -2.176   8.231  11.719  1.00  0.00    -0.268 OA
ATOM     14  H2  UNL     1      -0.421   9.976  13.686  1.00  0.00     0.169 HD
BRANCH  12  15
HETATM   15  C5  UNL     1      -1.115  10.230  11.264  1.00  0.00     0.072 C 
HETATM   16  C4  UNL     1      -1.217  10.321   9.987  1.00  0.00     0.011 C 
BRANCH  16  17
HETATM   17  C2  UNL     1      -1.735   9.316   9.071  1.00  0.00     0.204 C 
HETATM   18  C3  UNL     1      -3.208   9.643   8.806  1.00  0.00     0.044 C 
BRANCH  17  19
HETATM   19  N1  UNL     1      -1.006   9.404   7.781  1.00  0.00    -0.072 N 
HETATM   20  C1  UNL     1      -0.843  10.815   7.520  1.00  0.00     0.267 C 
ATOM     21  H12 UNL     1      -1.459   8.899   7.020  1.00  0.00     0.277 HD
ATOM     22  H11 UNL     1      -0.130   8.883   7.771  1.00  0.00     0.277 HD
ENDBRANCH  17  19
ENDBRANCH  16  17
ENDBRANCH  12  15
ENDBRANCH   1  11
BRANCH   4  23
HETATM   23  C9  UNL     1       0.321   5.033  15.635  1.00  0.00     0.096 C 
HETATM   24  C10 UNL     1       0.605   4.458  17.003  1.00  0.00     0.026 C 
HETATM   25  C11 UNL     1       0.517   3.071  16.344  1.00  0.00     0.004 C 
HETATM   26  C12 UNL     1      -0.423   3.738  15.327  1.00  0.00     0.026 C 
ENDBRANCH   4  23
TORSDOF 5
ENDMDL
MODEL 2
REMARK VINA RESULT: -8.519414207      1.686      1.970
REMARK  5 active torsions:
REMARK  status: ('A' for Active; 'I' for Inactive)
REMARK    1  A    between atoms: N1_2  and  C2_5 
REMARK    2  A    between atoms: C2_5  and  C4_7 
REMARK    3  A    between atoms: C5_8  and  C6_9 
REMARK       I    between atoms: C6_9  and  N2_11 
REMARK    4  A    between atoms: N2_11  and  C7_13 
REMARK    5  A    between atoms: N4_16  and  C9_17 
ROOT
HETATM    1  C7  UNL     1      -2.139   7.017  14.890  1.00  0.00     0.145 A 
HETATM    2  C8  UNL     1      -1.804   5.654  15.017  1.00  0.00     0.155 A 
HETATM    3  N3  UNL     1      -1.839   4.851  13.841  1.00  0.00    -0.080 NA
HETATM    4  N4  UNL     1      -1.462   5.048  16.147  1.00  0.00    -0.281 N 
HETATM    5  C13 UNL     1      -1.442   5.831  17.254  1.00  0.00     0.331 A 
HETATM    6  O2  UNL     1      -1.121   5.284  18.344  1.00  0.00    -0.246 OA
HETATM    7  N5  UNL     1      -1.749   7.128  17.196  1.00  0.00    -0.273 N 
ATOM      8  H5  UNL     1      -1.719   7.673  18.057  1.00  0.00     0.173 HD
HETATM    9  C14 UNL     1      -2.102   7.762  16.036  1.00  0.00     0.279 A 
HETATM   10  O3  UNL     1      -2.368   8.995  16.093  1.00  0.00    -0.265 OA
ENDROOT
BRANCH   1  11
HETATM   11  N2  UNL     1      -2.434   7.526  13.618  1.00  0.00    -0.316 N 
HETATM   12  C6  UNL     1      -1.690   8.279  12.715  1.00  0.00     0.245 C 
HETATM   13  O1  UNL     1      -0.543   8.660  12.932  1.00  0.00    -0.268 OA
ATOM     14  H2  UNL     1      -3.374   7.302  13.292  1.00  0.00     0.169 HD
BRANCH  12  15
HETATM   15  C5  UNL     1      -2.297   8.640  11.432  1.00  0.00     0.072 C 
HETATM   16  C4  UNL     1      -1.781   9.202  10.398  1.00  0.00     0.011 C 
BRANCH  16  17
HETATM   17  C2  UNL     1      -0.404   9.642  10.230  1.00  0.00     0.204 C 
HETATM   18  C3  UNL     1      -0.103   9.663   8.728  1.00  0.00     0.044 C 
BRANCH  17  19
HETATM   19  N1  UNL     1      -0.265  11.027  10.745  1.00  0.00    -0.072 N 
HETATM   20  C1  UNL     1       0.536  11.729   9.769  1.00  0.00     0.267 C 
ATOM     21  H12 UNL     1       0.110  11.075  11.692  1.00  0.00     0.277 HD
ATOM     22  H11 UNL     1      -1.158  11.480  10.943  1.00  0.00     0.277 HD
ENDBRANCH  17  19
ENDBRANCH  16  17
ENDBRANCH  12  15
ENDBRANCH   1  11
BRANCH   4  23
HETATM   23  C9  UNL     1      -1.127   3.670  16.249  1.00  0.00     0.096 C 
HETATM   24  C10 UNL     1       0.348   3.343  16.271  1.00  0.00     0.026 C 
HETATM   25  C11 UNL     1      -0.009   2.193  17.228  1.00  0.00     0.004 C 
HETATM   26  C12 UNL     1      -1.207   3.062  17.645  1.00  0.00     0.026 C 
ENDBRANCH   4  23
TORSDOF 5
ENDMDL
MODEL 3
REMARK VINA RESULT: -8.467656584      1.580      2.607
REMARK  5 active torsions:
REMARK  status: ('A' for Active; 'I' for Inactive)
REMARK    1  A    between atoms: N1_2  and  C2_5 
REMARK    2  A    between atoms: C2_5  and  C4_7 
REMARK    3  A    between atoms: C5_8  and  C6_9 
REMARK       I    between atoms: C6_9  and  N2_11 
REMARK    4  A    between atoms: N2_11  and  C7_13 
REMARK    5  A    between atoms: N4_16  and  C9_17 
ROOT
HETATM    1  C7  UNL     1       0.093   7.247  13.518  1.00  0.00     0.145 A 
HETATM    2  C8  UNL     1      -0.565   7.129  14.759  1.00  0.00     0.155 A 
HETATM    3  N3  UNL     1      -1.412   8.200  15.164  1.00  0.00    -0.080 NA
HETATM    4  N4  UNL     1      -0.459   6.101  15.592  1.00  0.00    -0.281 N 
HETATM    5  C13 UNL     1       0.357   5.096  15.189  1.00  0.00     0.331 A 
HETATM    6  O2  UNL     1       0.480   4.105  15.959  1.00  0.00    -0.246 OA
HETATM    7  N5  UNL     1       1.006   5.151  14.024  1.00  0.00    -0.273 N 
ATOM      8  H5  UNL     1       1.609   4.370  13.767  1.00  0.00     0.173 HD
HETATM    9  C14 UNL     1       0.903   6.205  13.158  1.00  0.00     0.279 A 
HETATM   10  O3  UNL     1       1.558   6.152  12.080  1.00  0.00    -0.265 OA
ENDROOT
BRANCH   1  11
HETATM   11  N2  UNL     1      -0.156   8.373  12.724  1.00  0.00    -0.316 N 
HETATM   12  C6  UNL     1      -1.271   8.780  11.998  1.00  0.00     0.245 C 
HETATM   13  O1  UNL     1      -2.310   8.129  11.929  1.00  0.00    -0.268 OA
ATOM     14  H2  UNL     1       0.631   9.020  12.666  1.00  0.00     0.169 HD
BRANCH  12  15
HETATM   15  C5  UNL     1      -1.214  10.051  11.273  1.00  0.00     0.072 C 
HETATM   16  C4  UNL     1      -1.429  10.311  10.033  1.00  0.00     0.011 C 
BRANCH  16  17
HETATM   17  C2  UNL     1      -1.798   9.368   8.987  1.00  0.00     0.204 C 
HETATM   18  C3  UNL     1      -3.283   9.579   8.676  1.00  0.00     0.044 C 
BRANCH  17  19
HETATM   19  N1  UNL     1      -1.024   9.672   7.758  1.00  0.00    -0.072 N 
HETATM   20  C1  UNL     1      -0.779  11.095   7.790  1.00  0.00     0.267 C 
ATOM     21  H12 UNL     1      -1.478   9.355   6.901  1.00  0.00     0.277 HD
ATOM     22  H11 UNL     1      -0.176   9.113   7.661  1.00  0.00     0.277 HD
ENDBRANCH  17  19
ENDBRANCH  16  17
ENDBRANCH  12  15
ENDBRANCH   1  11
BRANCH   4  23
HETATM   23  C9  UNL     1      -1.135   6.006  16.839  1.00  0.00     0.096 C 
HETATM   24  C10 UNL     1      -2.157   4.899  16.960  1.00  0.00     0.026 C 
HETATM   25  C11 UNL     1      -1.733   4.786  18.434  1.00  0.00     0.004 C 
HETATM   26  C12 UNL     1      -0.370   5.320  17.966  1.00  0.00     0.026 C 
ENDBRANCH   4  23
TORSDOF 5
ENDMDL
MODEL 4
REMARK VINA RESULT: -8.307071585      2.556      7.402
REMARK  5 active torsions:
REMARK  status: ('A' for Active; 'I' for Inactive)
REMARK    1  A    between atoms: N1_2  and  C2_5 
REMARK    2  A    between atoms: C2_5  and  C4_7 
REMARK    3  A    between atoms: C5_8  and  C6_9 
REMARK       I    between atoms: C6_9  and  N2_11 
REMARK    4  A    between atoms: N2_11  and  C7_13 
REMARK    5  A    between atoms: N4_16  and  C9_17 
ROOT
HETATM    1  C7  UNL     1      -1.013   7.615  11.601  1.00  0.00     0.145 A 
HETATM    2  C8  UNL     1      -0.789   8.711  10.744  1.00  0.00     0.155 A 
HETATM    3  N3  UNL     1      -1.316   9.976  11.133  1.00  0.00    -0.080 NA
HETATM    4  N4  UNL     1      -0.129   8.666   9.593  1.00  0.00    -0.281 N 
HETATM    5  C13 UNL     1       0.360   7.451   9.240  1.00  0.00     0.331 A 
HETATM    6  O2  UNL     1       0.992   7.376   8.151  1.00  0.00    -0.246 OA
HETATM    7  N5  UNL     1       0.180   6.378  10.010  1.00  0.00    -0.273 N 
ATOM      8  H5  UNL     1       0.566   5.487   9.699  1.00  0.00     0.173 HD
HETATM    9  C14 UNL     1      -0.499   6.413  11.198  1.00  0.00     0.279 A 
HETATM   10  O3  UNL     1      -0.606   5.338  11.851  1.00  0.00    -0.265 OA
ENDROOT
BRANCH   1  11
HETATM   11  N2  UNL     1      -1.689   7.827  12.809  1.00  0.00    -0.316 N 
HETATM   12  C6  UNL     1      -1.256   7.864  14.131  1.00  0.00     0.245 C 
HETATM   13  O1  UNL     1      -0.089   7.681  14.468  1.00  0.00    -0.268 OA
ATOM     14  H2  UNL     1      -2.691   7.986  12.699  1.00  0.00     0.169 HD
BRANCH  12  15
HETATM   15  C5  UNL     1      -2.235   8.136  15.185  1.00  0.00     0.072 C 
HETATM   16  C4  UNL     1      -2.829   7.334  15.994  1.00  0.00     0.011 C 
BRANCH  16  17
HETATM   17  C2  UNL     1      -2.674   5.889  16.073  1.00  0.00     0.204 C 
HETATM   18  C3  UNL     1      -2.539   5.516  17.553  1.00  0.00     0.044 C 
BRANCH  17  19
HETATM   19  N1  UNL     1      -3.897   5.235  15.545  1.00  0.00    -0.072 N 
HETATM   20  C1  UNL     1      -3.441   4.308  14.536  1.00  0.00     0.267 C 
ATOM     21  H12 UNL     1      -4.599   5.893  15.208  1.00  0.00     0.277 HD
ATOM     22  H11 UNL     1      -4.472   4.801  16.268  1.00  0.00     0.277 HD
ENDBRANCH  17  19
ENDBRANCH  16  17
ENDBRANCH  12  15
ENDBRANCH   1  11
BRANCH   4  23
HETATM   23  C9  UNL     1       0.085   9.788   8.746  1.00  0.00     0.096 C 
HETATM   24  C10 UNL     1      -1.149  10.396   8.120  1.00  0.00     0.026 C 
HETATM   25  C11 UNL     1      -0.442  11.756   8.255  1.00  0.00     0.004 C 
HETATM   26  C12 UNL     1       0.299  11.126   9.446  1.00  0.00     0.026 C 
ENDBRANCH   4  23
TORSDOF 5
ENDMDL
MODEL 5
REMARK VINA RESULT: -8.203228299      1.623      2.120
REMARK  5 active torsions:
REMARK  status: ('A' for Active; 'I' for Inactive)
REMARK    1  A    between atoms: N1_2  and  C2_5 
REMARK    2  A    between atoms: C2_5  and  C4_7 
REMARK    3  A    between atoms: C5_8  and  C6_9 
REMARK       I    between atoms: C6_9  and  N2_11 
REMARK    4  A    between atoms: N2_11  and  C7_13 
REMARK    5  A    between atoms: N4_16  and  C9_17 
ROOT
HETATM    1  C7  UNL     1      -1.599   7.769  14.237  1.00  0.00     0.145 A 
HETATM    2  C8  UNL     1      -1.811   6.383  14.374  1.00  0.00     0.155 A 
HETATM    3  N3  UNL     1      -1.263   5.526  13.376  1.00  0.00    -0.080 NA
HETATM    4  N4  UNL     1      -2.488   5.801  15.357  1.00  0.00    -0.281 N 
HETATM    5  C13 UNL     1      -3.005   6.636  16.292  1.00  0.00     0.331 A 
HETATM    6  O2  UNL     1      -3.654   6.114  17.239  1.00  0.00    -0.246 OA
HETATM    7  N5  UNL     1      -2.838   7.957  16.215  1.00  0.00    -0.273 N 
ATOM      8  H5  UNL     1      -3.248   8.542  16.943  1.00  0.00     0.173 HD
HETATM    9  C14 UNL     1      -2.142   8.566  15.207  1.00  0.00     0.279 A 
HETATM   10  O3  UNL     1      -2.040   9.824  15.234  1.00  0.00    -0.265 OA
ENDROOT
BRANCH   1  11
HETATM   11  N2  UNL     1      -0.821   8.233  13.168  1.00  0.00    -0.316 N 
HETATM   12  C6  UNL     1      -1.148   8.638  11.878  1.00  0.00     0.245 C 
HETATM   13  O1  UNL     1      -2.294   8.634  11.436  1.00  0.00    -0.268 OA
ATOM     14  H2  UNL     1       0.176   8.282  13.375  1.00  0.00     0.169 HD
BRANCH  12  15
HETATM   15  C5  UNL     1      -0.077   9.098  10.991  1.00  0.00     0.072 C 
HETATM   16  C4  UNL     1      -0.131   9.809   9.923  1.00  0.00     0.011 C 
BRANCH  16  17
HETATM   17  C2  UNL     1      -1.321  10.364   9.294  1.00  0.00     0.204 C 
HETATM   18  C3  UNL     1      -0.871  11.504   8.375  1.00  0.00     0.044 C 
BRANCH  17  19
HETATM   19  N1  UNL     1      -1.962   9.323   8.453  1.00  0.00    -0.072 N 
HETATM   20  C1  UNL     1      -3.335   9.740   8.293  1.00  0.00     0.267 C 
ATOM     21  H12 UNL     1      -1.863   8.379   8.825  1.00  0.00     0.277 HD
ATOM     22  H11 UNL     1      -1.479   9.158   7.569  1.00  0.00     0.277 HD
ENDBRANCH  17  19
ENDBRANCH  16  17
ENDBRANCH  12  15
ENDBRANCH   1  11
BRANCH   4  23
HETATM   23  C9  UNL     1      -2.686   4.398  15.474  1.00  0.00     0.096 C 
HETATM   24  C10 UNL     1      -3.689   3.785  14.524  1.00  0.00     0.026 C 
HETATM   25  C11 UNL     1      -2.782   2.542  14.507  1.00  0.00     0.004 C 
HETATM   26  C12 UNL     1      -1.632   3.514  14.815  1.00  0.00     0.026 C 
ENDBRANCH   4  23
TORSDOF 5
ENDMDL
