MODEL 1
REMARK VINA RESULT: -8.736739064      0.000      0.000
REMARK  10 active torsions:
REMARK  status: ('A' for Active; 'I' for Inactive)
REMARK    1  A    between atoms: C3_3  and  C4_4 
REMARK    2  A    between atoms: C7_7  and  C8_8 
REMARK       I    between atoms: N1_9  and  C9_11 
REMARK    3  A    between atoms: C9_11  and  C10_13 
REMARK    4  A    between atoms: C10_13  and  C11_14 
REMARK    5  A    between atoms: C11_14  and  N2_15 
REMARK    6  A    between atoms: N3_18  and  C14_19 
REMARK    7  A    between atoms: C14_19  and  C15_20 
REMARK    8  A    between atoms: C16_21  and  C17_22 
REMARK    9  A    between atoms: C17_22  and  O2_23 
REMARK   10  A    between atoms: N4_31  and  C24_32 
ROOT
HETATM    1  C1  UNL     1      13.344 -18.274  21.211  1.00  0.00     0.112 C 
HETATM    2  C2  UNL     1      13.434 -16.819  21.369  1.00  0.00    -0.104 C 
HETATM    3  C3  UNL     1      13.506 -15.619  21.483  1.00  0.00    -0.049 C 
ENDROOT
BRANCH   3   4
HETATM    4  C4  UNL     1      13.584 -14.184  21.620  1.00  0.00     0.089 A 
HETATM    5  C5  UNL     1      14.500 -13.404  20.971  1.00  0.00     0.055 A 
HETATM    6  C6  UNL     1      14.279 -12.073  21.340  1.00  0.00     0.023 A 
HETATM    7  C7  UNL     1      14.936 -10.919  20.958  1.00  0.00    -0.005 A 
HETATM    8  C26 UNL     1      13.215 -12.083  22.218  1.00  0.00     0.119 A 
HETATM    9  C22 UNL     1      14.477  -9.739  21.503  1.00  0.00     0.031 A 
HETATM   10  C23 UNL     1      13.408  -9.765  22.384  1.00  0.00     0.093 A 
HETATM   11  N4  UNL     1      12.791 -10.906  22.735  1.00  0.00    -0.343 N 
HETATM   12  N5  UNL     1      12.822 -13.368  22.364  1.00  0.00    -0.335 N 
ATOM     13  H5  UNL     1      12.052 -13.675  22.958  1.00  0.00     0.168 HD
BRANCH   7  14
HETATM   14  C8  UNL     1      16.053 -10.973  20.026  1.00  0.00     0.103 C 
HETATM   15  N1  UNL     1      15.873 -11.365  18.834  1.00  0.00    -0.336 N 
HETATM   16  C9  UNL     1      16.869 -11.461  17.841  1.00  0.00     0.223 C 
ATOM     17  H1  UNL     1      14.925 -11.634  18.570  1.00  0.00     0.168 HD
HETATM   18  O1  UNL     1      16.923 -10.505  17.002  1.00  0.00    -0.273 OA
BRANCH  16  19
HETATM   19  C10 UNL     1      17.823 -12.591  17.742  1.00  0.00     0.131 C 
BRANCH  19  20
HETATM   20  C11 UNL     1      19.139 -12.187  18.359  1.00  0.00     0.247 C 
BRANCH  20  21
HETATM   21  N2  UNL     1      19.361 -12.739  19.661  1.00  0.00    -0.062 N 
HETATM   22  C12 UNL     1      19.403 -11.730  20.702  1.00  0.00     0.265 C 
HETATM   23  C13 UNL     1      19.868 -12.359  21.986  1.00  0.00     0.266 C 
HETATM   24  N3  UNL     1      19.881 -13.796  21.854  1.00  0.00    -0.052 N 
HETATM   25  C18 UNL     1      20.843 -14.232  20.849  1.00  0.00     0.266 C 
HETATM   26  C20 UNL     1      18.585 -14.234  21.407  1.00  0.00     0.266 C 
HETATM   27  C19 UNL     1      20.681 -13.364  19.646  1.00  0.00     0.265 C 
HETATM   28  C21 UNL     1      18.363 -13.718  20.000  1.00  0.00     0.265 C 
BRANCH  24  29
HETATM   29  C14 UNL     1      20.264 -14.420  23.103  1.00  0.00     0.331 C 
BRANCH  29  30
HETATM   30  C15 UNL     1      21.558 -13.967  23.589  1.00  0.00    -0.076 C 
HETATM   31  C16 UNL     1      22.632 -13.599  24.009  1.00  0.00    -0.079 C 
BRANCH  31  32
HETATM   32  C17 UNL     1      23.933 -13.153  24.542  1.00  0.00     0.257 C 
BRANCH  32  33
HETATM   33  O2  UNL     1      24.972 -13.492  23.672  1.00  0.00    -0.389 OA
ATOM     34  H2  UNL     1      25.770 -13.677  24.152  1.00  0.00     0.210 HD
ENDBRANCH  32  33
ENDBRANCH  31  32
ENDBRANCH  29  30
ENDBRANCH  24  29
ENDBRANCH  20  21
ENDBRANCH  19  20
ENDBRANCH  16  19
ENDBRANCH   7  14
BRANCH  11  35
HETATM   35  C24 UNL     1      11.663 -10.902  23.670  1.00  0.00     0.125 C 
HETATM   36  C25 UNL     1      11.596  -9.589  24.408  1.00  0.00     0.027 C 
ENDBRANCH  11  35
ENDBRANCH   3   4
TORSDOF 10
ENDMDL
MODEL 2
REMARK VINA RESULT: -8.697413762      2.937      8.334
REMARK  10 active torsions:
REMARK  status: ('A' for Active; 'I' for Inactive)
REMARK    1  A    between atoms: C3_3  and  C4_4 
REMARK    2  A    between atoms: C7_7  and  C8_8 
REMARK       I    between atoms: N1_9  and  C9_11 
REMARK    3  A    between atoms: C9_11  and  C10_13 
REMARK    4  A    between atoms: C10_13  and  C11_14 
REMARK    5  A    between atoms: C11_14  and  N2_15 
REMARK    6  A    between atoms: N3_18  and  C14_19 
REMARK    7  A    between atoms: C14_19  and  C15_20 
REMARK    8  A    between atoms: C16_21  and  C17_22 
REMARK    9  A    between atoms: C17_22  and  O2_23 
REMARK   10  A    between atoms: N4_31  and  C24_32 
ROOT
HETATM    1  C1  UNL     1      21.006 -12.000  17.225  1.00  0.00     0.112 C 
HETATM    2  C2  UNL     1      20.979 -12.404  18.634  1.00  0.00    -0.104 C 
HETATM    3  C3  UNL     1      20.943 -12.745  19.792  1.00  0.00    -0.049 C 
ENDROOT
BRANCH   3   4
HETATM    4  C4  UNL     1      20.906 -13.160  21.174  1.00  0.00     0.089 A 
HETATM    5  C5  UNL     1      19.844 -13.799  21.751  1.00  0.00     0.055 A 
HETATM    6  C6  UNL     1      20.158 -14.046  23.091  1.00  0.00     0.023 A 
HETATM    7  C7  UNL     1      19.419 -14.660  24.083  1.00  0.00    -0.005 A 
HETATM    8  C26 UNL     1      21.426 -13.541  23.294  1.00  0.00     0.119 A 
HETATM    9  C22 UNL     1      20.012 -14.755  25.325  1.00  0.00     0.031 A 
HETATM   10  C23 UNL     1      21.286 -14.243  25.513  1.00  0.00     0.093 A 
HETATM   11  N4  UNL     1      21.978 -13.650  24.525  1.00  0.00    -0.343 N 
HETATM   12  N5  UNL     1      21.845 -13.016  22.121  1.00  0.00    -0.335 N 
ATOM     13  H5  UNL     1      22.752 -12.571  21.976  1.00  0.00     0.168 HD
BRANCH   7  14
HETATM   14  C8  UNL     1      18.085 -15.174  23.808  1.00  0.00     0.103 C 
HETATM   15  N1  UNL     1      17.907 -16.036  22.895  1.00  0.00    -0.336 N 
HETATM   16  C9  UNL     1      16.671 -16.608  22.534  1.00  0.00     0.223 C 
ATOM     17  H1  UNL     1      18.731 -16.342  22.377  1.00  0.00     0.168 HD
HETATM   18  O1  UNL     1      16.428 -17.767  23.001  1.00  0.00    -0.273 OA
BRANCH  16  19
HETATM   19  C10 UNL     1      15.677 -15.934  21.664  1.00  0.00     0.131 C 
BRANCH  19  20
HETATM   20  C11 UNL     1      16.325 -14.746  20.998  1.00  0.00     0.247 C 
BRANCH  20  21
HETATM   21  N2  UNL     1      15.458 -13.615  20.860  1.00  0.00    -0.062 N 
HETATM   22  C12 UNL     1      16.096 -12.366  21.228  1.00  0.00     0.265 C 
HETATM   23  C13 UNL     1      15.063 -11.275  21.280  1.00  0.00     0.266 C 
HETATM   24  N3  UNL     1      13.824 -11.743  20.707  1.00  0.00    -0.052 N 
HETATM   25  C18 UNL     1      13.256 -12.840  21.483  1.00  0.00     0.266 C 
HETATM   26  C20 UNL     1      14.086 -12.259  19.390  1.00  0.00     0.266 C 
HETATM   27  C19 UNL     1      14.354 -13.800  21.798  1.00  0.00     0.265 C 
HETATM   28  C21 UNL     1      14.945 -13.500  19.521  1.00  0.00     0.265 C 
BRANCH  24  29
HETATM   29  C14 UNL     1      12.837 -10.685  20.690  1.00  0.00     0.331 C 
BRANCH  29  30
HETATM   30  C15 UNL     1      12.614 -10.096  22.002  1.00  0.00    -0.076 C 
HETATM   31  C16 UNL     1      12.435  -9.590  23.086  1.00  0.00    -0.079 C 
BRANCH  31  32
HETATM   32  C17 UNL     1      12.234  -8.961  24.405  1.00  0.00     0.257 C 
BRANCH  32  33
HETATM   33  O2  UNL     1      13.338  -8.183  24.762  1.00  0.00    -0.389 OA
ATOM     34  H2  UNL     1      13.436  -8.146  25.706  1.00  0.00     0.210 HD
ENDBRANCH  32  33
ENDBRANCH  31  32
ENDBRANCH  29  30
ENDBRANCH  24  29
ENDBRANCH  20  21
ENDBRANCH  19  20
ENDBRANCH  16  19
ENDBRANCH   7  14
BRANCH  11  35
HETATM   35  C24 UNL     1      23.323 -13.118  24.755  1.00  0.00     0.125 C 
HETATM   36  C25 UNL     1      24.346 -14.224  24.682  1.00  0.00     0.027 C 
ENDBRANCH  11  35
ENDBRANCH   3   4
TORSDOF 10
ENDMDL
MODEL 3
REMARK VINA RESULT: -8.627061015      2.925      8.293
REMARK  10 active torsions:
REMARK  status: ('A' for Active; 'I' for Inactive)
REMARK    1  A    between atoms: C3_3  and  C4_4 
REMARK    2  A    between atoms: C7_7  and  C8_8 
REMARK       I    between atoms: N1_9  and  C9_11 
REMARK    3  A    between atoms: C9_11  and  C10_13 
REMARK    4  A    between atoms: C10_13  and  C11_14 
REMARK    5  A    between atoms: C11_14  and  N2_15 
REMARK    6  A    between atoms: N3_18  and  C14_19 
REMARK    7  A    between atoms: C14_19  and  C15_20 
REMARK    8  A    between atoms: C16_21  and  C17_22 
REMARK    9  A    between atoms: C17_22  and  O2_23 
REMARK   10  A    between atoms: N4_31  and  C24_32 
ROOT
HETATM    1  C1  UNL     1      20.997 -11.999  17.204  1.00  0.00     0.112 C 
HETATM    2  C2  UNL     1      20.964 -12.440  18.602  1.00  0.00    -0.104 C 
HETATM    3  C3  UNL     1      20.926 -12.790  19.757  1.00  0.00    -0.049 C 
ENDROOT
BRANCH   3   4
HETATM    4  C4  UNL     1      20.875 -13.215  21.135  1.00  0.00     0.089 A 
HETATM    5  C5  UNL     1      19.836 -13.919  21.678  1.00  0.00     0.055 A 
HETATM    6  C6  UNL     1      20.126 -14.155  23.026  1.00  0.00     0.023 A 
HETATM    7  C7  UNL     1      19.397 -14.818  23.994  1.00  0.00    -0.005 A 
HETATM    8  C26 UNL     1      21.356 -13.579  23.267  1.00  0.00     0.119 A 
HETATM    9  C22 UNL     1      19.959 -14.886  25.252  1.00  0.00     0.031 A 
HETATM   10  C23 UNL     1      21.196 -14.302  25.478  1.00  0.00     0.093 A 
HETATM   11  N4  UNL     1      21.879 -13.663  24.512  1.00  0.00    -0.343 N 
HETATM   12  N5  UNL     1      21.777 -13.023  22.109  1.00  0.00    -0.335 N 
ATOM     13  H5  UNL     1      22.660 -12.525  21.992  1.00  0.00     0.168 HD
BRANCH   7  14
HETATM   14  C8  UNL     1      18.104 -15.407  23.679  1.00  0.00     0.103 C 
HETATM   15  N1  UNL     1      17.996 -16.246  22.735  1.00  0.00    -0.336 N 
HETATM   16  C9  UNL     1      16.805 -16.884  22.333  1.00  0.00     0.223 C 
ATOM     17  H1  UNL     1      18.846 -16.480  22.221  1.00  0.00     0.168 HD
HETATM   18  O1  UNL     1      16.630 -18.071  22.756  1.00  0.00    -0.273 OA
BRANCH  16  19
HETATM   19  C10 UNL     1      15.783 -16.246  21.469  1.00  0.00     0.131 C 
BRANCH  19  20
HETATM   20  C11 UNL     1      16.369 -15.008  20.837  1.00  0.00     0.247 C 
BRANCH  20  21
HETATM   21  N2  UNL     1      15.510 -13.864  20.898  1.00  0.00    -0.062 N 
HETATM   22  C12 UNL     1      14.389 -14.047  21.800  1.00  0.00     0.265 C 
HETATM   23  C13 UNL     1      13.423 -12.908  21.630  1.00  0.00     0.266 C 
HETATM   24  N3  UNL     1      14.022 -11.870  20.826  1.00  0.00    -0.052 N 
HETATM   25  C18 UNL     1      14.300 -12.336  19.472  1.00  0.00     0.266 C 
HETATM   26  C20 UNL     1      15.286 -11.502  21.406  1.00  0.00     0.266 C 
HETATM   27  C19 UNL     1      14.937 -13.682  19.567  1.00  0.00     0.265 C 
HETATM   28  C21 UNL     1      16.231 -12.680  21.285  1.00  0.00     0.265 C 
BRANCH  24  29
HETATM   29  C14 UNL     1      13.129 -10.737  20.706  1.00  0.00     0.331 C 
BRANCH  29  30
HETATM   30  C15 UNL     1      12.845 -10.101  21.984  1.00  0.00    -0.076 C 
HETATM   31  C16 UNL     1      12.591  -9.580  23.046  1.00  0.00    -0.079 C 
BRANCH  31  32
HETATM   32  C17 UNL     1      12.262  -8.941  24.334  1.00  0.00     0.257 C 
BRANCH  32  33
HETATM   33  O2  UNL     1      13.324  -8.155  24.788  1.00  0.00    -0.389 OA
ATOM     34  H2  UNL     1      13.998  -8.693  25.187  1.00  0.00     0.210 HD
ENDBRANCH  32  33
ENDBRANCH  31  32
ENDBRANCH  29  30
ENDBRANCH  24  29
ENDBRANCH  20  21
ENDBRANCH  19  20
ENDBRANCH  16  19
ENDBRANCH   7  14
BRANCH  11  35
HETATM   35  C24 UNL     1      23.184 -13.055  24.783  1.00  0.00     0.125 C 
HETATM   36  C25 UNL     1      24.273 -14.097  24.723  1.00  0.00     0.027 C 
ENDBRANCH  11  35
ENDBRANCH   3   4
TORSDOF 10
ENDMDL
MODEL 4
REMARK VINA RESULT: -8.462797724      2.678      7.370
REMARK  10 active torsions:
REMARK  status: ('A' for Active; 'I' for Inactive)
REMARK    1  A    between atoms: C3_3  and  C4_4 
REMARK    2  A    between atoms: C7_7  and  C8_8 
REMARK       I    between atoms: N1_9  and  C9_11 
REMARK    3  A    between atoms: C9_11  and  C10_13 
REMARK    4  A    between atoms: C10_13  and  C11_14 
REMARK    5  A    between atoms: C11_14  and  N2_15 
REMARK    6  A    between atoms: N3_18  and  C14_19 
REMARK    7  A    between atoms: C14_19  and  C15_20 
REMARK    8  A    between atoms: C16_21  and  C17_22 
REMARK    9  A    between atoms: C17_22  and  O2_23 
REMARK   10  A    between atoms: N4_31  and  C24_32 
ROOT
HETATM    1  C1  UNL     1      15.867 -18.992  24.993  1.00  0.00     0.112 C 
HETATM    2  C2  UNL     1      16.927 -18.015  24.730  1.00  0.00    -0.104 C 
HETATM    3  C3  UNL     1      17.789 -17.198  24.512  1.00  0.00    -0.049 C 
ENDROOT
BRANCH   3   4
HETATM    4  C4  UNL     1      18.820 -16.220  24.260  1.00  0.00     0.089 A 
HETATM    5  C5  UNL     1      19.012 -15.607  23.052  1.00  0.00     0.055 A 
HETATM    6  C6  UNL     1      20.091 -14.727  23.177  1.00  0.00     0.023 A 
HETATM    7  C7  UNL     1      20.670 -13.885  22.246  1.00  0.00    -0.005 A 
HETATM    8  C26 UNL     1      20.533 -14.831  24.480  1.00  0.00     0.119 A 
HETATM    9  C22 UNL     1      21.739 -13.129  22.678  1.00  0.00     0.031 A 
HETATM   10  C23 UNL     1      22.170 -13.245  23.990  1.00  0.00     0.093 A 
HETATM   11  N4  UNL     1      21.584 -14.074  24.871  1.00  0.00    -0.343 N 
HETATM   12  N5  UNL     1      19.746 -15.737  25.102  1.00  0.00    -0.335 N 
ATOM     13  H5  UNL     1      19.843 -16.016  26.078  1.00  0.00     0.168 HD
BRANCH   7  14
HETATM   14  C8  UNL     1      20.159 -13.818  20.884  1.00  0.00     0.103 C 
HETATM   15  N1  UNL     1      19.729 -12.722  20.415  1.00  0.00    -0.336 N 
HETATM   16  C9  UNL     1      19.212 -12.529  19.118  1.00  0.00     0.223 C 
ATOM     17  H1  UNL     1      19.761 -11.908  21.030  1.00  0.00     0.168 HD
HETATM   18  O1  UNL     1      20.007 -12.021  18.264  1.00  0.00    -0.273 OA
BRANCH  16  19
HETATM   19  C10 UNL     1      17.827 -12.884  18.726  1.00  0.00     0.131 C 
BRANCH  19  20
HETATM   20  C11 UNL     1      16.993 -11.629  18.657  1.00  0.00     0.247 C 
BRANCH  20  21
HETATM   21  N2  UNL     1      15.813 -11.674  19.467  1.00  0.00    -0.062 N 
HETATM   22  C12 UNL     1      15.493 -13.011  19.926  1.00  0.00     0.265 C 
HETATM   23  C13 UNL     1      14.131 -13.007  20.563  1.00  0.00     0.266 C 
HETATM   24  N3  UNL     1      13.680 -11.649  20.750  1.00  0.00    -0.052 N 
HETATM   25  C18 UNL     1      13.504 -10.964  19.475  1.00  0.00     0.266 C 
HETATM   26  C20 UNL     1      14.684 -10.920  21.478  1.00  0.00     0.266 C 
HETATM   27  C19 UNL     1      14.695 -11.254  18.625  1.00  0.00     0.265 C 
HETATM   28  C21 UNL     1      15.918 -10.802  20.606  1.00  0.00     0.265 C 
BRANCH  24  29
HETATM   29  C14 UNL     1      12.398 -11.625  21.421  1.00  0.00     0.331 C 
BRANCH  29  30
HETATM   30  C15 UNL     1      12.314 -10.597  22.448  1.00  0.00    -0.076 C 
HETATM   31  C16 UNL     1      12.264  -9.743  23.304  1.00  0.00    -0.079 C 
BRANCH  31  32
HETATM   32  C17 UNL     1      12.220  -8.709  24.355  1.00  0.00     0.257 C 
BRANCH  32  33
HETATM   33  O2  UNL     1      13.504  -8.254  24.663  1.00  0.00    -0.389 OA
ATOM     34  H2  UNL     1      13.766  -8.538  25.531  1.00  0.00     0.210 HD
ENDBRANCH  32  33
ENDBRANCH  31  32
ENDBRANCH  29  30
ENDBRANCH  24  29
ENDBRANCH  20  21
ENDBRANCH  19  20
ENDBRANCH  16  19
ENDBRANCH   7  14
BRANCH  11  35
HETATM   35  C24 UNL     1      22.063 -14.176  26.251  1.00  0.00     0.125 C 
HETATM   36  C25 UNL     1      21.405 -13.129  27.115  1.00  0.00     0.027 C 
ENDBRANCH  11  35
ENDBRANCH   3   4
TORSDOF 10
ENDMDL
MODEL 5
REMARK VINA RESULT: -8.435382763      2.950      7.944
REMARK  10 active torsions:
REMARK  status: ('A' for Active; 'I' for Inactive)
REMARK    1  A    between atoms: C3_3  and  C4_4 
REMARK    2  A    between atoms: C7_7  and  C8_8 
REMARK       I    between atoms: N1_9  and  C9_11 
REMARK    3  A    between atoms: C9_11  and  C10_13 
REMARK    4  A    between atoms: C10_13  and  C11_14 
REMARK    5  A    between atoms: C11_14  and  N2_15 
REMARK    6  A    between atoms: N3_18  and  C14_19 
REMARK    7  A    between atoms: C14_19  and  C15_20 
REMARK    8  A    between atoms: C16_21  and  C17_22 
REMARK    9  A    between atoms: C17_22  and  O2_23 
REMARK   10  A    between atoms: N4_31  and  C24_32 
ROOT
HETATM    1  C1  UNL     1      21.207 -11.911  16.862  1.00  0.00     0.112 C 
HETATM    2  C2  UNL     1      20.901 -12.372  18.220  1.00  0.00    -0.104 C 
HETATM    3  C3  UNL     1      20.641 -12.737  19.340  1.00  0.00    -0.049 C 
ENDROOT
BRANCH   3   4
HETATM    4  C4  UNL     1      20.322 -13.179  20.677  1.00  0.00     0.089 A 
HETATM    5  C5  UNL     1      19.208 -13.905  20.995  1.00  0.00     0.055 A 
HETATM    6  C6  UNL     1      19.227 -14.153  22.371  1.00  0.00     0.023 A 
HETATM    7  C7  UNL     1      18.331 -14.838  23.169  1.00  0.00    -0.005 A 
HETATM    8  C26 UNL     1      20.374 -13.561  22.859  1.00  0.00     0.119 A 
HETATM    9  C22 UNL     1      18.632 -14.913  24.513  1.00  0.00     0.031 A 
HETATM   10  C23 UNL     1      19.788 -14.313  24.986  1.00  0.00     0.093 A 
HETATM   11  N4  UNL     1      20.639 -13.653  24.183  1.00  0.00    -0.343 N 
HETATM   12  N5  UNL     1      21.008 -12.985  21.813  1.00  0.00    -0.335 N 
ATOM     13  H5  UNL     1      21.888 -12.473  21.879  1.00  0.00     0.168 HD
BRANCH   7  14
HETATM   14  C8  UNL     1      17.137 -15.443  22.596  1.00  0.00     0.103 C 
HETATM   15  N1  UNL     1      17.194 -16.037  21.478  1.00  0.00    -0.336 N 
HETATM   16  C9  UNL     1      16.113 -16.659  20.821  1.00  0.00     0.223 C 
ATOM     17  H1  UNL     1      18.102 -16.068  21.013  1.00  0.00     0.168 HD
HETATM   18  O1  UNL     1      16.034 -17.924  20.939  1.00  0.00    -0.273 OA
BRANCH  16  19
HETATM   19  C10 UNL     1      15.100 -15.922  20.029  1.00  0.00     0.131 C 
BRANCH  19  20
HETATM   20  C11 UNL     1      15.763 -14.761  19.330  1.00  0.00     0.247 C 
BRANCH  20  21
HETATM   21  N2  UNL     1      15.115 -13.505  19.553  1.00  0.00    -0.062 N 
HETATM   22  C12 UNL     1      15.876 -12.621  20.415  1.00  0.00     0.265 C 
HETATM   23  C13 UNL     1      15.030 -11.434  20.782  1.00  0.00     0.266 C 
HETATM   24  N3  UNL     1      13.836 -11.410  19.972  1.00  0.00    -0.052 N 
HETATM   25  C18 UNL     1      12.992 -12.571  20.230  1.00  0.00     0.266 C 
HETATM   26  C20 UNL     1      14.213 -11.470  18.585  1.00  0.00     0.266 C 
HETATM   27  C19 UNL     1      13.864 -13.781  20.255  1.00  0.00     0.265 C 
HETATM   28  C21 UNL     1      14.838 -12.824  18.315  1.00  0.00     0.265 C 
BRANCH  24  29
HETATM   29  C14 UNL     1      13.041 -10.237  20.268  1.00  0.00     0.331 C 
BRANCH  29  30
HETATM   30  C15 UNL     1      12.545 -10.219  21.636  1.00  0.00    -0.076 C 
HETATM   31  C16 UNL     1      12.116 -10.203  22.767  1.00  0.00    -0.079 C 
BRANCH  31  32
HETATM   32  C17 UNL     1      11.575 -10.173  24.140  1.00  0.00     0.257 C 
BRANCH  32  33
HETATM   33  O2  UNL     1      10.817 -11.316  24.404  1.00  0.00    -0.389 OA
ATOM     34  H2  UNL     1      10.509 -11.713  23.598  1.00  0.00     0.210 HD
ENDBRANCH  32  33
ENDBRANCH  31  32
ENDBRANCH  29  30
ENDBRANCH  24  29
ENDBRANCH  20  21
ENDBRANCH  19  20
ENDBRANCH  16  19
ENDBRANCH   7  14
BRANCH  11  35
HETATM   35  C24 UNL     1      21.853 -13.029  24.714  1.00  0.00     0.125 C 
HETATM   36  C25 UNL     1      21.691 -12.726  26.182  1.00  0.00     0.027 C 
ENDBRANCH  11  35
ENDBRANCH   3   4
TORSDOF 10
ENDMDL
