MODEL 1
REMARK VINA RESULT: -6.245524809      0.000      0.000
REMARK  7 active torsions:
REMARK  status: ('A' for Active; 'I' for Inactive)
REMARK    1  A    between atoms: N1_2  and  C4_5 
REMARK    2  A    between atoms: C4_5  and  C5_6 
REMARK    3  A    between atoms: C5_6  and  C6_7 
REMARK    4  A    between atoms: C6_7  and  N2_8 
REMARK    5  A    between atoms: N2_8  and  C7_10 
REMARK    6  A    between atoms: C7_10  and  C8_11 
REMARK    7  A    between atoms: C8_11  and  C9_12 
REMARK       I    between atoms: N4_27  and  C21_29 
ROOT
HETATM    1  C7  UNL     1      -9.145  38.760  18.564  1.00  0.00     0.080 C 
HETATM    2  N4  UNL     1      -9.451  39.563  17.613  1.00  0.00    -0.321 N 
ATOM      3  H4  UNL     1     -10.197  39.317  16.962  1.00  0.00     0.169 HD
HETATM    4  C21 UNL     1      -8.764  40.781  17.461  1.00  0.00     0.187 C 
HETATM    5  N5  UNL     1      -7.496  40.810  17.222  1.00  0.00    -0.373 N 
ATOM      6  H51 UNL     1      -6.999  41.693  17.113  1.00  0.00     0.158 HD
ATOM      7  H52 UNL     1      -6.959  39.947  17.137  1.00  0.00     0.158 HD
HETATM    8  N6  UNL     1      -9.509  41.979  17.579  1.00  0.00    -0.064 NA
ENDROOT
BRANCH   1   9
HETATM    9  N2  UNL     1      -8.108  39.121  19.455  1.00  0.00    -0.380 N 
ATOM     10  H2  UNL     1      -7.194  39.311  19.044  1.00  0.00     0.160 HD
BRANCH   9  11
HETATM   11  C6  UNL     1      -8.217  39.245  20.874  1.00  0.00     0.122 C 
BRANCH  11  12
HETATM   12  C5  UNL     1      -9.177  40.321  21.318  1.00  0.00     0.047 C 
BRANCH  12  13
HETATM   13  C4  UNL     1      -8.509  41.670  21.084  1.00  0.00     0.237 C 
BRANCH  13  14
HETATM   14  N1  UNL     1      -9.289  42.705  21.742  1.00  0.00    -0.079 N 
HETATM   15  C1  UNL     1      -8.483  43.218  22.839  1.00  0.00     0.271 C 
HETATM   16  C2  UNL     1      -9.632  43.795  20.877  1.00  0.00     0.271 C 
HETATM   17  C3  UNL     1     -10.477  42.108  22.327  1.00  0.00     0.271 C 
ENDBRANCH  13  14
ENDBRANCH  12  13
ENDBRANCH  11  12
ENDBRANCH   9  11
ENDBRANCH   1   9
BRANCH   1  18
HETATM   18  C8  UNL     1      -9.846  37.483  18.751  1.00  0.00     0.093 C 
BRANCH  18  19
HETATM   19  C9  UNL     1     -11.335  37.604  18.495  1.00  0.00     0.073 C 
HETATM   20  C10 UNL     1     -12.036  38.375  19.428  1.00  0.00    -0.101 C 
HETATM   21  C11 UNL     1     -12.597  39.012  20.161  1.00  0.00    -0.106 C 
HETATM   22  C12 UNL     1     -13.295  39.831  21.059  1.00  0.00     0.094 C 
HETATM   23  C13 UNL     1     -14.618  39.229  21.547  1.00  0.00     0.012 C 
HETATM   24  C14 UNL     1     -15.306  38.471  20.432  1.00  0.00     0.001 C 
HETATM   25  C15 UNL     1     -15.807  39.353  19.334  1.00  0.00     0.000 C 
HETATM   26  C16 UNL     1     -16.443  38.471  18.285  1.00  0.00     0.009 C 
HETATM   27  C17 UNL     1     -15.440  37.708  17.461  1.00  0.00     0.103 C 
HETATM   28  C18 UNL     1     -15.379  36.269  17.877  1.00  0.00     0.217 C 
HETATM   29  O1  UNL     1     -16.489  35.747  18.187  1.00  0.00    -0.274 OA
HETATM   30  N3  UNL     1     -14.192  35.523  17.929  1.00  0.00    -0.361 N 
HETATM   31  C19 UNL     1     -12.907  35.952  17.425  1.00  0.00     0.123 C 
ATOM     32  H3  UNL     1     -14.241  34.599  18.358  1.00  0.00     0.162 HD
HETATM   33  C20 UNL     1     -11.892  36.173  18.533  1.00  0.00     0.037 C 
ENDBRANCH  18  19
ENDBRANCH   1  18
TORSDOF 7
ENDMDL
MODEL 2
REMARK VINA RESULT: -6.086307726      0.753      1.040
REMARK  7 active torsions:
REMARK  status: ('A' for Active; 'I' for Inactive)
REMARK    1  A    between atoms: N1_2  and  C4_5 
REMARK    2  A    between atoms: C4_5  and  C5_6 
REMARK    3  A    between atoms: C5_6  and  C6_7 
REMARK    4  A    between atoms: C6_7  and  N2_8 
REMARK    5  A    between atoms: N2_8  and  C7_10 
REMARK    6  A    between atoms: C7_10  and  C8_11 
REMARK    7  A    between atoms: C8_11  and  C9_12 
REMARK       I    between atoms: N4_27  and  C21_29 
ROOT
HETATM    1  C7  UNL     1      -9.279  38.806  18.632  1.00  0.00     0.080 C 
HETATM    2  N4  UNL     1      -9.581  39.581  17.656  1.00  0.00    -0.321 N 
ATOM      3  H4  UNL     1     -10.313  39.308  17.000  1.00  0.00     0.169 HD
HETATM    4  C21 UNL     1      -8.909  40.805  17.486  1.00  0.00     0.187 C 
HETATM    5  N5  UNL     1      -7.638  40.846  17.267  1.00  0.00    -0.373 N 
ATOM      6  H51 UNL     1      -7.151  41.734  17.143  1.00  0.00     0.158 HD
ATOM      7  H52 UNL     1      -7.088  39.989  17.211  1.00  0.00     0.158 HD
HETATM    8  N6  UNL     1      -9.673  41.994  17.563  1.00  0.00    -0.064 NA
ENDROOT
BRANCH   1   9
HETATM    9  N2  UNL     1      -8.262  39.203  19.530  1.00  0.00    -0.380 N 
ATOM     10  H2  UNL     1      -7.650  39.960  19.226  1.00  0.00     0.160 HD
BRANCH   9  11
HETATM   11  C6  UNL     1      -8.009  38.647  20.822  1.00  0.00     0.122 C 
BRANCH  11  12
HETATM   12  C5  UNL     1      -8.164  39.637  21.950  1.00  0.00     0.047 C 
BRANCH  12  13
HETATM   13  C4  UNL     1      -9.654  39.846  22.188  1.00  0.00     0.237 C 
BRANCH  13  14
HETATM   14  N1  UNL     1      -9.919  41.270  22.301  1.00  0.00    -0.079 N 
HETATM   15  C1  UNL     1     -10.984  41.431  23.280  1.00  0.00     0.271 C 
HETATM   16  C2  UNL     1      -8.782  42.029  22.732  1.00  0.00     0.271 C 
HETATM   17  C3  UNL     1     -10.428  41.764  21.033  1.00  0.00     0.271 C 
ENDBRANCH  13  14
ENDBRANCH  12  13
ENDBRANCH  11  12
ENDBRANCH   9  11
ENDBRANCH   1   9
BRANCH   1  18
HETATM   18  C8  UNL     1      -9.965  37.523  18.839  1.00  0.00     0.093 C 
BRANCH  18  19
HETATM   19  C9  UNL     1     -11.449  37.613  18.540  1.00  0.00     0.073 C 
HETATM   20  C10 UNL     1     -12.197  38.345  19.467  1.00  0.00    -0.101 C 
HETATM   21  C11 UNL     1     -12.796  38.951  20.196  1.00  0.00    -0.106 C 
HETATM   22  C12 UNL     1     -13.542  39.733  21.089  1.00  0.00     0.094 C 
HETATM   23  C13 UNL     1     -14.862  39.088  21.523  1.00  0.00     0.012 C 
HETATM   24  C14 UNL     1     -15.497  38.338  20.373  1.00  0.00     0.001 C 
HETATM   25  C15 UNL     1     -15.988  39.230  19.278  1.00  0.00     0.000 C 
HETATM   26  C16 UNL     1     -16.568  38.356  18.192  1.00  0.00     0.009 C 
HETATM   27  C17 UNL     1     -15.522  37.636  17.383  1.00  0.00     0.103 C 
HETATM   28  C18 UNL     1     -15.436  36.190  17.770  1.00  0.00     0.217 C 
HETATM   29  O1  UNL     1     -16.542  35.634  18.035  1.00  0.00    -0.274 OA
HETATM   30  N3  UNL     1     -14.233  35.473  17.843  1.00  0.00    -0.361 N 
HETATM   31  C19 UNL     1     -12.945  35.945  17.388  1.00  0.00     0.123 C 
ATOM     32  H3  UNL     1     -14.271  34.540  18.251  1.00  0.00     0.162 HD
HETATM   33  C20 UNL     1     -11.970  36.168  18.531  1.00  0.00     0.037 C 
ENDBRANCH  18  19
ENDBRANCH   1  18
TORSDOF 7
ENDMDL
MODEL 3
REMARK VINA RESULT: -6.049534302      3.052      7.085
REMARK  7 active torsions:
REMARK  status: ('A' for Active; 'I' for Inactive)
REMARK    1  A    between atoms: N1_2  and  C4_5 
REMARK    2  A    between atoms: C4_5  and  C5_6 
REMARK    3  A    between atoms: C5_6  and  C6_7 
REMARK    4  A    between atoms: C6_7  and  N2_8 
REMARK    5  A    between atoms: N2_8  and  C7_10 
REMARK    6  A    between atoms: C7_10  and  C8_11 
REMARK    7  A    between atoms: C8_11  and  C9_12 
REMARK       I    between atoms: N4_27  and  C21_29 
ROOT
HETATM    1  C7  UNL     1      -8.962  41.621  17.582  1.00  0.00     0.080 C 
HETATM    2  N4  UNL     1      -7.750  41.232  17.427  1.00  0.00    -0.321 N 
ATOM      3  H4  UNL     1      -6.991  41.746  17.875  1.00  0.00     0.169 HD
HETATM    4  C21 UNL     1      -7.461  40.099  16.645  1.00  0.00     0.187 C 
HETATM    5  N5  UNL     1      -7.746  40.065  15.386  1.00  0.00    -0.373 N 
ATOM      6  H51 UNL     1      -7.537  39.243  14.819  1.00  0.00     0.158 HD
ATOM      7  H52 UNL     1      -8.190  40.860  14.928  1.00  0.00     0.158 HD
HETATM    8  N6  UNL     1      -6.845  38.996  17.282  1.00  0.00    -0.064 NA
ENDROOT
BRANCH   1   9
HETATM    9  N2  UNL     1      -9.998  40.894  16.953  1.00  0.00    -0.380 N 
ATOM     10  H2  UNL     1      -9.728  40.279  16.185  1.00  0.00     0.160 HD
BRANCH   9  11
HETATM   11  C6  UNL     1     -11.386  40.935  17.290  1.00  0.00     0.122 C 
BRANCH  11  12
HETATM   12  C5  UNL     1     -11.784  39.939  18.351  1.00  0.00     0.047 C 
BRANCH  12  13
HETATM   13  C4  UNL     1     -10.989  38.662  18.116  1.00  0.00     0.237 C 
BRANCH  13  14
HETATM   14  N1  UNL     1     -11.850  37.516  18.360  1.00  0.00    -0.079 N 
HETATM   15  C1  UNL     1     -12.508  37.199  17.101  1.00  0.00     0.271 C 
HETATM   16  C2  UNL     1     -11.140  36.356  18.810  1.00  0.00     0.271 C 
HETATM   17  C3  UNL     1     -12.890  37.893  19.302  1.00  0.00     0.271 C 
ENDBRANCH  13  14
ENDBRANCH  12  13
ENDBRANCH  11  12
ENDBRANCH   9  11
ENDBRANCH   1   9
BRANCH   1  18
HETATM   18  C8  UNL     1      -9.297  42.797  18.397  1.00  0.00     0.093 C 
BRANCH  18  19
HETATM   19  C9  UNL     1      -8.927  42.607  19.855  1.00  0.00     0.073 C 
HETATM   20  C10 UNL     1      -8.864  41.277  20.282  1.00  0.00    -0.101 C 
HETATM   21  C11 UNL     1      -8.790  40.211  20.622  1.00  0.00    -0.106 C 
HETATM   22  C12 UNL     1      -8.667  38.879  21.041  1.00  0.00     0.094 C 
HETATM   23  C13 UNL     1      -9.338  38.590  22.389  1.00  0.00     0.012 C 
HETATM   24  C14 UNL     1      -9.169  39.760  23.334  1.00  0.00     0.001 C 
HETATM   25  C15 UNL     1      -7.758  39.966  23.781  1.00  0.00     0.000 C 
HETATM   26  C16 UNL     1      -7.730  41.171  24.691  1.00  0.00     0.009 C 
HETATM   27  C17 UNL     1      -7.880  42.476  23.955  1.00  0.00     0.103 C 
HETATM   28  C18 UNL     1      -9.259  43.040  24.123  1.00  0.00     0.217 C 
HETATM   29  O1  UNL     1      -9.772  42.883  25.269  1.00  0.00    -0.274 OA
HETATM   30  N3  UNL     1      -9.960  43.700  23.104  1.00  0.00    -0.361 N 
HETATM   31  C19 UNL     1      -9.411  44.098  21.827  1.00  0.00     0.123 C 
ATOM     32  H3  UNL     1     -10.941  43.918  23.278  1.00  0.00     0.162 HD
HETATM   33  C20 UNL     1     -10.014  43.326  20.667  1.00  0.00     0.037 C 
ENDBRANCH  18  19
ENDBRANCH   1  18
TORSDOF 7
ENDMDL
MODEL 4
REMARK VINA RESULT: -5.992311886      2.845      4.075
REMARK  7 active torsions:
REMARK  status: ('A' for Active; 'I' for Inactive)
REMARK    1  A    between atoms: N1_2  and  C4_5 
REMARK    2  A    between atoms: C4_5  and  C5_6 
REMARK    3  A    between atoms: C5_6  and  C6_7 
REMARK    4  A    between atoms: C6_7  and  N2_8 
REMARK    5  A    between atoms: N2_8  and  C7_10 
REMARK    6  A    between atoms: C7_10  and  C8_11 
REMARK    7  A    between atoms: C8_11  and  C9_12 
REMARK       I    between atoms: N4_27  and  C21_29 
ROOT
HETATM    1  C7  UNL     1      -8.183  39.192  18.426  1.00  0.00     0.080 C 
HETATM    2  N4  UNL     1      -7.773  38.774  17.285  1.00  0.00    -0.321 N 
ATOM      3  H4  UNL     1      -7.963  39.322  16.446  1.00  0.00     0.169 HD
HETATM    4  C21 UNL     1      -7.061  37.565  17.184  1.00  0.00     0.187 C 
HETATM    5  N5  UNL     1      -7.599  36.441  17.523  1.00  0.00    -0.373 N 
ATOM      6  H51 UNL     1      -7.082  35.565  17.450  1.00  0.00     0.158 HD
ATOM      7  H52 UNL     1      -8.556  36.403  17.874  1.00  0.00     0.158 HD
HETATM    8  N6  UNL     1      -5.733  37.618  16.698  1.00  0.00    -0.064 NA
ENDROOT
BRANCH   1   9
HETATM    9  N2  UNL     1      -7.908  38.417  19.576  1.00  0.00    -0.380 N 
ATOM     10  H2  UNL     1      -7.227  37.664  19.471  1.00  0.00     0.160 HD
BRANCH   9  11
HETATM   11  C6  UNL     1      -8.490  38.586  20.870  1.00  0.00     0.122 C 
BRANCH  11  12
HETATM   12  C5  UNL     1      -7.629  39.378  21.824  1.00  0.00     0.047 C 
BRANCH  12  13
HETATM   13  C4  UNL     1      -8.413  40.613  22.246  1.00  0.00     0.237 C 
BRANCH  13  14
HETATM   14  N1  UNL     1      -8.498  40.647  23.697  1.00  0.00    -0.079 N 
HETATM   15  C1  UNL     1      -9.810  40.135  24.062  1.00  0.00     0.271 C 
HETATM   16  C2  UNL     1      -7.499  39.848  24.345  1.00  0.00     0.271 C 
HETATM   17  C3  UNL     1      -8.438  42.027  24.147  1.00  0.00     0.271 C 
ENDBRANCH  13  14
ENDBRANCH  12  13
ENDBRANCH  11  12
ENDBRANCH   9  11
ENDBRANCH   1   9
BRANCH   1  18
HETATM   18  C8  UNL     1      -8.925  40.452  18.565  1.00  0.00     0.093 C 
BRANCH  18  19
HETATM   19  C9  UNL     1     -10.420  40.227  18.682  1.00  0.00     0.073 C 
HETATM   20  C10 UNL     1     -11.136  40.370  17.490  1.00  0.00    -0.101 C 
HETATM   21  C11 UNL     1     -11.710  40.461  16.531  1.00  0.00    -0.106 C 
HETATM   22  C12 UNL     1     -12.425  40.546  15.329  1.00  0.00     0.094 C 
HETATM   23  C13 UNL     1     -13.724  41.353  15.436  1.00  0.00     0.012 C 
HETATM   24  C14 UNL     1     -14.398  41.111  16.769  1.00  0.00     0.001 C 
HETATM   25  C15 UNL     1     -14.936  39.724  16.921  1.00  0.00     0.000 C 
HETATM   26  C16 UNL     1     -15.553  39.614  18.295  1.00  0.00     0.009 C 
HETATM   27  C17 UNL     1     -14.535  39.535  19.401  1.00  0.00     0.103 C 
HETATM   28  C18 UNL     1     -14.424  40.839  20.132  1.00  0.00     0.217 C 
HETATM   29  O1  UNL     1     -15.515  41.457  20.304  1.00  0.00    -0.274 OA
HETATM   30  N3  UNL     1     -13.215  41.365  20.608  1.00  0.00    -0.361 N 
HETATM   31  C19 UNL     1     -11.948  40.669  20.635  1.00  0.00     0.123 C 
ATOM     32  H3  UNL     1     -13.230  42.320  20.964  1.00  0.00     0.162 HD
HETATM   33  C20 UNL     1     -10.931  41.274  19.683  1.00  0.00     0.037 C 
ENDBRANCH  18  19
ENDBRANCH   1  18
TORSDOF 7
ENDMDL
MODEL 5
REMARK VINA RESULT: -5.951463423      3.274      6.833
REMARK  7 active torsions:
REMARK  status: ('A' for Active; 'I' for Inactive)
REMARK    1  A    between atoms: N1_2  and  C4_5 
REMARK    2  A    between atoms: C4_5  and  C5_6 
REMARK    3  A    between atoms: C5_6  and  C6_7 
REMARK    4  A    between atoms: C6_7  and  N2_8 
REMARK    5  A    between atoms: N2_8  and  C7_10 
REMARK    6  A    between atoms: C7_10  and  C8_11 
REMARK    7  A    between atoms: C8_11  and  C9_12 
REMARK       I    between atoms: N4_27  and  C21_29 
ROOT
HETATM    1  C7  UNL     1      -8.768  38.269  19.112  1.00  0.00     0.080 C 
HETATM    2  N4  UNL     1      -7.537  38.233  18.756  1.00  0.00    -0.321 N 
ATOM      3  H4  UNL     1      -6.804  38.240  19.465  1.00  0.00     0.169 HD
HETATM    4  C21 UNL     1      -7.192  38.183  17.393  1.00  0.00     0.187 C 
HETATM    5  N5  UNL     1      -7.509  39.140  16.587  1.00  0.00    -0.373 N 
ATOM      6  H51 UNL     1      -7.259  39.103  15.599  1.00  0.00     0.158 HD
ATOM      7  H52 UNL     1      -8.019  39.958  16.920  1.00  0.00     0.158 HD
HETATM    8  N6  UNL     1      -6.484  37.048  16.933  1.00  0.00    -0.064 NA
ENDROOT
BRANCH   1   9
HETATM    9  N2  UNL     1      -9.769  38.258  18.114  1.00  0.00    -0.380 N 
ATOM     10  H2  UNL     1      -9.544  38.720  17.232  1.00  0.00     0.160 HD
BRANCH   9  11
HETATM   11  C6  UNL     1     -11.063  37.663  18.219  1.00  0.00     0.122 C 
BRANCH  11  12
HETATM   12  C5  UNL     1     -12.192  38.665  18.240  1.00  0.00     0.047 C 
BRANCH  12  13
HETATM   13  C4  UNL     1     -11.690  39.949  17.595  1.00  0.00     0.237 C 
BRANCH  13  14
HETATM   14  N1  UNL     1     -12.727  40.480  16.726  1.00  0.00    -0.079 N 
HETATM   15  C1  UNL     1     -12.239  40.375  15.360  1.00  0.00     0.271 C 
HETATM   16  C2  UNL     1     -13.969  39.771  16.824  1.00  0.00     0.271 C 
HETATM   17  C3  UNL     1     -12.908  41.894  17.007  1.00  0.00     0.271 C 
ENDBRANCH  13  14
ENDBRANCH  12  13
ENDBRANCH  11  12
ENDBRANCH   9  11
ENDBRANCH   1   9
BRANCH   1  18
HETATM   18  C8  UNL     1      -9.161  38.317  20.527  1.00  0.00     0.093 C 
BRANCH  18  19
HETATM   19  C9  UNL     1      -9.053  39.716  21.104  1.00  0.00     0.073 C 
HETATM   20  C10 UNL     1      -8.474  39.789  22.375  1.00  0.00    -0.101 C 
HETATM   21  C11 UNL     1      -7.989  39.853  23.384  1.00  0.00    -0.106 C 
HETATM   22  C12 UNL     1      -7.356  39.939  24.632  1.00  0.00     0.094 C 
HETATM   23  C13 UNL     1      -8.078  40.850  25.631  1.00  0.00     0.012 C 
HETATM   24  C14 UNL     1      -8.664  42.057  24.930  1.00  0.00     0.001 C 
HETATM   25  C15 UNL     1      -7.631  43.004  24.409  1.00  0.00     0.000 C 
HETATM   26  C16 UNL     1      -8.347  44.138  23.717  1.00  0.00     0.009 C 
HETATM   27  C17 UNL     1      -8.926  43.750  22.382  1.00  0.00     0.103 C 
HETATM   28  C18 UNL     1     -10.411  43.564  22.468  1.00  0.00     0.217 C 
HETATM   29  O1  UNL     1     -11.017  44.382  23.220  1.00  0.00    -0.274 OA
HETATM   30  N3  UNL     1     -11.112  42.566  21.776  1.00  0.00    -0.361 N 
HETATM   31  C19 UNL     1     -10.559  41.704  20.756  1.00  0.00     0.123 C 
ATOM     32  H3  UNL     1     -12.095  42.437  22.013  1.00  0.00     0.162 HD
HETATM   33  C20 UNL     1     -10.489  40.252  21.195  1.00  0.00     0.037 C 
ENDBRANCH  18  19
ENDBRANCH   1  18
TORSDOF 7
ENDMDL
