MODEL 1
REMARK VINA RESULT: -6.625863302      0.000      0.000
REMARK  4 active torsions:
REMARK  status: ('A' for Active; 'I' for Inactive)
REMARK    1  A    between atoms: N1_1  and  C1_4 
REMARK    2  A    between atoms: C4_13  and  N4_14 
REMARK    3  A    between atoms: N4_14  and  N5_16 
REMARK    4  A    between atoms: C5_18  and  C6_19 
ROOT
HETATM    1  C1  UNL     1     -15.172 -10.006  -6.350  1.00  0.00     0.681 C 
HETATM    2  N2  UNL     1     -14.141 -10.883  -6.392  1.00  0.00    -0.141 N 
ATOM      3  H2  UNL     1     -14.397 -11.870  -6.416  1.00  0.00     0.189 HD
HETATM    4  C2  UNL     1     -12.808 -10.616  -6.406  1.00  0.00     0.341 C 
HETATM    5  O1  UNL     1     -12.049 -11.618  -6.395  1.00  0.00    -0.246 OA
HETATM    6  N3  UNL     1     -12.189  -9.422  -6.431  1.00  0.00    -0.272 N 
ATOM      7  H3  UNL     1     -11.176  -9.441  -6.539  1.00  0.00     0.174 HD
HETATM    8  C3  UNL     1     -12.751  -8.212  -6.329  1.00  0.00     0.295 C 
HETATM    9  O2  UNL     1     -11.973  -7.242  -6.519  1.00  0.00    -0.264 OA
HETATM   10  C4  UNL     1     -14.061  -7.866  -6.046  1.00  0.00     0.204 C 
HETATM   11  N9  UNL     1     -15.121  -8.672  -6.180  1.00  0.00    -0.170 N 
ATOM     12  H9  UNL     1     -16.026  -8.204  -6.149  1.00  0.00     0.186 HD
ENDROOT
BRANCH  10  13
HETATM   13  N4  UNL     1     -14.274  -6.654  -5.614  1.00  0.00    -0.281 N 
ATOM     14  H4  UNL     1     -13.689  -5.876  -5.921  1.00  0.00     0.188 HD
BRANCH  13  15
HETATM   15  N5  UNL     1     -15.325  -6.454  -4.717  1.00  0.00    -0.308 N 
HETATM   16  C5  UNL     1     -16.052  -5.406  -4.751  1.00  0.00     0.140 C 
ATOM     17  H5  UNL     1     -15.519  -7.167  -4.015  1.00  0.00     0.186 HD
BRANCH  16  18
HETATM   18  C6  UNL     1     -17.145  -5.234  -3.793  1.00  0.00     0.091 A 
HETATM   19  N6  UNL     1     -17.490  -4.086  -3.185  1.00  0.00    -0.348 N 
HETATM   20  C7  UNL     1     -18.539  -4.365  -2.389  1.00  0.00     0.182 A 
ATOM     21  H6  UNL     1     -17.043  -3.177  -3.304  1.00  0.00     0.167 HD
HETATM   22  N7  UNL     1     -18.854  -5.665  -2.490  1.00  0.00    -0.339 N 
HETATM   23  C8  UNL     1     -17.993  -6.232  -3.365  1.00  0.00     0.145 A 
ATOM     24  H7  UNL     1     -19.608  -6.140  -1.995  1.00  0.00     0.167 HD
HETATM   25  N8  UNL     1     -17.951  -7.600  -3.782  1.00  0.00    -0.080 NA
ENDBRANCH  16  18
ENDBRANCH  13  15
ENDBRANCH  10  13
BRANCH   1  26
HETATM   26  N1  UNL     1     -16.353 -10.500  -6.489  1.00  0.00    -0.234 N 
ATOM     27  H12 UNL     1     -16.486 -11.093  -7.308  1.00  0.00     0.174 HD
ATOM     28  H11 UNL     1     -17.038 -10.254  -5.773  1.00  0.00     0.174 HD
ENDBRANCH   1  26
TORSDOF 4
ENDMDL
MODEL 2
REMARK VINA RESULT: -6.479520934      2.914      4.078
REMARK  4 active torsions:
REMARK  status: ('A' for Active; 'I' for Inactive)
REMARK    1  A    between atoms: N1_1  and  C1_4 
REMARK    2  A    between atoms: C4_13  and  N4_14 
REMARK    3  A    between atoms: N4_14  and  N5_16 
REMARK    4  A    between atoms: C5_18  and  C6_19 
ROOT
HETATM    1  C1  UNL     1     -14.609 -10.688  -6.912  1.00  0.00     0.681 C 
HETATM    2  N2  UNL     1     -13.460 -11.337  -6.612  1.00  0.00    -0.141 N 
ATOM      3  H2  UNL     1     -13.503 -12.356  -6.644  1.00  0.00     0.189 HD
HETATM    4  C2  UNL     1     -12.255 -10.806  -6.274  1.00  0.00     0.341 C 
HETATM    5  O1  UNL     1     -11.351 -11.633  -5.990  1.00  0.00    -0.246 OA
HETATM    6  N3  UNL     1     -11.896  -9.511  -6.202  1.00  0.00    -0.272 N 
ATOM      7  H3  UNL     1     -10.910  -9.325  -6.025  1.00  0.00     0.174 HD
HETATM    8  C3  UNL     1     -12.687  -8.440  -6.336  1.00  0.00     0.295 C 
HETATM    9  O2  UNL     1     -12.089  -7.333  -6.364  1.00  0.00    -0.264 OA
HETATM   10  C4  UNL     1     -14.064  -8.365  -6.448  1.00  0.00     0.204 C 
HETATM   11  N9  UNL     1     -14.866  -9.369  -6.819  1.00  0.00    -0.170 N 
ATOM     12  H9  UNL     1     -15.816  -9.094  -7.069  1.00  0.00     0.186 HD
ENDROOT
BRANCH  10  13
HETATM   13  N4  UNL     1     -14.620  -7.218  -6.168  1.00  0.00    -0.281 N 
ATOM     14  H4  UNL     1     -14.955  -7.013  -5.227  1.00  0.00     0.188 HD
BRANCH  13  15
HETATM   15  N5  UNL     1     -14.741  -6.281  -7.196  1.00  0.00    -0.308 N 
HETATM   16  C5  UNL     1     -15.627  -5.364  -7.174  1.00  0.00     0.140 C 
ATOM     17  H5  UNL     1     -14.102  -6.332  -7.989  1.00  0.00     0.186 HD
BRANCH  16  18
HETATM   18  C6  UNL     1     -15.721  -4.400  -8.272  1.00  0.00     0.091 A 
HETATM   19  N6  UNL     1     -16.849  -3.834  -8.732  1.00  0.00    -0.348 N 
HETATM   20  C7  UNL     1     -16.494  -3.016  -9.740  1.00  0.00     0.182 A 
ATOM     21  H6  UNL     1     -17.795  -3.993  -8.384  1.00  0.00     0.167 HD
HETATM   22  N7  UNL     1     -15.165  -3.063  -9.916  1.00  0.00    -0.339 N 
HETATM   23  C8  UNL     1     -14.657  -3.925  -9.007  1.00  0.00     0.145 A 
ATOM     24  H7  UNL     1     -14.633  -2.540 -10.612  1.00  0.00     0.167 HD
HETATM   25  N8  UNL     1     -13.286  -4.289  -8.823  1.00  0.00    -0.080 NA
ENDBRANCH  16  18
ENDBRANCH  13  15
ENDBRANCH  10  13
BRANCH   1  26
HETATM   26  N1  UNL     1     -15.584 -11.411  -7.340  1.00  0.00    -0.234 N 
ATOM     27  H12 UNL     1     -15.796 -11.316  -8.334  1.00  0.00     0.174 HD
ATOM     28  H11 UNL     1     -16.048 -12.005  -6.652  1.00  0.00     0.174 HD
ENDBRANCH   1  26
TORSDOF 4
ENDMDL
MODEL 3
REMARK VINA RESULT: -6.463630594      1.799      2.044
REMARK  4 active torsions:
REMARK  status: ('A' for Active; 'I' for Inactive)
REMARK    1  A    between atoms: N1_1  and  C1_4 
REMARK    2  A    between atoms: C4_13  and  N4_14 
REMARK    3  A    between atoms: N4_14  and  N5_16 
REMARK    4  A    between atoms: C5_18  and  C6_19 
ROOT
HETATM    1  C1  UNL     1     -15.212 -10.351  -6.437  1.00  0.00     0.681 C 
HETATM    2  N2  UNL     1     -14.097 -11.117  -6.495  1.00  0.00    -0.141 N 
ATOM      3  H2  UNL     1     -14.249 -12.111  -6.669  1.00  0.00     0.189 HD
HETATM    4  C2  UNL     1     -12.801 -10.732  -6.351  1.00  0.00     0.341 C 
HETATM    5  O1  UNL     1     -11.947 -11.654  -6.397  1.00  0.00    -0.246 OA
HETATM    6  N3  UNL     1     -12.306  -9.495  -6.165  1.00  0.00    -0.272 N 
ATOM      7  H3  UNL     1     -11.291  -9.408  -6.180  1.00  0.00     0.174 HD
HETATM    8  C3  UNL     1     -12.995  -8.366  -5.962  1.00  0.00     0.295 C 
HETATM    9  O2  UNL     1     -12.307  -7.313  -5.953  1.00  0.00    -0.264 OA
HETATM   10  C4  UNL     1     -14.352  -8.181  -5.760  1.00  0.00     0.204 C 
HETATM   11  N9  UNL     1     -15.310  -9.053  -6.094  1.00  0.00    -0.170 N 
ATOM     12  H9  UNL     1     -16.258  -8.677  -6.087  1.00  0.00     0.186 HD
ENDROOT
BRANCH  10  13
HETATM   13  N4  UNL     1     -14.720  -7.063  -5.198  1.00  0.00    -0.281 N 
ATOM     14  H4  UNL     1     -14.139  -6.615  -4.489  1.00  0.00     0.188 HD
BRANCH  13  15
HETATM   15  N5  UNL     1     -15.934  -6.499  -5.595  1.00  0.00    -0.308 N 
HETATM   16  C5  UNL     1     -16.466  -5.526  -4.965  1.00  0.00     0.140 C 
ATOM     17  H5  UNL     1     -16.409  -6.877  -6.415  1.00  0.00     0.186 HD
BRANCH  16  18
HETATM   18  C6  UNL     1     -17.740  -4.962  -5.415  1.00  0.00     0.091 A 
HETATM   19  N6  UNL     1     -18.769  -4.607  -4.627  1.00  0.00    -0.348 N 
HETATM   20  C7  UNL     1     -19.737  -4.139  -5.436  1.00  0.00     0.182 A 
ATOM     21  H6  UNL     1     -18.808  -4.677  -3.611  1.00  0.00     0.167 HD
HETATM   22  N7  UNL     1     -19.331  -4.197  -6.713  1.00  0.00    -0.339 N 
HETATM   23  C8  UNL     1     -18.080  -4.711  -6.726  1.00  0.00     0.145 A 
ATOM     24  H7  UNL     1     -19.869  -3.905  -7.528  1.00  0.00     0.167 HD
HETATM   25  N8  UNL     1     -17.251  -4.954  -7.866  1.00  0.00    -0.080 NA
ENDBRANCH  16  18
ENDBRANCH  13  15
ENDBRANCH  10  13
BRANCH   1  26
HETATM   26  N1  UNL     1     -16.322 -10.925  -6.747  1.00  0.00    -0.234 N 
ATOM     27  H12 UNL     1     -16.546 -11.763  -6.210  1.00  0.00     0.174 HD
ATOM     28  H11 UNL     1     -16.867 -10.492  -7.493  1.00  0.00     0.174 HD
ENDBRANCH   1  26
TORSDOF 4
ENDMDL
MODEL 4
REMARK VINA RESULT: -6.425022100      2.847      3.652
REMARK  4 active torsions:
REMARK  status: ('A' for Active; 'I' for Inactive)
REMARK    1  A    between atoms: N1_1  and  C1_4 
REMARK    2  A    between atoms: C4_13  and  N4_14 
REMARK    3  A    between atoms: N4_14  and  N5_16 
REMARK    4  A    between atoms: C5_18  and  C6_19 
ROOT
HETATM    1  C1  UNL     1     -14.684 -10.707  -6.888  1.00  0.00     0.681 C 
HETATM    2  N2  UNL     1     -13.517 -11.351  -6.656  1.00  0.00    -0.141 N 
ATOM      3  H2  UNL     1     -13.529 -12.361  -6.803  1.00  0.00     0.189 HD
HETATM    4  C2  UNL     1     -12.329 -10.826  -6.252  1.00  0.00     0.341 C 
HETATM    5  O1  UNL     1     -11.402 -11.652  -6.058  1.00  0.00    -0.246 OA
HETATM    6  N3  UNL     1     -12.011  -9.538  -6.031  1.00  0.00    -0.272 N 
ATOM      7  H3  UNL     1     -11.031  -9.343  -5.828  1.00  0.00     0.174 HD
HETATM    8  C3  UNL     1     -12.833  -8.482  -6.048  1.00  0.00     0.295 C 
HETATM    9  O2  UNL     1     -12.269  -7.362  -5.947  1.00  0.00    -0.264 OA
HETATM   10  C4  UNL     1     -14.212  -8.436  -6.161  1.00  0.00     0.204 C 
HETATM   11  N9  UNL     1     -14.982  -9.415  -6.648  1.00  0.00    -0.170 N 
ATOM     12  H9  UNL     1     -15.938  -9.143  -6.871  1.00  0.00     0.186 HD
ENDROOT
BRANCH  10  13
HETATM   13  N4  UNL     1     -14.804  -7.346  -5.757  1.00  0.00    -0.281 N 
ATOM     14  H4  UNL     1     -14.868  -7.120  -4.764  1.00  0.00     0.188 HD
BRANCH  13  15
HETATM   15  N5  UNL     1     -15.345  -6.498  -6.724  1.00  0.00    -0.308 N 
HETATM   16  C5  UNL     1     -14.754  -5.430  -7.095  1.00  0.00     0.140 C 
ATOM     17  H5  UNL     1     -16.241  -6.739  -7.148  1.00  0.00     0.186 HD
BRANCH  16  18
HETATM   18  C6  UNL     1     -15.355  -4.568  -8.114  1.00  0.00     0.091 A 
HETATM   19  N6  UNL     1     -14.696  -3.912  -9.083  1.00  0.00    -0.348 N 
HETATM   20  C7  UNL     1     -15.617  -3.239  -9.797  1.00  0.00     0.182 A 
ATOM     21  H6  UNL     1     -13.689  -3.921  -9.248  1.00  0.00     0.167 HD
HETATM   22  N7  UNL     1     -16.838  -3.464  -9.290  1.00  0.00    -0.339 N 
HETATM   23  C8  UNL     1     -16.700  -4.295  -8.232  1.00  0.00     0.145 A 
ATOM     24  H7  UNL     1     -17.714  -3.078  -9.640  1.00  0.00     0.167 HD
HETATM   25  N8  UNL     1     -17.734  -4.806  -7.386  1.00  0.00    -0.080 NA
ENDBRANCH  16  18
ENDBRANCH  13  15
ENDBRANCH  10  13
BRANCH   1  26
HETATM   26  N1  UNL     1     -15.636 -11.406  -7.402  1.00  0.00    -0.234 N 
ATOM     27  H12 UNL     1     -15.810 -12.305  -6.953  1.00  0.00     0.174 HD
ATOM     28  H11 UNL     1     -16.120 -10.998  -8.202  1.00  0.00     0.174 HD
ENDBRANCH   1  26
TORSDOF 4
ENDMDL
MODEL 5
REMARK VINA RESULT: -6.418844374      0.675      1.416
REMARK  4 active torsions:
REMARK  status: ('A' for Active; 'I' for Inactive)
REMARK    1  A    between atoms: N1_1  and  C1_4 
REMARK    2  A    between atoms: C4_13  and  N4_14 
REMARK    3  A    between atoms: N4_14  and  N5_16 
REMARK    4  A    between atoms: C5_18  and  C6_19 
ROOT
HETATM    1  C1  UNL     1     -15.296 -10.090  -6.344  1.00  0.00     0.681 C 
HETATM    2  N2  UNL     1     -14.222 -10.911  -6.421  1.00  0.00    -0.141 N 
ATOM      3  H2  UNL     1     -14.429 -11.905  -6.525  1.00  0.00     0.189 HD
HETATM    4  C2  UNL     1     -12.904 -10.581  -6.380  1.00  0.00     0.341 C 
HETATM    5  O1  UNL     1     -12.097 -11.544  -6.421  1.00  0.00    -0.246 OA
HETATM    6  N3  UNL     1     -12.344  -9.361  -6.301  1.00  0.00    -0.272 N 
ATOM      7  H3  UNL     1     -11.329  -9.324  -6.383  1.00  0.00     0.174 HD
HETATM    8  C3  UNL     1     -12.968  -8.190  -6.126  1.00  0.00     0.295 C 
HETATM    9  O2  UNL     1     -12.234  -7.172  -6.224  1.00  0.00    -0.264 OA
HETATM   10  C4  UNL     1     -14.299  -7.928  -5.854  1.00  0.00     0.204 C 
HETATM   11  N9  UNL     1     -15.314  -8.771  -6.076  1.00  0.00    -0.170 N 
ATOM     12  H9  UNL     1     -16.242  -8.350  -6.035  1.00  0.00     0.186 HD
ENDROOT
BRANCH  10  13
HETATM   13  N4  UNL     1     -14.581  -6.763  -5.341  1.00  0.00    -0.281 N 
ATOM     14  H4  UNL     1     -13.995  -5.949  -5.530  1.00  0.00     0.188 HD
BRANCH  13  15
HETATM   15  N5  UNL     1     -15.710  -6.663  -4.525  1.00  0.00    -0.308 N 
HETATM   16  C5  UNL     1     -16.268  -5.543  -4.276  1.00  0.00     0.140 C 
ATOM     17  H5  UNL     1     -16.100  -7.512  -4.114  1.00  0.00     0.186 HD
BRANCH  16  18
HETATM   18  C6  UNL     1     -17.450  -5.481  -3.415  1.00  0.00     0.091 A 
HETATM   19  N6  UNL     1     -18.338  -6.471  -3.220  1.00  0.00    -0.348 N 
HETATM   20  C7  UNL     1     -19.264  -6.002  -2.364  1.00  0.00     0.182 A 
ATOM     21  H6  UNL     1     -18.315  -7.400  -3.641  1.00  0.00     0.167 HD
HETATM   22  N7  UNL     1     -18.970  -4.739  -2.022  1.00  0.00    -0.339 N 
HETATM   23  C8  UNL     1     -17.835  -4.389  -2.669  1.00  0.00     0.145 A 
ATOM     24  H7  UNL     1     -19.506  -4.149  -1.386  1.00  0.00     0.167 HD
HETATM   25  N8  UNL     1     -17.149  -3.135  -2.607  1.00  0.00    -0.080 NA
ENDBRANCH  16  18
ENDBRANCH  13  15
ENDBRANCH  10  13
BRANCH   1  26
HETATM   26  N1  UNL     1     -16.448 -10.628  -6.550  1.00  0.00    -0.234 N 
ATOM     27  H12 UNL     1     -17.028 -10.751  -5.720  1.00  0.00     0.174 HD
ATOM     28  H11 UNL     1     -16.669 -10.877  -7.515  1.00  0.00     0.174 HD
ENDBRANCH   1  26
TORSDOF 4
ENDMDL
