MODEL 1
REMARK VINA RESULT: -7.280490825      0.000      0.000
REMARK  4 active torsions:
REMARK  status: ('A' for Active; 'I' for Inactive)
REMARK    1  A    between atoms: C2_2  and  C3_3 
REMARK    2  A    between atoms: C3_3  and  N1_4 
REMARK    3  A    between atoms: N1_4  and  C4_7 
REMARK    4  A    between atoms: C4_7  and  C5_8 
ROOT
HETATM    1  C4  UNL     1      17.857  92.966  35.182  1.00  0.00     0.266 C 
ENDROOT
BRANCH   1   2
HETATM    2  N1  UNL     1      17.231  91.700  35.005  1.00  0.00    -0.069 N 
ATOM      3  H12 UNL     1      16.218  91.803  34.946  1.00  0.00     0.277 HD
ATOM      4  H11 UNL     1      17.295  91.144  35.857  1.00  0.00     0.277 HD
BRANCH   2   5
HETATM    5  C3  UNL     1      17.735  90.960  33.874  1.00  0.00     0.259 C 
BRANCH   5   6
HETATM    6  C2  UNL     1      16.745  90.867  32.777  1.00  0.00    -0.010 C 
HETATM    7  C1  UNL     1      16.980  90.035  31.774  1.00  0.00     0.008 C 
ENDBRANCH   5   6
ENDBRANCH   2   5
ENDBRANCH   1   2
BRANCH   1   8
HETATM    8  C5  UNL     1      17.401  94.043  34.290  1.00  0.00    -0.058 C 
HETATM    9  C6  UNL     1      16.161  94.456  34.030  1.00  0.00    -0.017 C 
HETATM   10  C7  UNL     1      16.267  95.537  33.085  1.00  0.00     0.013 A 
HETATM   11  C8  UNL     1      16.543  96.906  33.067  1.00  0.00     0.014 A 
HETATM   12  C9  UNL     1      17.515  96.194  33.762  1.00  0.00    -0.002 A 
HETATM   13  C10 UNL     1      18.338  94.960  33.506  1.00  0.00     0.041 C 
ENDBRANCH   1   8
TORSDOF 4
ENDMDL
MODEL 2
REMARK VINA RESULT: -6.659639559      1.366      2.521
REMARK  4 active torsions:
REMARK  status: ('A' for Active; 'I' for Inactive)
REMARK    1  A    between atoms: C2_2  and  C3_3 
REMARK    2  A    between atoms: C3_3  and  N1_4 
REMARK    3  A    between atoms: N1_4  and  C4_7 
REMARK    4  A    between atoms: C4_7  and  C5_8 
ROOT
HETATM    1  C4  UNL     1      17.324  92.346  33.867  1.00  0.00     0.266 C 
ENDROOT
BRANCH   1   2
HETATM    2  N1  UNL     1      17.422  91.707  35.135  1.00  0.00    -0.069 N 
ATOM      3  H12 UNL     1      17.241  90.707  35.049  1.00  0.00     0.277 HD
ATOM      4  H11 UNL     1      16.640  91.970  35.733  1.00  0.00     0.277 HD
BRANCH   2   5
HETATM    5  C3  UNL     1      18.679  91.943  35.803  1.00  0.00     0.259 C 
BRANCH   5   6
HETATM    6  C2  UNL     1      19.840  91.583  34.958  1.00  0.00    -0.010 C 
HETATM    7  C1  UNL     1      20.923  92.346  35.002  1.00  0.00     0.008 C 
ENDBRANCH   5   6
ENDBRANCH   2   5
ENDBRANCH   1   2
BRANCH   1   8
HETATM    8  C5  UNL     1      17.265  93.816  33.886  1.00  0.00    -0.058 C 
HETATM    9  C6  UNL     1      18.231  94.703  33.645  1.00  0.00    -0.017 C 
HETATM   10  C7  UNL     1      17.649  96.009  33.802  1.00  0.00     0.013 A 
HETATM   11  C8  UNL     1      16.870  96.917  33.080  1.00  0.00     0.014 A 
HETATM   12  C9  UNL     1      16.299  95.649  33.097  1.00  0.00    -0.002 A 
HETATM   13  C10 UNL     1      15.993  94.619  34.150  1.00  0.00     0.041 C 
ENDBRANCH   1   8
TORSDOF 4
ENDMDL
MODEL 3
REMARK VINA RESULT: -6.370732214      1.532      2.275
REMARK  4 active torsions:
REMARK  status: ('A' for Active; 'I' for Inactive)
REMARK    1  A    between atoms: C2_2  and  C3_3 
REMARK    2  A    between atoms: C3_3  and  N1_4 
REMARK    3  A    between atoms: N1_4  and  C4_7 
REMARK    4  A    between atoms: C4_7  and  C5_8 
ROOT
HETATM    1  C4  UNL     1      17.342  92.607  34.341  1.00  0.00     0.266 C 
ENDROOT
BRANCH   1   2
HETATM    2  N1  UNL     1      17.562  92.522  35.744  1.00  0.00    -0.069 N 
ATOM      3  H12 UNL     1      16.986  91.788  36.156  1.00  0.00     0.277 HD
ATOM      4  H11 UNL     1      17.169  93.333  36.221  1.00  0.00     0.277 HD
BRANCH   2   5
HETATM    5  C3  UNL     1      18.948  92.343  36.100  1.00  0.00     0.259 C 
BRANCH   5   6
HETATM    6  C2  UNL     1      19.747  91.785  34.985  1.00  0.00    -0.010 C 
HETATM    7  C1  UNL     1      21.012  92.156  34.858  1.00  0.00     0.008 C 
ENDBRANCH   5   6
ENDBRANCH   2   5
ENDBRANCH   1   2
BRANCH   1   8
HETATM    8  C5  UNL     1      17.152  93.961  33.796  1.00  0.00    -0.058 C 
HETATM    9  C6  UNL     1      16.022  94.614  33.531  1.00  0.00    -0.017 C 
HETATM   10  C7  UNL     1      16.394  95.902  33.009  1.00  0.00     0.013 A 
HETATM   11  C8  UNL     1      16.807  97.154  33.469  1.00  0.00     0.014 A 
HETATM   12  C9  UNL     1      17.572  96.127  34.012  1.00  0.00    -0.002 A 
HETATM   13  C10 UNL     1      18.296  94.922  33.476  1.00  0.00     0.041 C 
ENDBRANCH   1   8
TORSDOF 4
ENDMDL
MODEL 4
REMARK VINA RESULT: -6.252431568      1.001      1.788
REMARK  4 active torsions:
REMARK  status: ('A' for Active; 'I' for Inactive)
REMARK    1  A    between atoms: C2_2  and  C3_3 
REMARK    2  A    between atoms: C3_3  and  N1_4 
REMARK    3  A    between atoms: N1_4  and  C4_7 
REMARK    4  A    between atoms: C4_7  and  C5_8 
ROOT
HETATM    1  C4  UNL     1      18.256  91.688  34.081  1.00  0.00     0.266 C 
ENDROOT
BRANCH   1   2
HETATM    2  N1  UNL     1      17.226  90.810  33.640  1.00  0.00    -0.069 N 
ATOM      3  H12 UNL     1      16.355  90.997  34.138  1.00  0.00     0.277 HD
ATOM      4  H11 UNL     1      17.403  89.858  33.958  1.00  0.00     0.277 HD
BRANCH   2   5
HETATM    5  C3  UNL     1      17.014  90.841  32.213  1.00  0.00     0.259 C 
BRANCH   5   6
HETATM    6  C2  UNL     1      16.646  89.513  31.672  1.00  0.00    -0.010 C 
HETATM    7  C1  UNL     1      17.445  88.941  30.784  1.00  0.00     0.008 C 
ENDBRANCH   5   6
ENDBRANCH   2   5
ENDBRANCH   1   2
BRANCH   1   8
HETATM    8  C5  UNL     1      17.927  93.122  34.084  1.00  0.00    -0.058 C 
HETATM    9  C6  UNL     1      18.637  94.152  33.626  1.00  0.00    -0.017 C 
HETATM   10  C7  UNL     1      17.864  95.340  33.877  1.00  0.00     0.013 A 
HETATM   11  C8  UNL     1      16.798  96.049  33.319  1.00  0.00     0.014 A 
HETATM   12  C9  UNL     1      16.492  94.702  33.482  1.00  0.00    -0.002 A 
HETATM   13  C10 UNL     1      16.607  93.696  34.595  1.00  0.00     0.041 C 
ENDBRANCH   1   8
TORSDOF 4
ENDMDL
MODEL 5
REMARK VINA RESULT: -6.152506146      2.887      3.997
REMARK  4 active torsions:
REMARK  status: ('A' for Active; 'I' for Inactive)
REMARK    1  A    between atoms: C2_2  and  C3_3 
REMARK    2  A    between atoms: C3_3  and  N1_4 
REMARK    3  A    between atoms: N1_4  and  C4_7 
REMARK    4  A    between atoms: C4_7  and  C5_8 
ROOT
HETATM    1  C4  UNL     1      19.143  92.089  35.449  1.00  0.00     0.266 C 
ENDROOT
BRANCH   1   2
HETATM    2  N1  UNL     1      20.111  92.682  36.307  1.00  0.00    -0.069 N 
ATOM      3  H12 UNL     1      19.982  92.366  37.269  1.00  0.00     0.277 HD
ATOM      4  H11 UNL     1      19.924  93.676  36.429  1.00  0.00     0.277 HD
BRANCH   2   5
HETATM    5  C3  UNL     1      21.471  92.466  35.878  1.00  0.00     0.259 C 
BRANCH   5   6
HETATM    6  C2  UNL     1      22.457  93.015  36.836  1.00  0.00    -0.010 C 
HETATM    7  C1  UNL     1      23.508  92.278  37.164  1.00  0.00     0.008 C 
ENDBRANCH   5   6
ENDBRANCH   2   5
ENDBRANCH   1   2
BRANCH   1   8
HETATM    8  C5  UNL     1      18.349  93.019  34.631  1.00  0.00    -0.058 C 
HETATM    9  C6  UNL     1      17.035  93.243  34.642  1.00  0.00    -0.017 C 
HETATM   10  C7  UNL     1      16.772  94.245  33.643  1.00  0.00     0.013 A 
HETATM   11  C8  UNL     1      16.834  95.632  33.490  1.00  0.00     0.014 A 
HETATM   12  C9  UNL     1      18.028  95.114  33.979  1.00  0.00    -0.002 A 
HETATM   13  C10 UNL     1      18.946  93.981  33.605  1.00  0.00     0.041 C 
ENDBRANCH   1   8
TORSDOF 4
ENDMDL
