MODEL 1
REMARK VINA RESULT: -9.037562205      0.000      0.000
REMARK  12 active torsions:
REMARK  status: ('A' for Active; 'I' for Inactive)
REMARK    1  A    between atoms: C2_2  and  C4_4 
REMARK    2  A    between atoms: C5_5  and  C6_6 
REMARK    3  A    between atoms: C9_9  and  O1_10 
REMARK    4  A    between atoms: O1_10  and  C10_11 
REMARK    5  A    between atoms: C10_11  and  C11_13 
REMARK    6  A    between atoms: C11_13  and  C12_14 
REMARK    7  A    between atoms: C12_14  and  C13_15 
REMARK    8  A    between atoms: C13_15  and  N1_18 
REMARK    9  A    between atoms: C24_30  and  C25_31 
REMARK   10  A    between atoms: C25_31  and  C27_33 
REMARK   11  A    between atoms: C27_33  and  C28_34 
REMARK   12  A    between atoms: C28_34  and  C29_35 
ROOT
HETATM    1  C6  UNL     1      -0.259  62.496  72.762  1.00  0.00    -0.010 C 
HETATM    2  C7  UNL     1      -0.396  63.899  72.306  1.00  0.00     0.017 C 
HETATM    3  C8  UNL     1      -0.740  64.899  73.382  1.00  0.00     0.034 C 
HETATM    4  C9  UNL     1      -1.448  64.355  74.564  1.00  0.00     0.140 C 
HETATM    5  C16 UNL     1      -0.533  63.312  75.174  1.00  0.00    -0.016 C 
HETATM    6  C17 UNL     1       0.365  64.106  76.142  1.00  0.00     0.018 C 
HETATM    7  C18 UNL     1      -1.401  62.467  76.081  1.00  0.00     0.018 C 
HETATM    8  C19 UNL     1       0.273  62.541  74.194  1.00  0.00     0.009 C 
HETATM    9  C20 UNL     1       1.698  62.950  74.201  1.00  0.00     0.011 C 
HETATM   10  C21 UNL     1       2.532  61.763  73.775  1.00  0.00     0.034 C 
HETATM   11  C22 UNL     1       1.753  60.991  72.787  1.00  0.00    -0.084 C 
HETATM   12  C23 UNL     1       2.132  59.724  72.621  1.00  0.00     0.015 C 
HETATM   13  C24 UNL     1       0.600  61.575  72.001  1.00  0.00     0.030 C 
ENDROOT
BRANCH   4  14
HETATM   14  O1  UNL     1      -1.595  65.466  75.469  1.00  0.00    -0.315 OA
BRANCH  14  15
HETATM   15  C10 UNL     1      -2.825  66.034  75.763  1.00  0.00     0.259 C 
HETATM   16  O2  UNL     1      -3.560  66.329  74.787  1.00  0.00    -0.265 OA
BRANCH  15  17
HETATM   17  C11 UNL     1      -3.261  66.287  77.174  1.00  0.00     0.113 C 
BRANCH  17  18
HETATM   18  C12 UNL     1      -2.154  66.862  77.997  1.00  0.00     0.047 C 
BRANCH  18  19
HETATM   19  C13 UNL     1      -2.794  67.620  79.153  1.00  0.00     0.117 C 
HETATM   20  C14 UNL     1      -2.744  66.803  80.422  1.00  0.00     0.045 C 
HETATM   21  C15 UNL     1      -4.237  67.857  78.802  1.00  0.00     0.045 C 
BRANCH  19  22
HETATM   22  N1  UNL     1      -2.169  68.915  79.329  1.00  0.00    -0.071 N 
ATOM     23  H13 UNL     1      -2.443  69.569  78.595  1.00  0.00     0.275 HD
ATOM     24  H12 UNL     1      -2.556  69.414  80.131  1.00  0.00     0.275 HD
ATOM     25  H11 UNL     1      -1.156  68.825  79.394  1.00  0.00     0.275 HD
ENDBRANCH  19  22
ENDBRANCH  18  19
ENDBRANCH  17  18
ENDBRANCH  15  17
ENDBRANCH  14  15
ENDBRANCH   4  14
BRANCH   1  26
HETATM   26  C5  UNL     1      -1.680  61.953  72.801  1.00  0.00    -0.015 C 
HETATM   27  C4  UNL     1      -2.128  61.041  71.965  1.00  0.00     0.003 C 
BRANCH  27  28
HETATM   28  C2  UNL     1      -3.438  60.482  71.934  1.00  0.00    -0.072 C 
HETATM   29  C1  UNL     1      -4.105  60.283  70.820  1.00  0.00     0.018 C 
HETATM   30  C3  UNL     1      -4.077  60.106  73.218  1.00  0.00     0.047 C 
ENDBRANCH  27  28
ENDBRANCH   1  26
BRANCH  13  31
HETATM   31  C25 UNL     1       1.191  61.919  70.679  1.00  0.00    -0.009 C 
HETATM   32  C26 UNL     1       0.370  61.502  69.498  1.00  0.00     0.011 C 
BRANCH  31  33
HETATM   33  C27 UNL     1       1.932  63.199  70.561  1.00  0.00     0.009 C 
BRANCH  33  34
HETATM   34  C28 UNL     1       3.166  63.029  69.711  1.00  0.00     0.028 C 
BRANCH  34  35
HETATM   35  C29 UNL     1       4.239  62.407  70.547  1.00  0.00    -0.025 C 
HETATM   36  C30 UNL     1       4.614  61.152  70.383  1.00  0.00    -0.091 C 
HETATM   37  C31 UNL     1       5.674  60.571  71.222  1.00  0.00     0.042 C 
HETATM   38  C32 UNL     1       3.961  60.325  69.348  1.00  0.00     0.042 C 
ENDBRANCH  34  35
ENDBRANCH  33  34
ENDBRANCH  31  33
ENDBRANCH  13  31
TORSDOF 12
ENDMDL
MODEL 2
REMARK VINA RESULT: -8.931488972      0.785      1.036
REMARK  12 active torsions:
REMARK  status: ('A' for Active; 'I' for Inactive)
REMARK    1  A    between atoms: C2_2  and  C4_4 
REMARK    2  A    between atoms: C5_5  and  C6_6 
REMARK    3  A    between atoms: C9_9  and  O1_10 
REMARK    4  A    between atoms: O1_10  and  C10_11 
REMARK    5  A    between atoms: C10_11  and  C11_13 
REMARK    6  A    between atoms: C11_13  and  C12_14 
REMARK    7  A    between atoms: C12_14  and  C13_15 
REMARK    8  A    between atoms: C13_15  and  N1_18 
REMARK    9  A    between atoms: C24_30  and  C25_31 
REMARK   10  A    between atoms: C25_31  and  C27_33 
REMARK   11  A    between atoms: C27_33  and  C28_34 
REMARK   12  A    between atoms: C28_34  and  C29_35 
ROOT
HETATM    1  C6  UNL     1      -0.253  62.488  72.729  1.00  0.00    -0.010 C 
HETATM    2  C7  UNL     1      -0.377  63.890  72.264  1.00  0.00     0.017 C 
HETATM    3  C8  UNL     1      -0.719  64.898  73.332  1.00  0.00     0.034 C 
HETATM    4  C9  UNL     1      -1.439  64.367  74.513  1.00  0.00     0.140 C 
HETATM    5  C16 UNL     1      -0.537  63.320  75.134  1.00  0.00    -0.016 C 
HETATM    6  C17 UNL     1       0.361  64.113  76.104  1.00  0.00     0.018 C 
HETATM    7  C18 UNL     1      -1.417  62.487  76.041  1.00  0.00     0.018 C 
HETATM    8  C19 UNL     1       0.270  62.537  74.164  1.00  0.00     0.009 C 
HETATM    9  C20 UNL     1       1.698  62.935  74.177  1.00  0.00     0.011 C 
HETATM   10  C21 UNL     1       2.526  61.740  73.764  1.00  0.00     0.034 C 
HETATM   11  C22 UNL     1       1.747  60.968  72.776  1.00  0.00    -0.084 C 
HETATM   12  C23 UNL     1       2.117  59.698  72.619  1.00  0.00     0.015 C 
HETATM   13  C24 UNL     1       0.603  61.556  71.979  1.00  0.00     0.030 C 
ENDROOT
BRANCH   4  14
HETATM   14  O1  UNL     1      -1.583  65.484  75.411  1.00  0.00    -0.315 OA
BRANCH  14  15
HETATM   15  C10 UNL     1      -2.801  66.104  75.644  1.00  0.00     0.259 C 
HETATM   16  O2  UNL     1      -3.525  66.328  74.641  1.00  0.00    -0.265 OA
BRANCH  15  17
HETATM   17  C11 UNL     1      -3.238  66.490  77.025  1.00  0.00     0.113 C 
BRANCH  17  18
HETATM   18  C12 UNL     1      -2.951  65.408  78.015  1.00  0.00     0.047 C 
BRANCH  18  19
HETATM   19  C13 UNL     1      -2.277  66.058  79.216  1.00  0.00     0.117 C 
HETATM   20  C14 UNL     1      -2.147  67.549  79.015  1.00  0.00     0.045 C 
HETATM   21  C15 UNL     1      -0.895  65.477  79.336  1.00  0.00     0.045 C 
BRANCH  19  22
HETATM   22  N1  UNL     1      -2.989  65.746  80.439  1.00  0.00    -0.071 N 
ATOM     23  H13 UNL     1      -3.631  64.963  80.312  1.00  0.00     0.275 HD
ATOM     24  H12 UNL     1      -2.373  65.329  81.137  1.00  0.00     0.275 HD
ATOM     25  H11 UNL     1      -3.467  66.570  80.801  1.00  0.00     0.275 HD
ENDBRANCH  19  22
ENDBRANCH  18  19
ENDBRANCH  17  18
ENDBRANCH  15  17
ENDBRANCH  14  15
ENDBRANCH   4  14
BRANCH   1  26
HETATM   26  C5  UNL     1      -1.679  61.956  72.762  1.00  0.00    -0.015 C 
HETATM   27  C4  UNL     1      -2.122  61.029  71.942  1.00  0.00     0.003 C 
BRANCH  27  28
HETATM   28  C2  UNL     1      -3.436  60.479  71.906  1.00  0.00    -0.072 C 
HETATM   29  C1  UNL     1      -4.106  60.294  70.790  1.00  0.00     0.018 C 
HETATM   30  C3  UNL     1      -4.076  60.094  73.187  1.00  0.00     0.047 C 
ENDBRANCH  27  28
ENDBRANCH   1  26
BRANCH  13  31
HETATM   31  C25 UNL     1       1.206  61.888  70.658  1.00  0.00    -0.009 C 
HETATM   32  C26 UNL     1       0.396  61.457  69.474  1.00  0.00     0.011 C 
BRANCH  31  33
HETATM   33  C27 UNL     1       1.944  63.170  70.533  1.00  0.00     0.009 C 
BRANCH  33  34
HETATM   34  C28 UNL     1       3.184  62.995  69.694  1.00  0.00     0.028 C 
BRANCH  34  35
HETATM   35  C29 UNL     1       4.253  62.382  70.543  1.00  0.00    -0.025 C 
HETATM   36  C30 UNL     1       4.629  61.126  70.394  1.00  0.00    -0.091 C 
HETATM   37  C31 UNL     1       5.684  60.555  71.246  1.00  0.00     0.042 C 
HETATM   38  C32 UNL     1       3.983  60.288  69.365  1.00  0.00     0.042 C 
ENDBRANCH  34  35
ENDBRANCH  33  34
ENDBRANCH  31  33
ENDBRANCH  13  31
TORSDOF 12
ENDMDL
MODEL 3
REMARK VINA RESULT: -8.931465862      1.365      1.620
REMARK  12 active torsions:
REMARK  status: ('A' for Active; 'I' for Inactive)
REMARK    1  A    between atoms: C2_2  and  C4_4 
REMARK    2  A    between atoms: C5_5  and  C6_6 
REMARK    3  A    between atoms: C9_9  and  O1_10 
REMARK    4  A    between atoms: O1_10  and  C10_11 
REMARK    5  A    between atoms: C10_11  and  C11_13 
REMARK    6  A    between atoms: C11_13  and  C12_14 
REMARK    7  A    between atoms: C12_14  and  C13_15 
REMARK    8  A    between atoms: C13_15  and  N1_18 
REMARK    9  A    between atoms: C24_30  and  C25_31 
REMARK   10  A    between atoms: C25_31  and  C27_33 
REMARK   11  A    between atoms: C27_33  and  C28_34 
REMARK   12  A    between atoms: C28_34  and  C29_35 
ROOT
HETATM    1  C6  UNL     1      -0.233  62.468  72.663  1.00  0.00    -0.010 C 
HETATM    2  C7  UNL     1      -0.358  63.865  72.186  1.00  0.00     0.017 C 
HETATM    3  C8  UNL     1      -0.706  64.882  73.244  1.00  0.00     0.034 C 
HETATM    4  C9  UNL     1      -1.430  64.360  74.426  1.00  0.00     0.140 C 
HETATM    5  C16 UNL     1      -0.528  63.320  75.060  1.00  0.00    -0.016 C 
HETATM    6  C17 UNL     1       0.364  64.122  76.027  1.00  0.00     0.018 C 
HETATM    7  C18 UNL     1      -1.411  62.493  75.970  1.00  0.00     0.018 C 
HETATM    8  C19 UNL     1       0.284  62.530  74.100  1.00  0.00     0.009 C 
HETATM    9  C20 UNL     1       1.711  62.931  74.116  1.00  0.00     0.011 C 
HETATM   10  C21 UNL     1       2.542  61.734  73.716  1.00  0.00     0.034 C 
HETATM   11  C22 UNL     1       1.769  60.952  72.731  1.00  0.00    -0.084 C 
HETATM   12  C23 UNL     1       2.143  59.681  72.587  1.00  0.00     0.015 C 
HETATM   13  C24 UNL     1       0.628  61.531  71.924  1.00  0.00     0.030 C 
ENDROOT
BRANCH   4  14
HETATM   14  O1  UNL     1      -1.580  65.484  75.314  1.00  0.00    -0.315 OA
BRANCH  14  15
HETATM   15  C10 UNL     1      -2.813  66.043  75.611  1.00  0.00     0.259 C 
HETATM   16  O2  UNL     1      -3.536  66.372  74.637  1.00  0.00    -0.265 OA
BRANCH  15  17
HETATM   17  C11 UNL     1      -3.267  66.246  77.025  1.00  0.00     0.113 C 
BRANCH  17  18
HETATM   18  C12 UNL     1      -4.047  65.075  77.526  1.00  0.00     0.047 C 
BRANCH  18  19
HETATM   19  C13 UNL     1      -5.521  65.455  77.473  1.00  0.00     0.117 C 
HETATM   20  C14 UNL     1      -5.716  66.900  77.866  1.00  0.00     0.045 C 
HETATM   21  C15 UNL     1      -6.252  64.594  78.467  1.00  0.00     0.045 C 
BRANCH  19  22
HETATM   22  N1  UNL     1      -6.079  65.179  76.165  1.00  0.00    -0.071 N 
ATOM     23  H13 UNL     1      -5.599  65.703  75.432  1.00  0.00     0.275 HD
ATOM     24  H12 UNL     1      -5.856  64.235  75.852  1.00  0.00     0.275 HD
ATOM     25  H11 UNL     1      -7.084  65.352  76.154  1.00  0.00     0.275 HD
ENDBRANCH  19  22
ENDBRANCH  18  19
ENDBRANCH  17  18
ENDBRANCH  15  17
ENDBRANCH  14  15
ENDBRANCH   4  14
BRANCH   1  26
HETATM   26  C5  UNL     1      -1.658  61.933  72.695  1.00  0.00    -0.015 C 
HETATM   27  C4  UNL     1      -2.116  61.047  71.838  1.00  0.00     0.003 C 
BRANCH  27  28
HETATM   28  C2  UNL     1      -3.430  60.498  71.798  1.00  0.00    -0.072 C 
HETATM   29  C1  UNL     1      -4.102  60.329  70.682  1.00  0.00     0.018 C 
HETATM   30  C3  UNL     1      -4.067  60.096  73.075  1.00  0.00     0.047 C 
ENDBRANCH  27  28
ENDBRANCH   1  26
BRANCH  13  31
HETATM   31  C25 UNL     1       1.235  61.852  70.604  1.00  0.00    -0.009 C 
HETATM   32  C26 UNL     1       0.438  61.398  69.420  1.00  0.00     0.011 C 
BRANCH  31  33
HETATM   33  C27 UNL     1       1.961  63.140  70.467  1.00  0.00     0.009 C 
BRANCH  33  34
HETATM   34  C28 UNL     1       3.214  62.966  69.647  1.00  0.00     0.028 C 
BRANCH  34  35
HETATM   35  C29 UNL     1       4.275  62.371  70.516  1.00  0.00    -0.025 C 
HETATM   36  C30 UNL     1       4.663  61.116  70.387  1.00  0.00    -0.091 C 
HETATM   37  C31 UNL     1       5.711  60.562  71.259  1.00  0.00     0.042 C 
HETATM   38  C32 UNL     1       4.037  60.262  69.358  1.00  0.00     0.042 C 
ENDBRANCH  34  35
ENDBRANCH  33  34
ENDBRANCH  31  33
ENDBRANCH  13  31
TORSDOF 12
ENDMDL
MODEL 4
REMARK VINA RESULT: -8.535455082      2.592      4.223
REMARK  12 active torsions:
REMARK  status: ('A' for Active; 'I' for Inactive)
REMARK    1  A    between atoms: C2_2  and  C4_4 
REMARK    2  A    between atoms: C5_5  and  C6_6 
REMARK    3  A    between atoms: C9_9  and  O1_10 
REMARK    4  A    between atoms: O1_10  and  C10_11 
REMARK    5  A    between atoms: C10_11  and  C11_13 
REMARK    6  A    between atoms: C11_13  and  C12_14 
REMARK    7  A    between atoms: C12_14  and  C13_15 
REMARK    8  A    between atoms: C13_15  and  N1_18 
REMARK    9  A    between atoms: C24_30  and  C25_31 
REMARK   10  A    between atoms: C25_31  and  C27_33 
REMARK   11  A    between atoms: C27_33  and  C28_34 
REMARK   12  A    between atoms: C28_34  and  C29_35 
ROOT
HETATM    1  C6  UNL     1       1.662  61.106  72.785  1.00  0.00    -0.010 C 
HETATM    2  C7  UNL     1       2.039  62.274  73.616  1.00  0.00     0.017 C 
HETATM    3  C8  UNL     1       1.727  62.150  75.087  1.00  0.00     0.034 C 
HETATM    4  C9  UNL     1       0.621  61.228  75.435  1.00  0.00     0.140 C 
HETATM    5  C16 UNL     1       1.025  59.858  74.929  1.00  0.00    -0.016 C 
HETATM    6  C17 UNL     1       1.833  59.242  76.088  1.00  0.00     0.018 C 
HETATM    7  C18 UNL     1      -0.243  59.034  74.882  1.00  0.00     0.018 C 
HETATM    8  C19 UNL     1       1.806  59.865  73.666  1.00  0.00     0.009 C 
HETATM    9  C20 UNL     1       3.238  59.560  73.894  1.00  0.00     0.011 C 
HETATM   10  C21 UNL     1       3.789  58.914  72.644  1.00  0.00     0.034 C 
HETATM   11  C22 UNL     1       3.102  59.512  71.483  1.00  0.00    -0.084 C 
HETATM   12  C23 UNL     1       3.144  58.796  70.360  1.00  0.00     0.015 C 
HETATM   13  C24 UNL     1       2.394  60.848  71.535  1.00  0.00     0.030 C 
ENDROOT
BRANCH   4  14
HETATM   14  O1  UNL     1       0.565  61.221  76.874  1.00  0.00    -0.315 OA
BRANCH  14  15
HETATM   15  C10 UNL     1       0.348  62.369  77.620  1.00  0.00     0.259 C 
HETATM   16  O2  UNL     1       1.205  62.646  78.496  1.00  0.00    -0.265 OA
BRANCH  15  17
HETATM   17  C11 UNL     1      -0.850  63.240  77.396  1.00  0.00     0.113 C 
BRANCH  17  18
HETATM   18  C12 UNL     1      -0.481  64.519  76.716  1.00  0.00     0.047 C 
BRANCH  18  19
HETATM   19  C13 UNL     1      -1.343  64.634  75.466  1.00  0.00     0.117 C 
HETATM   20  C14 UNL     1      -0.498  64.965  74.260  1.00  0.00     0.045 C 
HETATM   21  C15 UNL     1      -2.315  65.762  75.682  1.00  0.00     0.045 C 
BRANCH  19  22
HETATM   22  N1  UNL     1      -2.116  63.426  75.259  1.00  0.00    -0.071 N 
ATOM     23  H13 UNL     1      -1.710  62.838  74.530  1.00  0.00     0.275 HD
ATOM     24  H12 UNL     1      -2.026  62.782  76.044  1.00  0.00     0.275 HD
ATOM     25  H11 UNL     1      -3.092  63.648  75.063  1.00  0.00     0.275 HD
ENDBRANCH  19  22
ENDBRANCH  18  19
ENDBRANCH  17  18
ENDBRANCH  15  17
ENDBRANCH  14  15
ENDBRANCH   4  14
BRANCH   1  26
HETATM   26  C5  UNL     1       0.184  61.302  72.479  1.00  0.00    -0.015 C 
HETATM   27  C4  UNL     1      -0.334  61.131  71.282  1.00  0.00     0.003 C 
BRANCH  27  28
HETATM   28  C2  UNL     1      -1.700  61.293  70.912  1.00  0.00    -0.072 C 
HETATM   29  C1  UNL     1      -2.076  61.757  69.742  1.00  0.00     0.018 C 
HETATM   30  C3  UNL     1      -2.747  60.918  71.894  1.00  0.00     0.047 C 
ENDBRANCH  27  28
ENDBRANCH   1  26
BRANCH  13  31
HETATM   31  C25 UNL     1       3.372  61.807  70.952  1.00  0.00    -0.009 C 
HETATM   32  C26 UNL     1       4.806  61.390  71.069  1.00  0.00     0.011 C 
BRANCH  31  33
HETATM   33  C27 UNL     1       2.984  62.529  69.714  1.00  0.00     0.009 C 
BRANCH  33  34
HETATM   34  C28 UNL     1       2.702  63.981  70.005  1.00  0.00     0.028 C 
BRANCH  34  35
HETATM   35  C29 UNL     1       1.268  64.118  70.406  1.00  0.00    -0.025 C 
HETATM   36  C30 UNL     1       0.577  65.217  70.169  1.00  0.00    -0.091 C 
HETATM   37  C31 UNL     1      -0.833  65.319  70.576  1.00  0.00     0.042 C 
HETATM   38  C32 UNL     1       1.228  66.355  69.489  1.00  0.00     0.042 C 
ENDBRANCH  34  35
ENDBRANCH  33  34
ENDBRANCH  31  33
ENDBRANCH  13  31
TORSDOF 12
ENDMDL
MODEL 5
REMARK VINA RESULT: -8.366491001      4.167      7.712
REMARK  12 active torsions:
REMARK  status: ('A' for Active; 'I' for Inactive)
REMARK    1  A    between atoms: C2_2  and  C4_4 
REMARK    2  A    between atoms: C5_5  and  C6_6 
REMARK    3  A    between atoms: C9_9  and  O1_10 
REMARK    4  A    between atoms: O1_10  and  C10_11 
REMARK    5  A    between atoms: C10_11  and  C11_13 
REMARK    6  A    between atoms: C11_13  and  C12_14 
REMARK    7  A    between atoms: C12_14  and  C13_15 
REMARK    8  A    between atoms: C13_15  and  N1_18 
REMARK    9  A    between atoms: C24_30  and  C25_31 
REMARK   10  A    between atoms: C25_31  and  C27_33 
REMARK   11  A    between atoms: C27_33  and  C28_34 
REMARK   12  A    between atoms: C28_34  and  C29_35 
ROOT
HETATM    1  C6  UNL     1       0.509  62.754  71.337  1.00  0.00    -0.010 C 
HETATM    2  C7  UNL     1       1.210  62.237  72.535  1.00  0.00     0.017 C 
HETATM    3  C8  UNL     1       2.312  61.243  72.264  1.00  0.00     0.034 C 
HETATM    4  C9  UNL     1       2.193  60.480  71.000  1.00  0.00     0.140 C 
HETATM    5  C16 UNL     1       2.198  61.498  69.878  1.00  0.00    -0.016 C 
HETATM    6  C17 UNL     1       3.691  61.704  69.552  1.00  0.00     0.018 C 
HETATM    7  C18 UNL     1       1.647  60.789  68.660  1.00  0.00     0.018 C 
HETATM    8  C19 UNL     1       1.531  62.785  70.200  1.00  0.00     0.009 C 
HETATM    9  C20 UNL     1       2.506  63.880  70.415  1.00  0.00     0.011 C 
HETATM   10  C21 UNL     1       1.839  65.185  70.044  1.00  0.00     0.034 C 
HETATM   11  C22 UNL     1       0.410  65.082  70.396  1.00  0.00    -0.084 C 
HETATM   12  C23 UNL     1      -0.398  65.941  69.776  1.00  0.00     0.015 C 
HETATM   13  C24 UNL     1      -0.128  64.079  71.393  1.00  0.00     0.030 C 
ENDROOT
BRANCH   4  14
HETATM   14  O1  UNL     1       3.379  59.666  70.928  1.00  0.00    -0.315 OA
BRANCH  14  15
HETATM   15  C10 UNL     1       3.337  58.281  70.908  1.00  0.00     0.259 C 
HETATM   16  O2  UNL     1       4.047  57.705  70.045  1.00  0.00    -0.265 OA
BRANCH  15  17
HETATM   17  C11 UNL     1       2.487  57.504  71.866  1.00  0.00     0.113 C 
BRANCH  17  18
HETATM   18  C12 UNL     1       2.820  57.830  73.286  1.00  0.00     0.047 C 
BRANCH  18  19
HETATM   19  C13 UNL     1       2.186  56.756  74.160  1.00  0.00     0.117 C 
HETATM   20  C14 UNL     1       1.601  55.651  73.312  1.00  0.00     0.045 C 
HETATM   21  C15 UNL     1       1.067  57.396  74.935  1.00  0.00     0.045 C 
BRANCH  19  22
HETATM   22  N1  UNL     1       3.142  56.240  75.119  1.00  0.00    -0.071 N 
ATOM     23  H13 UNL     1       3.772  55.558  74.695  1.00  0.00     0.275 HD
ATOM     24  H12 UNL     1       3.831  56.945  75.380  1.00  0.00     0.275 HD
ATOM     25  H11 UNL     1       2.667  55.857  75.936  1.00  0.00     0.275 HD
ENDBRANCH  19  22
ENDBRANCH  18  19
ENDBRANCH  17  18
ENDBRANCH  15  17
ENDBRANCH  14  15
ENDBRANCH   4  14
BRANCH   1  26
HETATM   26  C5  UNL     1      -0.537  61.698  71.006  1.00  0.00    -0.015 C 
HETATM   27  C4  UNL     1      -1.733  61.989  70.542  1.00  0.00     0.003 C 
BRANCH  27  28
HETATM   28  C2  UNL     1      -2.766  61.065  70.209  1.00  0.00    -0.072 C 
HETATM   29  C1  UNL     1      -3.102  60.782  68.971  1.00  0.00     0.018 C 
HETATM   30  C3  UNL     1      -3.493  60.391  71.312  1.00  0.00     0.047 C 
ENDBRANCH  27  28
ENDBRANCH   1  26
BRANCH  13  31
HETATM   31  C25 UNL     1      -0.280  64.856  72.654  1.00  0.00    -0.009 C 
HETATM   32  C26 UNL     1      -1.595  65.557  72.804  1.00  0.00     0.011 C 
BRANCH  31  33
HETATM   33  C27 UNL     1       0.328  64.301  73.890  1.00  0.00     0.009 C 
BRANCH  33  34
HETATM   34  C28 UNL     1      -0.723  64.067  74.946  1.00  0.00     0.028 C 
BRANCH  34  35
HETATM   35  C29 UNL     1      -0.330  62.871  75.753  1.00  0.00    -0.025 C 
HETATM   36  C30 UNL     1      -0.864  61.681  75.546  1.00  0.00    -0.091 C 
HETATM   37  C31 UNL     1      -0.455  60.525  76.358  1.00  0.00     0.042 C 
HETATM   38  C32 UNL     1      -1.882  61.513  74.490  1.00  0.00     0.042 C 
ENDBRANCH  34  35
ENDBRANCH  33  34
ENDBRANCH  31  33
ENDBRANCH  13  31
TORSDOF 12
ENDMDL
