MODEL 1
REMARK VINA RESULT: -6.212509936      0.000      0.000
REMARK  8 active torsions:
REMARK  status: ('A' for Active; 'I' for Inactive)
REMARK    1  A    between atoms: N1_2  and  C2_4 
REMARK    2  A    between atoms: C3_5  and  C4_6 
REMARK    3  A    between atoms: C4_6  and  S1_7 
REMARK    4  A    between atoms: C6_10  and  N2_11 
REMARK    5  A    between atoms: N2_11  and  C7_13 
REMARK    6  A    between atoms: C7_13  and  C9_15 
REMARK    7  A    between atoms: C9_15  and  O1_16 
REMARK    8  A    between atoms: C11_21  and  O2_22 
ROOT
HETATM    1  C2  UNL     1      50.435  26.412  13.883  1.00  0.00     0.125 C 
HETATM    2  C3  UNL     1      51.168  26.944  12.691  1.00  0.00     0.084 C 
HETATM    3  S2  UNL     1      49.835  27.494  11.518  1.00  0.00    -0.130 SA
HETATM    4  C6  UNL     1      49.096  28.886  12.461  1.00  0.00     0.216 C 
HETATM    5  C10 UNL     1      48.793  28.360  13.836  1.00  0.00     0.299 C 
HETATM    6  F1  UNL     1      47.420  28.547  14.064  1.00  0.00    -0.200 F 
HETATM    7  F2  UNL     1      49.453  28.973  14.866  1.00  0.00    -0.200 F 
HETATM    8  C11 UNL     1      49.002  26.870  13.952  1.00  0.00     0.216 C 
ENDROOT
BRANCH   4   9
HETATM    9  N2  UNL     1      48.116  29.582  11.777  1.00  0.00    -0.398 N 
ATOM     10  H2  UNL     1      47.960  30.557  12.033  1.00  0.00     0.155 HD
BRANCH   9  11
HETATM   11  C7  UNL     1      47.328  29.046  10.763  1.00  0.00     0.097 C 
HETATM   12  C8  UNL     1      47.713  29.770   9.450  1.00  0.00     0.034 C 
BRANCH  11  13
HETATM   13  C9  UNL     1      45.850  29.059  10.863  1.00  0.00     0.188 C 
BRANCH  13  14
HETATM   14  O1  UNL     1      45.179  29.394   9.696  1.00  0.00    -0.399 OA
ATOM     15  H1  UNL     1      44.322  29.784   9.817  1.00  0.00     0.209 HD
ENDBRANCH  13  14
ENDBRANCH  11  13
ENDBRANCH   9  11
ENDBRANCH   4   9
BRANCH   2  16
HETATM   16  C4  UNL     1      52.003  26.004  11.914  1.00  0.00     0.090 C 
BRANCH  16  17
HETATM   17  S1  UNL     1      52.500  26.542  10.292  1.00  0.00    -0.172 SA
HETATM   18  C5  UNL     1      52.540  25.237   9.064  1.00  0.00     0.089 C 
ENDBRANCH  16  17
ENDBRANCH   2  16
BRANCH   8  19
HETATM   19  O2  UNL     1      48.511  26.529  15.209  1.00  0.00    -0.387 OA
ATOM     20  H2  UNL     1      47.611  26.247  15.099  1.00  0.00     0.210 HD
ENDBRANCH   8  19
BRANCH   1  21
HETATM   21  N1  UNL     1      50.529  24.999  13.904  1.00  0.00    -0.418 N 
HETATM   22  C1  UNL     1      51.242  24.402  14.978  1.00  0.00     0.140 C 
ATOM     23  H1  UNL     1      50.101  24.430  13.174  1.00  0.00     0.153 HD
ENDBRANCH   1  21
TORSDOF 8
ENDMDL
MODEL 2
REMARK VINA RESULT: -5.930760853      2.265      5.482
REMARK  8 active torsions:
REMARK  status: ('A' for Active; 'I' for Inactive)
REMARK    1  A    between atoms: N1_2  and  C2_4 
REMARK    2  A    between atoms: C3_5  and  C4_6 
REMARK    3  A    between atoms: C4_6  and  S1_7 
REMARK    4  A    between atoms: C6_10  and  N2_11 
REMARK    5  A    between atoms: N2_11  and  C7_13 
REMARK    6  A    between atoms: C7_13  and  C9_15 
REMARK    7  A    between atoms: C9_15  and  O1_16 
REMARK    8  A    between atoms: C11_21  and  O2_22 
ROOT
HETATM    1  C2  UNL     1      48.823  28.456  11.160  1.00  0.00     0.125 C 
HETATM    2  C3  UNL     1      49.479  27.304  10.465  1.00  0.00     0.084 C 
HETATM    3  S2  UNL     1      51.128  27.119  11.302  1.00  0.00    -0.130 SA
HETATM    4  C6  UNL     1      50.606  26.606  12.987  1.00  0.00     0.216 C 
HETATM    5  C10 UNL     1      49.579  27.606  13.440  1.00  0.00     0.299 C 
HETATM    6  F1  UNL     1      50.043  28.169  14.640  1.00  0.00    -0.200 F 
HETATM    7  F2  UNL     1      48.332  27.104  13.694  1.00  0.00    -0.200 F 
HETATM    8  C11 UNL     1      49.443  28.775  12.495  1.00  0.00     0.216 C 
ENDROOT
BRANCH   4   9
HETATM    9  N2  UNL     1      51.649  26.283  13.834  1.00  0.00    -0.398 N 
ATOM     10  H2  UNL     1      52.167  27.050  14.263  1.00  0.00     0.155 HD
BRANCH   9  11
HETATM   11  C7  UNL     1      52.042  24.984  14.144  1.00  0.00     0.097 C 
HETATM   12  C8  UNL     1      50.901  24.343  14.970  1.00  0.00     0.034 C 
BRANCH  11  13
HETATM   13  C9  UNL     1      53.312  24.726  14.863  1.00  0.00     0.188 C 
BRANCH  13  14
HETATM   14  O1  UNL     1      53.590  25.594  15.908  1.00  0.00    -0.399 OA
ATOM     15  H1  UNL     1      53.618  25.198  16.771  1.00  0.00     0.209 HD
ENDBRANCH  13  14
ENDBRANCH  11  13
ENDBRANCH   9  11
ENDBRANCH   4   9
BRANCH   2  16
HETATM   16  C4  UNL     1      49.791  27.449   9.026  1.00  0.00     0.090 C 
BRANCH  16  17
HETATM   17  S1  UNL     1      51.497  27.250   8.562  1.00  0.00    -0.172 SA
HETATM   18  C5  UNL     1      52.293  28.763   8.023  1.00  0.00     0.089 C 
ENDBRANCH  16  17
ENDBRANCH   2  16
BRANCH   8  19
HETATM   19  O2  UNL     1      48.603  29.674  13.146  1.00  0.00    -0.387 OA
ATOM     20  H2  UNL     1      48.649  29.488  14.076  1.00  0.00     0.210 HD
ENDBRANCH   8  19
BRANCH   1  21
HETATM   21  N1  UNL     1      48.822  29.586  10.306  1.00  0.00    -0.418 N 
HETATM   22  C1  UNL     1      47.592  29.952   9.698  1.00  0.00     0.140 C 
ATOM     23  H1  UNL     1      49.675  30.119  10.134  1.00  0.00     0.153 HD
ENDBRANCH   1  21
TORSDOF 8
ENDMDL
MODEL 3
REMARK VINA RESULT: -5.869243915      2.171      4.948
REMARK  8 active torsions:
REMARK  status: ('A' for Active; 'I' for Inactive)
REMARK    1  A    between atoms: N1_2  and  C2_4 
REMARK    2  A    between atoms: C3_5  and  C4_6 
REMARK    3  A    between atoms: C4_6  and  S1_7 
REMARK    4  A    between atoms: C6_10  and  N2_11 
REMARK    5  A    between atoms: N2_11  and  C7_13 
REMARK    6  A    between atoms: C7_13  and  C9_15 
REMARK    7  A    between atoms: C9_15  and  O1_16 
REMARK    8  A    between atoms: C11_21  and  O2_22 
ROOT
HETATM    1  C2  UNL     1      49.617  28.219   9.391  1.00  0.00     0.125 C 
HETATM    2  C3  UNL     1      50.342  26.909   9.390  1.00  0.00     0.084 C 
HETATM    3  S2  UNL     1      51.497  27.001  10.843  1.00  0.00    -0.130 SA
HETATM    4  C6  UNL     1      50.300  27.043  12.235  1.00  0.00     0.216 C 
HETATM    5  C10 UNL     1      49.314  28.131  11.920  1.00  0.00     0.299 C 
HETATM    6  F1  UNL     1      49.341  29.044  12.986  1.00  0.00    -0.200 F 
HETATM    7  F2  UNL     1      48.013  27.732  11.774  1.00  0.00    -0.200 F 
HETATM    8  C11 UNL     1      49.704  28.944  10.709  1.00  0.00     0.216 C 
ENDROOT
BRANCH   4   9
HETATM    9  N2  UNL     1      50.882  27.005  13.489  1.00  0.00    -0.398 N 
ATOM     10  H2  UNL     1      51.543  27.745  13.728  1.00  0.00     0.155 HD
BRANCH   9  11
HETATM   11  C7  UNL     1      50.629  26.030  14.449  1.00  0.00     0.097 C 
HETATM   12  C8  UNL     1      51.435  24.770  14.047  1.00  0.00     0.034 C 
BRANCH  11  13
HETATM   13  C9  UNL     1      49.243  25.596  14.743  1.00  0.00     0.188 C 
BRANCH  13  14
HETATM   14  O1  UNL     1      48.362  26.611  15.084  1.00  0.00    -0.399 OA
ATOM     15  H1  UNL     1      47.653  26.358  15.664  1.00  0.00     0.209 HD
ENDBRANCH  13  14
ENDBRANCH  11  13
ENDBRANCH   9  11
ENDBRANCH   4   9
BRANCH   2  16
HETATM   16  C4  UNL     1      51.204  26.595   8.230  1.00  0.00     0.090 C 
BRANCH  16  17
HETATM   17  S1  UNL     1      52.899  26.189   8.590  1.00  0.00    -0.172 SA
HETATM   18  C5  UNL     1      53.275  24.440   8.488  1.00  0.00     0.089 C 
ENDBRANCH  16  17
ENDBRANCH   2  16
BRANCH   8  19
HETATM   19  O2  UNL     1      48.799  29.999  10.670  1.00  0.00    -0.387 OA
ATOM     20  H2  UNL     1      48.207  29.843   9.943  1.00  0.00     0.210 HD
ENDBRANCH   8  19
BRANCH   1  21
HETATM   21  N1  UNL     1      50.092  29.024   8.326  1.00  0.00    -0.418 N 
HETATM   22  C1  UNL     1      49.178  29.351   7.290  1.00  0.00     0.140 C 
ATOM     23  H1  UNL     1      51.056  29.356   8.304  1.00  0.00     0.153 HD
ENDBRANCH   1  21
TORSDOF 8
ENDMDL
MODEL 4
REMARK VINA RESULT: -5.823940486      1.652      2.230
REMARK  8 active torsions:
REMARK  status: ('A' for Active; 'I' for Inactive)
REMARK    1  A    between atoms: N1_2  and  C2_4 
REMARK    2  A    between atoms: C3_5  and  C4_6 
REMARK    3  A    between atoms: C4_6  and  S1_7 
REMARK    4  A    between atoms: C6_10  and  N2_11 
REMARK    5  A    between atoms: N2_11  and  C7_13 
REMARK    6  A    between atoms: C7_13  and  C9_15 
REMARK    7  A    between atoms: C9_15  and  O1_16 
REMARK    8  A    between atoms: C11_21  and  O2_22 
ROOT
HETATM    1  C2  UNL     1      49.523  26.870  13.967  1.00  0.00     0.125 C 
HETATM    2  C3  UNL     1      50.754  26.839  13.115  1.00  0.00     0.084 C 
HETATM    3  S2  UNL     1      50.165  27.294  11.411  1.00  0.00    -0.130 SA
HETATM    4  C6  UNL     1      49.643  29.034  11.678  1.00  0.00     0.216 C 
HETATM    5  C10 UNL     1      48.729  29.029  12.872  1.00  0.00     0.299 C 
HETATM    6  F1  UNL     1      47.503  29.580  12.465  1.00  0.00    -0.200 F 
HETATM    7  F2  UNL     1      49.154  29.760  13.948  1.00  0.00    -0.200 F 
HETATM    8  C11 UNL     1      48.387  27.636  13.342  1.00  0.00     0.216 C 
ENDROOT
BRANCH   4   9
HETATM    9  N2  UNL     1      49.244  29.692  10.530  1.00  0.00    -0.398 N 
ATOM     10  H2  UNL     1      49.687  30.586  10.317  1.00  0.00     0.155 HD
BRANCH   9  11
HETATM   11  C7  UNL     1      48.280  29.221   9.643  1.00  0.00     0.097 C 
HETATM   12  C8  UNL     1      48.993  28.935   8.299  1.00  0.00     0.034 C 
BRANCH  11  13
HETATM   13  C9  UNL     1      47.069  30.019   9.344  1.00  0.00     0.188 C 
BRANCH  13  14
HETATM   14  O1  UNL     1      45.864  29.425   9.690  1.00  0.00    -0.399 OA
ATOM     15  H1  UNL     1      45.098  29.982   9.613  1.00  0.00     0.209 HD
ENDBRANCH  13  14
ENDBRANCH  11  13
ENDBRANCH   9  11
ENDBRANCH   4   9
BRANCH   2  16
HETATM   16  C4  UNL     1      51.451  25.546  12.950  1.00  0.00     0.090 C 
BRANCH  16  17
HETATM   17  S1  UNL     1      52.558  25.070  14.260  1.00  0.00    -0.172 SA
HETATM   18  C5  UNL     1      52.203  23.466  14.977  1.00  0.00     0.089 C 
ENDBRANCH  16  17
ENDBRANCH   2  16
BRANCH   8  19
HETATM   19  O2  UNL     1      47.410  27.810  14.317  1.00  0.00    -0.387 OA
ATOM     20  H2  UNL     1      47.059  28.687  14.219  1.00  0.00     0.210 HD
ENDBRANCH   8  19
BRANCH   1  21
HETATM   21  N1  UNL     1      49.139  25.545  14.290  1.00  0.00    -0.418 N 
HETATM   22  C1  UNL     1      48.948  25.231  15.663  1.00  0.00     0.140 C 
ATOM     23  H1  UNL     1      49.003  24.842  13.564  1.00  0.00     0.153 HD
ENDBRANCH   1  21
TORSDOF 8
ENDMDL
MODEL 5
REMARK VINA RESULT: -5.691665709      2.388      5.379
REMARK  8 active torsions:
REMARK  status: ('A' for Active; 'I' for Inactive)
REMARK    1  A    between atoms: N1_2  and  C2_4 
REMARK    2  A    between atoms: C3_5  and  C4_6 
REMARK    3  A    between atoms: C4_6  and  S1_7 
REMARK    4  A    between atoms: C6_10  and  N2_11 
REMARK    5  A    between atoms: N2_11  and  C7_13 
REMARK    6  A    between atoms: C7_13  and  C9_15 
REMARK    7  A    between atoms: C9_15  and  O1_16 
REMARK    8  A    between atoms: C11_21  and  O2_22 
ROOT
HETATM    1  C2  UNL     1      49.120  28.189  10.988  1.00  0.00     0.125 C 
HETATM    2  C3  UNL     1      49.869  27.046  10.377  1.00  0.00     0.084 C 
HETATM    3  S2  UNL     1      51.444  26.930  11.357  1.00  0.00    -0.130 SA
HETATM    4  C6  UNL     1      50.794  26.434  13.001  1.00  0.00     0.216 C 
HETATM    5  C10 UNL     1      49.703  27.408  13.343  1.00  0.00     0.299 C 
HETATM    6  F1  UNL     1      50.044  28.009  14.565  1.00  0.00    -0.200 F 
HETATM    7  F2  UNL     1      48.454  26.871  13.500  1.00  0.00    -0.200 F 
HETATM    8  C11 UNL     1      49.612  28.554  12.364  1.00  0.00     0.216 C 
ENDROOT
BRANCH   4   9
HETATM    9  N2  UNL     1      51.770  26.161  13.942  1.00  0.00    -0.398 N 
ATOM     10  H2  UNL     1      52.423  26.909  14.179  1.00  0.00     0.155 HD
BRANCH   9  11
HETATM   11  C7  UNL     1      51.925  24.939  14.588  1.00  0.00     0.097 C 
HETATM   12  C8  UNL     1      53.269  24.992  15.356  1.00  0.00     0.034 C 
BRANCH  11  13
HETATM   13  C9  UNL     1      51.896  23.668  13.827  1.00  0.00     0.188 C 
BRANCH  13  14
HETATM   14  O1  UNL     1      52.764  23.602  12.747  1.00  0.00    -0.399 OA
ATOM     15  H1  UNL     1      52.455  24.016  11.950  1.00  0.00     0.209 HD
ENDBRANCH  13  14
ENDBRANCH  11  13
ENDBRANCH   9  11
ENDBRANCH   4   9
BRANCH   2  16
HETATM   16  C4  UNL     1      50.298  27.172   8.968  1.00  0.00     0.090 C 
BRANCH  16  17
HETATM   17  S1  UNL     1      52.043  27.382   8.687  1.00  0.00    -0.172 SA
HETATM   18  C5  UNL     1      52.523  29.052   8.247  1.00  0.00     0.089 C 
ENDBRANCH  16  17
ENDBRANCH   2  16
BRANCH   8  19
HETATM   19  O2  UNL     1      48.693  29.437  12.920  1.00  0.00    -0.387 OA
ATOM     20  H2  UNL     1      49.170  30.208  13.205  1.00  0.00     0.210 HD
ENDBRANCH   8  19
BRANCH   1  21
HETATM   21  N1  UNL     1      49.158  29.302  10.112  1.00  0.00    -0.418 N 
HETATM   22  C1  UNL     1      47.930  29.737   9.546  1.00  0.00     0.140 C 
ATOM     23  H1  UNL     1      50.036  29.774   9.896  1.00  0.00     0.153 HD
ENDBRANCH   1  21
TORSDOF 8
ENDMDL
