MODEL 1
REMARK VINA RESULT: -6.040932751      0.000      0.000
REMARK  7 active torsions:
REMARK  status: ('A' for Active; 'I' for Inactive)
REMARK    1  A    between atoms: N1_1  and  C1_5 
REMARK    2  A    between atoms: C1_5  and  C2_6 
REMARK    3  A    between atoms: C2_6  and  C3_7 
REMARK    4  A    between atoms: C3_7  and  N2_8 
REMARK    5  A    between atoms: N2_8  and  C4_10 
REMARK    6  A    between atoms: C5_15  and  C6_16 
REMARK    7  A    between atoms: C6_16  and  N5_17 
ROOT
HETATM    1  C4  UNL     1      46.791  28.635  11.708  1.00  0.00     0.240 A 
HETATM    2  N3  UNL     1      45.513  28.620  11.297  1.00  0.00    -0.263 N 
ATOM      3  H3  UNL     1      44.733  28.162  11.767  1.00  0.00     0.190 HD
HETATM    4  N4  UNL     1      45.452  29.302  10.177  1.00  0.00    -0.279 N 
ATOM      5  H4  UNL     1      44.611  29.467   9.625  1.00  0.00     0.189 HD
HETATM    6  C5  UNL     1      46.668  29.739   9.887  1.00  0.00     0.167 A 
HETATM    7  O1  UNL     1      47.465  29.317  10.838  1.00  0.00    -0.262 OA
ENDROOT
BRANCH   1   8
HETATM    8  N2  UNL     1      47.223  28.051  12.796  1.00  0.00    -0.355 N 
ATOM      9  H2  UNL     1      47.196  27.035  12.872  1.00  0.00     0.163 HD
BRANCH   8  10
HETATM   10  C3  UNL     1      47.738  28.843  13.893  1.00  0.00     0.125 C 
BRANCH  10  11
HETATM   11  C2  UNL     1      48.808  28.061  14.605  1.00  0.00     0.047 C 
BRANCH  11  12
HETATM   12  C1  UNL     1      50.124  28.774  14.646  1.00  0.00     0.231 C 
BRANCH  12  13
HETATM   13  N1  UNL     1      51.176  28.048  15.282  1.00  0.00    -0.079 N 
ATOM     14  H13 UNL     1      50.818  27.541  16.091  1.00  0.00     0.274 HD
ATOM     15  H12 UNL     1      51.469  27.265  14.698  1.00  0.00     0.274 HD
ATOM     16  H11 UNL     1      51.984  28.613  15.548  1.00  0.00     0.274 HD
ENDBRANCH  12  13
ENDBRANCH  11  12
ENDBRANCH  10  11
ENDBRANCH   8  10
ENDBRANCH   1   8
BRANCH   6  17
HETATM   17  C6  UNL     1      47.133  30.555   8.730  1.00  0.00     0.315 C 
BRANCH  17  18
HETATM   18  N5  UNL     1      46.170  31.614   8.477  1.00  0.00    -0.072 N 
ATOM     19  H53 UNL     1      45.353  31.549   9.083  1.00  0.00     0.274 HD
ATOM     20  H52 UNL     1      46.507  32.526   8.788  1.00  0.00     0.274 HD
ATOM     21  H51 UNL     1      45.920  31.609   7.488  1.00  0.00     0.274 HD
ENDBRANCH  17  18
ENDBRANCH   6  17
TORSDOF 7
ENDMDL
MODEL 2
REMARK VINA RESULT: -5.827984816      1.277      1.380
REMARK  7 active torsions:
REMARK  status: ('A' for Active; 'I' for Inactive)
REMARK    1  A    between atoms: N1_1  and  C1_5 
REMARK    2  A    between atoms: C1_5  and  C2_6 
REMARK    3  A    between atoms: C2_6  and  C3_7 
REMARK    4  A    between atoms: C3_7  and  N2_8 
REMARK    5  A    between atoms: N2_8  and  C4_10 
REMARK    6  A    between atoms: C5_15  and  C6_16 
REMARK    7  A    between atoms: C6_16  and  N5_17 
ROOT
HETATM    1  C4  UNL     1      47.263  28.811  11.360  1.00  0.00     0.240 A 
HETATM    2  N3  UNL     1      48.514  28.803  10.871  1.00  0.00    -0.263 N 
ATOM      3  H3  UNL     1      49.319  28.328  11.278  1.00  0.00     0.190 HD
HETATM    4  N4  UNL     1      48.510  29.521   9.772  1.00  0.00    -0.279 N 
ATOM      5  H4  UNL     1      49.317  29.699   9.174  1.00  0.00     0.189 HD
HETATM    6  C5  UNL     1      47.282  29.973   9.571  1.00  0.00     0.167 A 
HETATM    7  O1  UNL     1      46.542  29.524  10.556  1.00  0.00    -0.262 OA
ENDROOT
BRANCH   1   8
HETATM    8  N2  UNL     1      46.896  28.194  12.454  1.00  0.00    -0.355 N 
ATOM      9  H2  UNL     1      46.391  27.310  12.394  1.00  0.00     0.163 HD
BRANCH   8  10
HETATM   10  C3  UNL     1      47.204  28.764  13.749  1.00  0.00     0.125 C 
BRANCH  10  11
HETATM   11  C2  UNL     1      48.384  28.038  14.337  1.00  0.00     0.047 C 
BRANCH  11  12
HETATM   12  C1  UNL     1      49.633  28.862  14.344  1.00  0.00     0.231 C 
BRANCH  12  13
HETATM   13  N1  UNL     1      50.726  28.285  15.058  1.00  0.00    -0.079 N 
ATOM     14  H13 UNL     1      51.492  28.071  14.420  1.00  0.00     0.274 HD
ATOM     15  H12 UNL     1      51.177  28.988  15.644  1.00  0.00     0.274 HD
ATOM     16  H11 UNL     1      50.487  27.462  15.612  1.00  0.00     0.274 HD
ENDBRANCH  12  13
ENDBRANCH  11  12
ENDBRANCH  10  11
ENDBRANCH   8  10
ENDBRANCH   1   8
BRANCH   6  17
HETATM   17  C6  UNL     1      46.752  30.828   8.473  1.00  0.00     0.315 C 
BRANCH  17  18
HETATM   18  N5  UNL     1      45.914  31.871   9.043  1.00  0.00    -0.072 N 
ATOM     19  H53 UNL     1      45.754  31.737  10.040  1.00  0.00     0.274 HD
ATOM     20  H52 UNL     1      46.395  32.769   9.094  1.00  0.00     0.274 HD
ATOM     21  H51 UNL     1      45.043  31.926   8.514  1.00  0.00     0.274 HD
ENDBRANCH  17  18
ENDBRANCH   6  17
TORSDOF 7
ENDMDL
MODEL 3
REMARK VINA RESULT: -5.528317353      0.991      1.183
REMARK  7 active torsions:
REMARK  status: ('A' for Active; 'I' for Inactive)
REMARK    1  A    between atoms: N1_1  and  C1_5 
REMARK    2  A    between atoms: C1_5  and  C2_6 
REMARK    3  A    between atoms: C2_6  and  C3_7 
REMARK    4  A    between atoms: C3_7  and  N2_8 
REMARK    5  A    between atoms: N2_8  and  C4_10 
REMARK    6  A    between atoms: C5_15  and  C6_16 
REMARK    7  A    between atoms: C6_16  and  N5_17 
ROOT
HETATM    1  C4  UNL     1      47.548  28.130  12.458  1.00  0.00     0.240 A 
HETATM    2  N3  UNL     1      46.211  28.152  12.330  1.00  0.00    -0.263 N 
ATOM      3  H3  UNL     1      45.537  27.734  12.970  1.00  0.00     0.190 HD
HETATM    4  N4  UNL     1      45.933  28.809  11.229  1.00  0.00    -0.279 N 
ATOM      5  H4  UNL     1      44.998  28.993  10.865  1.00  0.00     0.189 HD
HETATM    6  C5  UNL     1      47.071  29.195  10.672  1.00  0.00     0.167 A 
HETATM    7  O1  UNL     1      48.040  28.766  11.443  1.00  0.00    -0.262 OA
ENDROOT
BRANCH   1   8
HETATM    8  N2  UNL     1      48.185  27.555  13.445  1.00  0.00    -0.355 N 
ATOM      9  H2  UNL     1      48.465  26.578  13.369  1.00  0.00     0.163 HD
BRANCH   8  10
HETATM   10  C3  UNL     1      48.493  28.303  14.647  1.00  0.00     0.125 C 
BRANCH  10  11
HETATM   11  C2  UNL     1      49.945  28.695  14.623  1.00  0.00     0.047 C 
BRANCH  11  12
HETATM   12  C1  UNL     1      50.821  27.739  15.371  1.00  0.00     0.231 C 
BRANCH  12  13
HETATM   13  N1  UNL     1      52.053  28.294  15.833  1.00  0.00    -0.079 N 
ATOM     14  H13 UNL     1      52.575  28.693  15.053  1.00  0.00     0.274 HD
ATOM     15  H12 UNL     1      51.878  29.138  16.378  1.00  0.00     0.274 HD
ATOM     16  H11 UNL     1      52.642  27.647  16.359  1.00  0.00     0.274 HD
ENDBRANCH  12  13
ENDBRANCH  11  12
ENDBRANCH  10  11
ENDBRANCH   8  10
ENDBRANCH   1   8
BRANCH   6  17
HETATM   17  C6  UNL     1      47.302  29.966   9.418  1.00  0.00     0.315 C 
BRANCH  17  18
HETATM   18  N5  UNL     1      46.102  30.723   9.097  1.00  0.00    -0.072 N 
ATOM     19  H53 UNL     1      46.117  31.660   9.498  1.00  0.00     0.274 HD
ATOM     20  H52 UNL     1      46.064  30.988   8.113  1.00  0.00     0.274 HD
ATOM     21  H51 UNL     1      45.283  30.190   9.388  1.00  0.00     0.274 HD
ENDBRANCH  17  18
ENDBRANCH   6  17
TORSDOF 7
ENDMDL
MODEL 4
REMARK VINA RESULT: -5.346903851      1.390      1.504
REMARK  7 active torsions:
REMARK  status: ('A' for Active; 'I' for Inactive)
REMARK    1  A    between atoms: N1_1  and  C1_5 
REMARK    2  A    between atoms: C1_5  and  C2_6 
REMARK    3  A    between atoms: C2_6  and  C3_7 
REMARK    4  A    between atoms: C3_7  and  N2_8 
REMARK    5  A    between atoms: N2_8  and  C4_10 
REMARK    6  A    between atoms: C5_15  and  C6_16 
REMARK    7  A    between atoms: C6_16  and  N5_17 
ROOT
HETATM    1  C4  UNL     1      47.354  29.021  11.338  1.00  0.00     0.240 A 
HETATM    2  N3  UNL     1      46.049  28.743  11.185  1.00  0.00    -0.263 N 
ATOM      3  H3  UNL     1      45.486  28.143  11.787  1.00  0.00     0.190 HD
HETATM    4  N4  UNL     1      45.632  29.384  10.119  1.00  0.00    -0.279 N 
ATOM      5  H4  UNL     1      44.682  29.369   9.748  1.00  0.00     0.189 HD
HETATM    6  C5  UNL     1      46.654  30.055   9.608  1.00  0.00     0.167 A 
HETATM    7  O1  UNL     1      47.692  29.814  10.372  1.00  0.00    -0.262 OA
ENDROOT
BRANCH   1   8
HETATM    8  N2  UNL     1      48.101  28.550  12.302  1.00  0.00    -0.355 N 
ATOM      9  H2  UNL     1      48.195  27.542  12.426  1.00  0.00     0.163 HD
BRANCH   8  10
HETATM   10  C3  UNL     1      48.795  29.454  13.195  1.00  0.00     0.125 C 
BRANCH  10  11
HETATM   11  C2  UNL     1      49.222  28.700  14.425  1.00  0.00     0.047 C 
BRANCH  11  12
HETATM   12  C1  UNL     1      48.349  27.521  14.721  1.00  0.00     0.231 C 
BRANCH  12  13
HETATM   13  N1  UNL     1      47.173  27.822  15.473  1.00  0.00    -0.079 N 
ATOM     14  H13 UNL     1      46.348  27.445  15.006  1.00  0.00     0.274 HD
ATOM     15  H12 UNL     1      47.154  27.275  16.334  1.00  0.00     0.274 HD
ATOM     16  H11 UNL     1      47.041  28.813  15.680  1.00  0.00     0.274 HD
ENDBRANCH  12  13
ENDBRANCH  11  12
ENDBRANCH  10  11
ENDBRANCH   8  10
ENDBRANCH   1   8
BRANCH   6  17
HETATM   17  C6  UNL     1      46.707  30.933   8.406  1.00  0.00     0.315 C 
BRANCH  17  18
HETATM   18  N5  UNL     1      45.974  32.159   8.678  1.00  0.00    -0.072 N 
ATOM     19  H53 UNL     1      45.305  32.049   9.440  1.00  0.00     0.274 HD
ATOM     20  H52 UNL     1      46.562  32.875   9.105  1.00  0.00     0.274 HD
ATOM     21  H51 UNL     1      45.531  32.481   7.818  1.00  0.00     0.274 HD
ENDBRANCH  17  18
ENDBRANCH   6  17
TORSDOF 7
ENDMDL
MODEL 5
REMARK VINA RESULT: -5.274114191      1.742      2.007
REMARK  7 active torsions:
REMARK  status: ('A' for Active; 'I' for Inactive)
REMARK    1  A    between atoms: N1_1  and  C1_5 
REMARK    2  A    between atoms: C1_5  and  C2_6 
REMARK    3  A    between atoms: C2_6  and  C3_7 
REMARK    4  A    between atoms: C3_7  and  N2_8 
REMARK    5  A    between atoms: N2_8  and  C4_10 
REMARK    6  A    between atoms: C5_15  and  C6_16 
REMARK    7  A    between atoms: C6_16  and  N5_17 
ROOT
HETATM    1  C4  UNL     1      47.220  28.811  10.944  1.00  0.00     0.240 A 
HETATM    2  N3  UNL     1      48.426  28.708  10.362  1.00  0.00    -0.263 N 
ATOM      3  H3  UNL     1      49.198  28.120  10.674  1.00  0.00     0.190 HD
HETATM    4  N4  UNL     1      48.429  29.503   9.318  1.00  0.00    -0.279 N 
ATOM      5  H4  UNL     1      49.208  29.640   8.675  1.00  0.00     0.189 HD
HETATM    6  C5  UNL     1      47.248  30.098   9.242  1.00  0.00     0.167 A 
HETATM    7  O1  UNL     1      46.531  29.658  10.247  1.00  0.00    -0.262 OA
ENDROOT
BRANCH   1   8
HETATM    8  N2  UNL     1      46.861  28.156  12.017  1.00  0.00    -0.355 N 
ATOM      9  H2  UNL     1      46.619  27.168  11.952  1.00  0.00     0.163 HD
BRANCH   8  10
HETATM   10  C3  UNL     1      46.805  28.830  13.297  1.00  0.00     0.125 C 
BRANCH  10  11
HETATM   11  C2  UNL     1      48.182  28.849  13.904  1.00  0.00     0.047 C 
BRANCH  11  12
HETATM   12  C1  UNL     1      48.288  28.008  15.138  1.00  0.00     0.231 C 
BRANCH  12  13
HETATM   13  N1  UNL     1      47.039  27.571  15.673  1.00  0.00    -0.079 N 
ATOM     14  H13 UNL     1      46.610  28.315  16.222  1.00  0.00     0.274 HD
ATOM     15  H12 UNL     1      46.348  27.479  14.928  1.00  0.00     0.274 HD
ATOM     16  H11 UNL     1      47.087  26.711  16.220  1.00  0.00     0.274 HD
ENDBRANCH  12  13
ENDBRANCH  11  12
ENDBRANCH  10  11
ENDBRANCH   8  10
ENDBRANCH   1   8
BRANCH   6  17
HETATM   17  C6  UNL     1      46.745  31.087   8.248  1.00  0.00     0.315 C 
BRANCH  17  18
HETATM   18  N5  UNL     1      45.901  32.057   8.926  1.00  0.00    -0.072 N 
ATOM     19  H53 UNL     1      45.470  31.675   9.767  1.00  0.00     0.274 HD
ATOM     20  H52 UNL     1      46.443  32.801   9.367  1.00  0.00     0.274 HD
ATOM     21  H51 UNL     1      45.211  32.418   8.267  1.00  0.00     0.274 HD
ENDBRANCH  17  18
ENDBRANCH   6  17
TORSDOF 7
ENDMDL
