MODEL 1
REMARK VINA RESULT: -6.179524423      0.000      0.000
REMARK  5 active torsions:
REMARK  status: ('A' for Active; 'I' for Inactive)
REMARK    1  A    between atoms: N1_2  and  C4_5 
REMARK    2  A    between atoms: C4_5  and  C5_6 
REMARK    3  A    between atoms: C5_6  and  N2_7 
REMARK       I    between atoms: N2_7  and  C6_9 
REMARK       I    between atoms: C6_9  and  N5_15 
REMARK       I    between atoms: N3_10  and  C7_12 
REMARK    4  A    between atoms: N5_15  and  C8_17 
REMARK    5  A    between atoms: C8_17  and  C9_20 
ROOT
HETATM    1  N2  UNL     1      16.311 -10.747  20.328  1.00  0.00    -0.225 N 
ATOM      2  H2  UNL     1      16.255  -9.826  19.894  1.00  0.00     0.177 HD
HETATM    3  C6  UNL     1      17.422 -11.575  20.005  1.00  0.00     0.679 C 
HETATM    4  N3  UNL     1      17.662 -12.062  18.856  1.00  0.00    -0.144 N 
ATOM      5  H3  UNL     1      18.495 -12.642  18.758  1.00  0.00     0.188 HD
HETATM    6  C7  UNL     1      16.869 -11.866  17.703  1.00  0.00     0.346 C 
HETATM    7  N4  UNL     1      16.666 -10.603  17.093  1.00  0.00    -0.039 NA
HETATM    8  O1  UNL     1      16.292 -12.860  17.163  1.00  0.00    -0.250 OA
HETATM    9  N5  UNL     1      18.327 -11.871  21.063  1.00  0.00    -0.197 N 
ATOM     10  H5  UNL     1      18.709 -11.112  21.626  1.00  0.00     0.180 HD
ENDROOT
BRANCH   1  11
HETATM   11  C5  UNL     1      15.258 -11.137  21.237  1.00  0.00     0.166 C 
BRANCH  11  12
HETATM   12  C4  UNL     1      14.459  -9.934  21.605  1.00  0.00     0.256 C 
BRANCH  12  13
HETATM   13  N1  UNL     1      13.107 -10.214  21.976  1.00  0.00    -0.077 N 
HETATM   14  C1  UNL     1      12.894 -11.653  22.151  1.00  0.00     0.271 C 
HETATM   15  C2  UNL     1      12.235  -9.788  20.897  1.00  0.00     0.271 C 
HETATM   16  C3  UNL     1      12.688  -9.562  23.194  1.00  0.00     0.271 C 
ENDBRANCH  12  13
ENDBRANCH  11  12
ENDBRANCH   1  11
BRANCH   9  17
HETATM   17  C8  UNL     1      18.717 -13.254  21.353  1.00  0.00     0.172 C 
HETATM   18 BR1  UNL     1      20.273 -13.623  20.268  1.00  0.00    -0.048 Br
HETATM   19 BR2  UNL     1      17.337 -14.500  20.882  1.00  0.00    -0.048 Br
BRANCH  17  20
HETATM   20  C9  UNL     1      19.065 -13.319  22.839  1.00  0.00     0.141 C 
HETATM   21 BR3  UNL     1      20.832 -14.091  22.966  1.00  0.00    -0.092 Br
ENDBRANCH  17  20
ENDBRANCH   9  17
TORSDOF 5
ENDMDL
MODEL 2
REMARK VINA RESULT: -6.095629560      1.859      2.678
REMARK  5 active torsions:
REMARK  status: ('A' for Active; 'I' for Inactive)
REMARK    1  A    between atoms: N1_2  and  C4_5 
REMARK    2  A    between atoms: C4_5  and  C5_6 
REMARK    3  A    between atoms: C5_6  and  N2_7 
REMARK       I    between atoms: N2_7  and  C6_9 
REMARK       I    between atoms: C6_9  and  N5_15 
REMARK       I    between atoms: N3_10  and  C7_12 
REMARK    4  A    between atoms: N5_15  and  C8_17 
REMARK    5  A    between atoms: C8_17  and  C9_20 
ROOT
HETATM    1  N2  UNL     1      14.414 -10.927  18.655  1.00  0.00    -0.225 N 
ATOM      2  H2  UNL     1      13.969 -10.073  18.317  1.00  0.00     0.177 HD
HETATM    3  C6  UNL     1      15.793 -11.125  18.368  1.00  0.00     0.679 C 
HETATM    4  N3  UNL     1      16.282 -11.287  17.207  1.00  0.00    -0.144 N 
ATOM      5  H3  UNL     1      17.291 -11.420  17.138  1.00  0.00     0.188 HD
HETATM    6  C7  UNL     1      15.543 -11.298  16.002  1.00  0.00     0.346 C 
HETATM    7  N4  UNL     1      14.824 -10.180  15.510  1.00  0.00    -0.039 NA
HETATM    8  O1  UNL     1      15.504 -12.356  15.300  1.00  0.00    -0.250 OA
HETATM    9  N5  UNL     1      16.681 -11.141  19.480  1.00  0.00    -0.197 N 
ATOM     10  H5  UNL     1      16.651 -10.381  20.159  1.00  0.00     0.180 HD
ENDROOT
BRANCH   1  11
HETATM   11  C5  UNL     1      13.605 -11.866  19.398  1.00  0.00     0.166 C 
BRANCH  11  12
HETATM   12  C4  UNL     1      12.790 -11.125  20.400  1.00  0.00     0.256 C 
BRANCH  12  13
HETATM   13  N1  UNL     1      13.340 -11.118  21.721  1.00  0.00    -0.077 N 
HETATM   14  C1  UNL     1      12.286 -11.228  22.732  1.00  0.00     0.271 C 
HETATM   15  C2  UNL     1      14.001  -9.845  21.939  1.00  0.00     0.271 C 
HETATM   16  C3  UNL     1      14.287 -12.179  21.964  1.00  0.00     0.271 C 
ENDBRANCH  12  13
ENDBRANCH  11  12
ENDBRANCH   1  11
BRANCH   9  17
HETATM   17  C8  UNL     1      17.637 -12.236  19.662  1.00  0.00     0.172 C 
HETATM   18 BR1  UNL     1      16.637 -13.877  19.460  1.00  0.00    -0.048 Br
HETATM   19 BR2  UNL     1      18.424 -12.215  21.411  1.00  0.00    -0.048 Br
BRANCH  17  20
HETATM   20  C9  UNL     1      18.687 -12.102  18.560  1.00  0.00     0.141 C 
HETATM   21 BR3  UNL     1      20.408 -12.395  19.390  1.00  0.00    -0.092 Br
ENDBRANCH  17  20
ENDBRANCH   9  17
TORSDOF 5
ENDMDL
MODEL 3
REMARK VINA RESULT: -6.018774184      0.993      1.562
REMARK  5 active torsions:
REMARK  status: ('A' for Active; 'I' for Inactive)
REMARK    1  A    between atoms: N1_2  and  C4_5 
REMARK    2  A    between atoms: C4_5  and  C5_6 
REMARK    3  A    between atoms: C5_6  and  N2_7 
REMARK       I    between atoms: N2_7  and  C6_9 
REMARK       I    between atoms: C6_9  and  N5_15 
REMARK       I    between atoms: N3_10  and  C7_12 
REMARK    4  A    between atoms: N5_15  and  C8_17 
REMARK    5  A    between atoms: C8_17  and  C9_20 
ROOT
HETATM    1  N2  UNL     1      15.967 -10.774  19.642  1.00  0.00    -0.225 N 
ATOM      2  H2  UNL     1      15.893  -9.832  19.257  1.00  0.00     0.177 HD
HETATM    3  C6  UNL     1      17.181 -11.488  19.441  1.00  0.00     0.679 C 
HETATM    4  N3  UNL     1      17.625 -11.874  18.315  1.00  0.00    -0.144 N 
ATOM      5  H3  UNL     1      18.511 -12.379  18.309  1.00  0.00     0.188 HD
HETATM    6  C7  UNL     1      16.992 -11.661  17.070  1.00  0.00     0.346 C 
HETATM    7  N4  UNL     1      16.770 -10.378  16.509  1.00  0.00    -0.039 NA
HETATM    8  O1  UNL     1      16.588 -12.657  16.393  1.00  0.00    -0.250 OA
HETATM    9  N5  UNL     1      17.946 -11.786  20.603  1.00  0.00    -0.197 N 
ATOM     10  H5  UNL     1      18.175 -11.040  21.260  1.00  0.00     0.180 HD
ENDROOT
BRANCH   1  11
HETATM   11  C5  UNL     1      14.831 -11.307  20.359  1.00  0.00     0.166 C 
BRANCH  11  12
HETATM   12  C4  UNL     1      14.492 -10.394  21.487  1.00  0.00     0.256 C 
BRANCH  12  13
HETATM   13  N1  UNL     1      13.094 -10.306  21.775  1.00  0.00    -0.077 N 
HETATM   14  C1  UNL     1      12.483 -11.636  21.839  1.00  0.00     0.271 C 
HETATM   15  C2  UNL     1      12.443  -9.596  20.689  1.00  0.00     0.271 C 
HETATM   16  C3  UNL     1      12.795  -9.629  23.014  1.00  0.00     0.271 C 
ENDBRANCH  12  13
ENDBRANCH  11  12
ENDBRANCH   1  11
BRANCH   9  17
HETATM   17  C8  UNL     1      18.409 -13.151  20.868  1.00  0.00     0.172 C 
HETATM   18 BR1  UNL     1      16.952 -14.327  20.392  1.00  0.00    -0.048 Br
HETATM   19 BR2  UNL     1      18.826 -13.417  22.721  1.00  0.00    -0.048 Br
BRANCH  17  20
HETATM   20  C9  UNL     1      19.620 -13.396  19.969  1.00  0.00     0.141 C 
HETATM   21 BR3  UNL     1      20.857 -11.945  20.289  1.00  0.00    -0.092 Br
ENDBRANCH  17  20
ENDBRANCH   9  17
TORSDOF 5
ENDMDL
MODEL 4
REMARK VINA RESULT: -5.971037277      1.305      1.470
REMARK  5 active torsions:
REMARK  status: ('A' for Active; 'I' for Inactive)
REMARK    1  A    between atoms: N1_2  and  C4_5 
REMARK    2  A    between atoms: C4_5  and  C5_6 
REMARK    3  A    between atoms: C5_6  and  N2_7 
REMARK       I    between atoms: N2_7  and  C6_9 
REMARK       I    between atoms: C6_9  and  N5_15 
REMARK       I    between atoms: N3_10  and  C7_12 
REMARK    4  A    between atoms: N5_15  and  C8_17 
REMARK    5  A    between atoms: C8_17  and  C9_20 
ROOT
HETATM    1  N2  UNL     1      14.966 -10.837  19.572  1.00  0.00    -0.225 N 
ATOM      2  H2  UNL     1      14.535  -9.991  19.199  1.00  0.00     0.177 HD
HETATM    3  C6  UNL     1      16.223 -11.240  19.039  1.00  0.00     0.679 C 
HETATM    4  N3  UNL     1      16.422 -11.622  17.844  1.00  0.00    -0.144 N 
ATOM      5  H3  UNL     1      17.374 -11.886  17.589  1.00  0.00     0.188 HD
HETATM    6  C7  UNL     1      15.434 -11.710  16.838  1.00  0.00     0.346 C 
HETATM    7  N4  UNL     1      14.725 -10.593  16.331  1.00  0.00    -0.039 NA
HETATM    8  O1  UNL     1      15.144 -12.843  16.342  1.00  0.00    -0.250 OA
HETATM    9  N5  UNL     1      17.333 -11.210  19.929  1.00  0.00    -0.197 N 
ATOM     10  H5  UNL     1      17.524 -10.364  20.466  1.00  0.00     0.180 HD
ENDROOT
BRANCH   1  11
HETATM   11  C5  UNL     1      14.266 -11.557  20.610  1.00  0.00     0.166 C 
BRANCH  11  12
HETATM   12  C4  UNL     1      14.058 -10.655  21.777  1.00  0.00     0.256 C 
BRANCH  12  13
HETATM   13  N1  UNL     1      12.688 -10.345  22.048  1.00  0.00    -0.077 N 
HETATM   14  C1  UNL     1      11.871 -11.560  22.089  1.00  0.00     0.271 C 
HETATM   15  C2  UNL     1      12.176  -9.531  20.961  1.00  0.00     0.271 C 
HETATM   16  C3  UNL     1      12.484  -9.641  23.290  1.00  0.00     0.271 C 
ENDBRANCH  12  13
ENDBRANCH  11  12
ENDBRANCH   1  11
BRANCH   9  17
HETATM   17  C8  UNL     1      18.205 -12.377  20.084  1.00  0.00     0.172 C 
HETATM   18 BR1  UNL     1      19.503 -12.285  18.656  1.00  0.00    -0.048 Br
HETATM   19 BR2  UNL     1      17.233 -14.022  19.918  1.00  0.00    -0.048 Br
BRANCH  17  20
HETATM   20  C9  UNL     1      18.886 -12.249  21.446  1.00  0.00     0.141 C 
HETATM   21 BR3  UNL     1      20.609 -13.114  21.291  1.00  0.00    -0.092 Br
ENDBRANCH  17  20
ENDBRANCH   9  17
TORSDOF 5
ENDMDL
MODEL 5
REMARK VINA RESULT: -5.945701770      1.099      1.402
REMARK  5 active torsions:
REMARK  status: ('A' for Active; 'I' for Inactive)
REMARK    1  A    between atoms: N1_2  and  C4_5 
REMARK    2  A    between atoms: C4_5  and  C5_6 
REMARK    3  A    between atoms: C5_6  and  N2_7 
REMARK       I    between atoms: N2_7  and  C6_9 
REMARK       I    between atoms: C6_9  and  N5_15 
REMARK       I    between atoms: N3_10  and  C7_12 
REMARK    4  A    between atoms: N5_15  and  C8_17 
REMARK    5  A    between atoms: C8_17  and  C9_20 
ROOT
HETATM    1  N2  UNL     1      16.333 -10.712  20.257  1.00  0.00    -0.225 N 
ATOM      2  H2  UNL     1      16.295  -9.788  19.827  1.00  0.00     0.177 HD
HETATM    3  C6  UNL     1      17.446 -11.546  19.956  1.00  0.00     0.679 C 
HETATM    4  N3  UNL     1      17.710 -12.029  18.811  1.00  0.00    -0.144 N 
ATOM      5  H3  UNL     1      18.541 -12.615  18.729  1.00  0.00     0.188 HD
HETATM    6  C7  UNL     1      16.947 -11.819  17.640  1.00  0.00     0.346 C 
HETATM    7  N4  UNL     1      16.769 -10.552  17.032  1.00  0.00    -0.039 NA
HETATM    8  O1  UNL     1      16.376 -12.806  17.079  1.00  0.00    -0.250 OA
HETATM    9  N5  UNL     1      18.321 -11.857  21.034  1.00  0.00    -0.197 N 
ATOM     10  H5  UNL     1      18.695 -11.103  21.612  1.00  0.00     0.180 HD
ENDROOT
BRANCH   1  11
HETATM   11  C5  UNL     1      15.255 -11.099  21.137  1.00  0.00     0.166 C 
BRANCH  11  12
HETATM   12  C4  UNL     1      14.069 -11.481  20.319  1.00  0.00     0.256 C 
BRANCH  12  13
HETATM   13  N1  UNL     1      13.192 -12.417  20.952  1.00  0.00    -0.077 N 
HETATM   14  C1  UNL     1      13.904 -13.214  21.953  1.00  0.00     0.271 C 
HETATM   15  C2  UNL     1      12.701 -13.342  19.948  1.00  0.00     0.271 C 
HETATM   16  C3  UNL     1      12.062 -11.805  21.609  1.00  0.00     0.271 C 
ENDBRANCH  12  13
ENDBRANCH  11  12
ENDBRANCH   1  11
BRANCH   9  17
HETATM   17  C8  UNL     1      18.693 -13.244  21.325  1.00  0.00     0.172 C 
HETATM   18 BR1  UNL     1      20.276 -13.617  20.280  1.00  0.00    -0.048 Br
HETATM   19 BR2  UNL     1      17.318 -14.476  20.808  1.00  0.00    -0.048 Br
BRANCH  17  20
HETATM   20  C9  UNL     1      19.000 -13.321  22.820  1.00  0.00     0.141 C 
HETATM   21 BR3  UNL     1      20.755 -14.115  22.990  1.00  0.00    -0.092 Br
ENDBRANCH  17  20
ENDBRANCH   9  17
TORSDOF 5
ENDMDL
