MODEL 1
REMARK VINA RESULT: -6.016832797      0.000      0.000
REMARK  7 active torsions:
REMARK  status: ('A' for Active; 'I' for Inactive)
REMARK    1  A    between atoms: N1_2  and  C2_6 
REMARK    2  A    between atoms: C2_6  and  C3_7 
REMARK    3  A    between atoms: C3_7  and  C4_8 
REMARK    4  A    between atoms: C4_8  and  C5_9 
REMARK    5  A    between atoms: C5_9  and  C6_10 
REMARK    6  A    between atoms: C6_10  and  N3_11 
REMARK    7  A    between atoms: C9_16  and  O1_17 
ROOT
HETATM    1  N3  UNL     1      15.907 -11.617  21.247  1.00  0.00    -0.394 N 
ATOM      2  H3  UNL     1      15.384 -12.059  22.003  1.00  0.00     0.159 HD
HETATM    3  C7  UNL     1      16.889 -12.233  20.746  1.00  0.00     0.015 C 
HETATM    4  C8  UNL     1      17.390 -13.567  21.137  1.00  0.00     0.134 C 
HETATM    5 BR1  UNL     1      18.045 -13.583  22.970  1.00  0.00    -0.082 Br
HETATM    6  C9  UNL     1      18.636 -13.797  20.264  1.00  0.00     0.154 C 
HETATM    7  C10 UNL     1      19.087 -12.360  20.095  1.00  0.00     0.108 C 
HETATM    8 BR2  UNL     1      20.464 -12.124  18.822  1.00  0.00    -0.087 Br
HETATM    9  C11 UNL     1      17.751 -11.741  19.654  1.00  0.00     0.121 C 
HETATM   10 BR3  UNL     1      17.220 -12.519  17.951  1.00  0.00    -0.084 Br
ENDROOT
BRANCH   1  11
HETATM   11  C6  UNL     1      15.494 -10.304  20.789  1.00  0.00     0.119 C 
BRANCH  11  12
HETATM   12  C5  UNL     1      14.223  -9.986  21.553  1.00  0.00     0.020 C 
BRANCH  12  13
HETATM   13  C4  UNL     1      12.997 -10.163  20.671  1.00  0.00     0.007 C 
BRANCH  13  14
HETATM   14  C3  UNL     1      12.286 -11.375  21.199  1.00  0.00     0.046 C 
BRANCH  14  15
HETATM   15  C2  UNL     1      12.519 -11.707  22.626  1.00  0.00     0.082 C 
BRANCH  15  16
HETATM   16  N1  UNL     1      11.515 -11.362  23.538  1.00  0.00    -0.318 N 
HETATM   17  C1  UNL     1      11.640 -10.130  24.265  1.00  0.00     0.176 C 
HETATM   18  N2  UNL     1      10.543 -12.086  23.746  1.00  0.00    -0.344 N 
ATOM     19  H22 UNL     1       9.812 -11.835  24.411  1.00  0.00     0.177 HD
ATOM     20  H21 UNL     1      10.454 -12.960  23.229  1.00  0.00     0.177 HD
ENDBRANCH  15  16
ENDBRANCH  14  15
ENDBRANCH  13  14
ENDBRANCH  12  13
ENDBRANCH  11  12
ENDBRANCH   1  11
BRANCH   6  21
HETATM   21  O1  UNL     1      19.600 -14.522  20.956  1.00  0.00    -0.393 OA
ATOM     22  H1  UNL     1      20.473 -14.282  20.672  1.00  0.00     0.210 HD
ENDBRANCH   6  21
TORSDOF 7
ENDMDL
MODEL 2
REMARK VINA RESULT: -5.952529204      4.375      7.028
REMARK  7 active torsions:
REMARK  status: ('A' for Active; 'I' for Inactive)
REMARK    1  A    between atoms: N1_2  and  C2_6 
REMARK    2  A    between atoms: C2_6  and  C3_7 
REMARK    3  A    between atoms: C3_7  and  C4_8 
REMARK    4  A    between atoms: C4_8  and  C5_9 
REMARK    5  A    between atoms: C5_9  and  C6_10 
REMARK    6  A    between atoms: C6_10  and  N3_11 
REMARK    7  A    between atoms: C9_16  and  O1_17 
ROOT
HETATM    1  N3  UNL     1      19.098 -12.102  19.391  1.00  0.00    -0.394 N 
ATOM      2  H3  UNL     1      19.506 -12.456  18.526  1.00  0.00     0.159 HD
HETATM    3  C7  UNL     1      17.841 -12.052  19.494  1.00  0.00     0.015 C 
HETATM    4  C8  UNL     1      16.852 -12.460  18.473  1.00  0.00     0.134 C 
HETATM    5 BR1  UNL     1      16.976 -11.365  16.869  1.00  0.00    -0.082 Br
HETATM    6  C9  UNL     1      15.482 -12.120  19.087  1.00  0.00     0.154 C 
HETATM    7  C10 UNL     1      15.884 -10.938  19.947  1.00  0.00     0.108 C 
HETATM    8 BR2  UNL     1      14.538 -10.354  21.138  1.00  0.00    -0.087 Br
HETATM    9  C11 UNL     1      17.088 -11.567  20.666  1.00  0.00     0.121 C 
HETATM   10 BR3  UNL     1      16.473 -13.058  21.756  1.00  0.00    -0.084 Br
ENDROOT
BRANCH   1  11
HETATM   11  C6  UNL     1      19.985 -11.674  20.456  1.00  0.00     0.119 C 
BRANCH  11  12
HETATM   12  C5  UNL     1      20.833 -12.886  20.792  1.00  0.00     0.020 C 
BRANCH  12  13
HETATM   13  C4  UNL     1      20.233 -13.669  21.950  1.00  0.00     0.007 C 
BRANCH  13  14
HETATM   14  C3  UNL     1      21.348 -13.861  22.935  1.00  0.00     0.046 C 
BRANCH  14  15
HETATM   15  C2  UNL     1      20.950 -14.057  24.351  1.00  0.00     0.082 C 
BRANCH  15  16
HETATM   16  N1  UNL     1      21.821 -13.577  25.336  1.00  0.00    -0.318 N 
HETATM   17  C1  UNL     1      21.263 -12.944  26.497  1.00  0.00     0.176 C 
HETATM   18  N2  UNL     1      23.042 -13.666  25.230  1.00  0.00    -0.344 N 
ATOM     19  H22 UNL     1      23.677 -13.315  25.947  1.00  0.00     0.177 HD
ATOM     20  H21 UNL     1      23.439 -14.116  24.405  1.00  0.00     0.177 HD
ENDBRANCH  15  16
ENDBRANCH  14  15
ENDBRANCH  13  14
ENDBRANCH  12  13
ENDBRANCH  11  12
ENDBRANCH   1  11
BRANCH   6  21
HETATM   21  O1  UNL     1      14.587 -11.713  18.104  1.00  0.00    -0.393 OA
ATOM     22  H1  UNL     1      13.705 -12.000  18.310  1.00  0.00     0.210 HD
ENDBRANCH   6  21
TORSDOF 7
ENDMDL
MODEL 3
REMARK VINA RESULT: -5.922753583      3.761      6.629
REMARK  7 active torsions:
REMARK  status: ('A' for Active; 'I' for Inactive)
REMARK    1  A    between atoms: N1_2  and  C2_6 
REMARK    2  A    between atoms: C2_6  and  C3_7 
REMARK    3  A    between atoms: C3_7  and  C4_8 
REMARK    4  A    between atoms: C4_8  and  C5_9 
REMARK    5  A    between atoms: C5_9  and  C6_10 
REMARK    6  A    between atoms: C6_10  and  N3_11 
REMARK    7  A    between atoms: C9_16  and  O1_17 
ROOT
HETATM    1  N3  UNL     1      17.197 -11.171  20.932  1.00  0.00    -0.394 N 
ATOM      2  H3  UNL     1      17.224 -10.165  20.763  1.00  0.00     0.159 HD
HETATM    3  C7  UNL     1      16.113 -11.790  20.744  1.00  0.00     0.015 C 
HETATM    4  C8  UNL     1      14.830 -11.211  20.291  1.00  0.00     0.134 C 
HETATM    5 BR1  UNL     1      14.122  -9.932  21.577  1.00  0.00    -0.082 Br
HETATM    6  C9  UNL     1      13.836 -12.386  20.305  1.00  0.00     0.154 C 
HETATM    7  C10 UNL     1      14.440 -13.207  21.427  1.00  0.00     0.108 C 
HETATM    8 BR2  UNL     1      13.692 -14.932  21.614  1.00  0.00    -0.087 Br
HETATM    9  C11 UNL     1      15.898 -13.236  20.942  1.00  0.00     0.121 C 
HETATM   10 BR3  UNL     1      15.987 -14.185  19.245  1.00  0.00    -0.084 Br
ENDROOT
BRANCH   1  11
HETATM   11  C6  UNL     1      18.406 -11.835  21.380  1.00  0.00     0.119 C 
BRANCH  11  12
HETATM   12  C5  UNL     1      19.439 -11.576  20.298  1.00  0.00     0.020 C 
BRANCH  12  13
HETATM   13  C4  UNL     1      20.483 -12.682  20.264  1.00  0.00     0.007 C 
BRANCH  13  14
HETATM   14  C3  UNL     1      19.798 -13.907  20.795  1.00  0.00     0.046 C 
BRANCH  14  15
HETATM   15  C2  UNL     1      20.597 -14.767  21.703  1.00  0.00     0.082 C 
BRANCH  15  16
HETATM   16  N1  UNL     1      20.983 -14.221  22.932  1.00  0.00    -0.318 N 
HETATM   17  C1  UNL     1      19.977 -14.002  23.933  1.00  0.00     0.176 C 
HETATM   18  N2  UNL     1      22.148 -13.911  23.174  1.00  0.00    -0.344 N 
ATOM     19  H22 UNL     1      22.429 -13.512  24.069  1.00  0.00     0.177 HD
ATOM     20  H21 UNL     1      22.862 -14.067  22.463  1.00  0.00     0.177 HD
ENDBRANCH  15  16
ENDBRANCH  14  15
ENDBRANCH  13  14
ENDBRANCH  12  13
ENDBRANCH  11  12
ENDBRANCH   1  11
BRANCH   6  21
HETATM   21  O1  UNL     1      12.563 -11.954  20.661  1.00  0.00    -0.393 OA
ATOM     22  H1  UNL     1      12.435 -12.014  21.600  1.00  0.00     0.210 HD
ENDBRANCH   6  21
TORSDOF 7
ENDMDL
MODEL 4
REMARK VINA RESULT: -5.921956686      2.590      3.486
REMARK  7 active torsions:
REMARK  status: ('A' for Active; 'I' for Inactive)
REMARK    1  A    between atoms: N1_2  and  C2_6 
REMARK    2  A    between atoms: C2_6  and  C3_7 
REMARK    3  A    between atoms: C3_7  and  C4_8 
REMARK    4  A    between atoms: C4_8  and  C5_9 
REMARK    5  A    between atoms: C5_9  and  C6_10 
REMARK    6  A    between atoms: C6_10  and  N3_11 
REMARK    7  A    between atoms: C9_16  and  O1_17 
ROOT
HETATM    1  N3  UNL     1      14.105 -13.385  18.484  1.00  0.00    -0.394 N 
ATOM      2  H3  UNL     1      13.469 -13.428  17.689  1.00  0.00     0.159 HD
HETATM    3  C7  UNL     1      15.190 -12.750  18.360  1.00  0.00     0.015 C 
HETATM    4  C8  UNL     1      15.665 -12.036  17.156  1.00  0.00     0.134 C 
HETATM    5 BR1  UNL     1      15.961 -13.252  15.666  1.00  0.00    -0.082 Br
HETATM    6  C9  UNL     1      17.063 -11.512  17.530  1.00  0.00     0.154 C 
HETATM    7  C10 UNL     1      17.475 -12.588  18.513  1.00  0.00     0.108 C 
HETATM    8 BR2  UNL     1      19.057 -12.197  19.471  1.00  0.00    -0.087 Br
HETATM    9  C11 UNL     1      16.222 -12.590  19.402  1.00  0.00     0.121 C 
HETATM   10 BR3  UNL     1      16.057 -10.859  20.277  1.00  0.00    -0.084 Br
ENDROOT
BRANCH   1  11
HETATM   11  C6  UNL     1      13.731 -14.055  19.715  1.00  0.00     0.119 C 
BRANCH  11  12
HETATM   12  C5  UNL     1      12.589 -13.240  20.293  1.00  0.00     0.020 C 
BRANCH  12  13
HETATM   13  C4  UNL     1      13.001 -12.568  21.593  1.00  0.00     0.007 C 
BRANCH  13  14
HETATM   14  C3  UNL     1      12.185 -11.311  21.680  1.00  0.00     0.046 C 
BRANCH  14  15
HETATM   15  C2  UNL     1      12.667 -10.276  22.627  1.00  0.00     0.082 C 
BRANCH  15  16
HETATM   16  N1  UNL     1      11.802  -9.898  23.661  1.00  0.00    -0.318 N 
HETATM   17  C1  UNL     1      12.003  -8.625  24.294  1.00  0.00     0.176 C 
HETATM   18  N2  UNL     1      10.890 -10.625  24.050  1.00  0.00    -0.344 N 
ATOM     19  H22 UNL     1      10.260 -10.349  24.803  1.00  0.00     0.177 HD
ATOM     20  H21 UNL     1      10.747 -11.529  23.600  1.00  0.00     0.177 HD
ENDBRANCH  15  16
ENDBRANCH  14  15
ENDBRANCH  13  14
ENDBRANCH  12  13
ENDBRANCH  11  12
ENDBRANCH   1  11
BRANCH   6  21
HETATM   21  O1  UNL     1      17.908 -11.524  16.425  1.00  0.00    -0.393 OA
ATOM     22  H1  UNL     1      18.702 -11.033  16.601  1.00  0.00     0.210 HD
ENDBRANCH   6  21
TORSDOF 7
ENDMDL
MODEL 5
REMARK VINA RESULT: -5.915413404      2.005      2.579
REMARK  7 active torsions:
REMARK  status: ('A' for Active; 'I' for Inactive)
REMARK    1  A    between atoms: N1_2  and  C2_6 
REMARK    2  A    between atoms: C2_6  and  C3_7 
REMARK    3  A    between atoms: C3_7  and  C4_8 
REMARK    4  A    between atoms: C4_8  and  C5_9 
REMARK    5  A    between atoms: C5_9  and  C6_10 
REMARK    6  A    between atoms: C6_10  and  N3_11 
REMARK    7  A    between atoms: C9_16  and  O1_17 
ROOT
HETATM    1  N3  UNL     1      16.604 -11.377  21.149  1.00  0.00    -0.394 N 
ATOM      2  H3  UNL     1      17.279 -10.867  21.719  1.00  0.00     0.159 HD
HETATM    3  C7  UNL     1      16.545 -12.634  21.257  1.00  0.00     0.015 C 
HETATM    4  C8  UNL     1      17.366 -13.485  22.143  1.00  0.00     0.134 C 
HETATM    5 BR1  UNL     1      19.254 -13.402  21.676  1.00  0.00    -0.082 Br
HETATM    6  C9  UNL     1      16.936 -14.928  21.820  1.00  0.00     0.154 C 
HETATM    7  C10 UNL     1      16.550 -14.750  20.365  1.00  0.00     0.108 C 
HETATM    8 BR2  UNL     1      15.668 -16.241  19.611  1.00  0.00    -0.087 Br
HETATM    9  C11 UNL     1      15.635 -13.524  20.511  1.00  0.00     0.121 C 
HETATM   10 BR3  UNL     1      14.094 -14.003  21.598  1.00  0.00    -0.084 Br
ENDROOT
BRANCH   1  11
HETATM   11  C6  UNL     1      15.749 -10.631  20.246  1.00  0.00     0.119 C 
BRANCH  11  12
HETATM   12  C5  UNL     1      14.617 -10.097  21.102  1.00  0.00     0.020 C 
BRANCH  12  13
HETATM   13  C4  UNL     1      13.271 -10.323  20.432  1.00  0.00     0.007 C 
BRANCH  13  14
HETATM   14  C3  UNL     1      12.256 -10.307  21.537  1.00  0.00     0.046 C 
BRANCH  14  15
HETATM   15  C2  UNL     1      12.728  -9.821  22.858  1.00  0.00     0.082 C 
BRANCH  15  16
HETATM   16  N1  UNL     1      11.754  -9.527  23.820  1.00  0.00    -0.318 N 
HETATM   17  C1  UNL     1      11.846  -8.286  24.535  1.00  0.00     0.176 C 
HETATM   18  N2  UNL     1      10.836 -10.303  24.079  1.00  0.00    -0.344 N 
ATOM     19  H22 UNL     1      10.127 -10.089  24.780  1.00  0.00     0.177 HD
ATOM     20  H21 UNL     1      10.770 -11.184  23.571  1.00  0.00     0.177 HD
ENDBRANCH  15  16
ENDBRANCH  14  15
ENDBRANCH  13  14
ENDBRANCH  12  13
ENDBRANCH  11  12
ENDBRANCH   1  11
BRANCH   6  21
HETATM   21  O1  UNL     1      18.013 -15.801  21.926  1.00  0.00    -0.393 OA
ATOM     22  H1  UNL     1      18.470 -15.677  22.749  1.00  0.00     0.210 HD
ENDBRANCH   6  21
TORSDOF 7
ENDMDL
