MODEL 1
REMARK VINA RESULT: -5.608614428      0.000      0.000
REMARK  4 active torsions:
REMARK  status: ('A' for Active; 'I' for Inactive)
REMARK    1  A    between atoms: C3_3  and  C4_4 
REMARK    2  A    between atoms: C4_4  and  C6_6 
REMARK    3  A    between atoms: C4_4  and  C7_9 
REMARK    4  A    between atoms: C10_15  and  C12_17 
ROOT
HETATM    1  C7  UNL     1     -25.357  48.359  47.489  1.00  0.00     0.193 C 
HETATM    2  O2  UNL     1     -25.244  47.526  48.639  1.00  0.00    -0.353 OA
HETATM    3  C8  UNL     1     -23.916  47.040  48.569  1.00  0.00     0.427 C 
HETATM    4  N2  UNL     1     -23.833  46.736  47.186  1.00  0.00     0.053 N 
HETATM    5  C9  UNL     1     -22.643  46.218  46.681  1.00  0.00     0.299 C 
HETATM    6 CL1  UNL     1     -25.132  45.600  46.824  1.00  0.00     0.121 Cl
HETATM    7  C10 UNL     1     -24.276  48.011  46.576  1.00  0.00     0.259 C 
HETATM    8  C11 UNL     1     -24.831  47.547  45.211  1.00  0.00     0.064 C 
ENDROOT
BRANCH   1   9
HETATM    9  C4  UNL     1     -25.618  49.707  47.984  1.00  0.00     0.081 C 
HETATM   10  C5  UNL     1     -26.758  49.480  49.031  1.00  0.00     0.032 C 
BRANCH   9  11
HETATM   11  C3  UNL     1     -24.577  50.381  48.765  1.00  0.00    -0.010 C 
HETATM   12  C2  UNL     1     -24.640  50.703  50.049  1.00  0.00    -0.034 C 
HETATM   13  C1  UNL     1     -23.550  51.381  50.761  1.00  0.00     0.036 C 
ENDBRANCH   9  11
BRANCH   9  14
HETATM   14  C6  UNL     1     -26.245  50.665  47.057  1.00  0.00     0.245 C 
HETATM   15  N1  UNL     1     -26.052  52.065  47.096  1.00  0.00    -0.061 NA
HETATM   16  O1  UNL     1     -27.008  50.226  46.160  1.00  0.00    -0.276 OA
ENDBRANCH   9  14
ENDBRANCH   1   9
BRANCH   7  17
HETATM   17  C12 UNL     1     -23.180  48.924  46.355  1.00  0.00     0.215 C 
HETATM   18  O3  UNL     1     -22.073  48.916  46.996  1.00  0.00    -0.646 OA
HETATM   19  O4  UNL     1     -23.273  49.908  45.384  1.00  0.00    -0.646 OA
ENDBRANCH   7  17
TORSDOF 4
ENDMDL
MODEL 2
REMARK VINA RESULT: -5.538000237      2.997      4.884
REMARK  4 active torsions:
REMARK  status: ('A' for Active; 'I' for Inactive)
REMARK    1  A    between atoms: C3_3  and  C4_4 
REMARK    2  A    between atoms: C4_4  and  C6_6 
REMARK    3  A    between atoms: C4_4  and  C7_9 
REMARK    4  A    between atoms: C10_15  and  C12_17 
ROOT
HETATM    1  C7  UNL     1     -21.932  47.696  49.432  1.00  0.00     0.193 C 
HETATM    2  O2  UNL     1     -22.255  48.639  48.414  1.00  0.00    -0.353 OA
HETATM    3  C8  UNL     1     -23.335  48.033  47.730  1.00  0.00     0.427 C 
HETATM    4  N2  UNL     1     -22.862  46.698  47.646  1.00  0.00     0.053 N 
HETATM    5  C9  UNL     1     -23.658  45.740  47.024  1.00  0.00     0.299 C 
HETATM    6 CL1  UNL     1     -21.305  46.750  46.820  1.00  0.00     0.121 Cl
HETATM    7  C10 UNL     1     -22.522  46.417  49.059  1.00  0.00     0.259 C 
HETATM    8  C11 UNL     1     -21.439  45.324  48.925  1.00  0.00     0.064 C 
ENDROOT
BRANCH   1   9
HETATM    9  C4  UNL     1     -22.158  48.371  50.705  1.00  0.00     0.081 C 
HETATM   10  C5  UNL     1     -20.915  49.313  50.827  1.00  0.00     0.032 C 
BRANCH   9  11
HETATM   11  C3  UNL     1     -23.290  49.295  50.816  1.00  0.00    -0.010 C 
HETATM   12  C2  UNL     1     -23.221  50.610  50.967  1.00  0.00    -0.034 C 
HETATM   13  C1  UNL     1     -24.407  51.469  51.073  1.00  0.00     0.036 C 
ENDBRANCH   9  11
BRANCH   9  14
HETATM   14  C6  UNL     1     -22.049  47.565  51.934  1.00  0.00     0.245 C 
HETATM   15  N1  UNL     1     -20.954  46.728  52.250  1.00  0.00    -0.061 NA
HETATM   16  O1  UNL     1     -22.983  47.614  52.772  1.00  0.00    -0.276 OA
ENDBRANCH   9  14
ENDBRANCH   1   9
BRANCH   7  17
HETATM   17  C12 UNL     1     -23.642  45.884  49.799  1.00  0.00     0.215 C 
HETATM   18  O3  UNL     1     -24.779  46.456  49.927  1.00  0.00    -0.646 OA
HETATM   19  O4  UNL     1     -23.540  44.659  50.438  1.00  0.00    -0.646 OA
ENDBRANCH   7  17
TORSDOF 4
ENDMDL
MODEL 3
REMARK VINA RESULT: -5.468457603      1.288      1.305
REMARK  4 active torsions:
REMARK  status: ('A' for Active; 'I' for Inactive)
REMARK    1  A    between atoms: C3_3  and  C4_4 
REMARK    2  A    between atoms: C4_4  and  C6_6 
REMARK    3  A    between atoms: C4_4  and  C7_9 
REMARK    4  A    between atoms: C10_15  and  C12_17 
ROOT
HETATM    1  C7  UNL     1     -24.957  47.854  48.230  1.00  0.00     0.193 C 
HETATM    2  O2  UNL     1     -24.914  47.462  49.598  1.00  0.00    -0.353 OA
HETATM    3  C8  UNL     1     -23.593  46.982  49.766  1.00  0.00     0.427 C 
HETATM    4  N2  UNL     1     -23.448  46.225  48.575  1.00  0.00     0.053 N 
HETATM    5  C9  UNL     1     -22.245  45.567  48.338  1.00  0.00     0.299 C 
HETATM    6 CL1  UNL     1     -24.748  45.034  48.555  1.00  0.00     0.121 Cl
HETATM    7  C10 UNL     1     -23.840  47.216  47.546  1.00  0.00     0.259 C 
HETATM    8  C11 UNL     1     -24.335  46.315  46.394  1.00  0.00     0.064 C 
ENDROOT
BRANCH   1   9
HETATM    9  C4  UNL     1     -25.219  49.290  48.222  1.00  0.00     0.081 C 
HETATM   10  C5  UNL     1     -26.600  49.397  48.949  1.00  0.00     0.032 C 
BRANCH   9  11
HETATM   11  C3  UNL     1     -24.353  50.164  49.019  1.00  0.00    -0.010 C 
HETATM   12  C2  UNL     1     -24.737  50.973  49.996  1.00  0.00    -0.034 C 
HETATM   13  C1  UNL     1     -23.804  51.821  50.748  1.00  0.00     0.036 C 
ENDBRANCH   9  11
BRANCH   9  14
HETATM   14  C6  UNL     1     -25.510  49.924  46.924  1.00  0.00     0.245 C 
HETATM   15  N1  UNL     1     -24.550  50.572  46.114  1.00  0.00    -0.061 NA
HETATM   16  O1  UNL     1     -26.689  49.896  46.491  1.00  0.00    -0.276 OA
ENDBRANCH   9  14
ENDBRANCH   1   9
BRANCH   7  17
HETATM   17  C12 UNL     1     -22.719  48.000  47.085  1.00  0.00     0.215 C 
HETATM   18  O3  UNL     1     -21.978  48.735  47.825  1.00  0.00    -0.646 OA
HETATM   19  O4  UNL     1     -22.365  47.995  45.745  1.00  0.00    -0.646 OA
ENDBRANCH   7  17
TORSDOF 4
ENDMDL
MODEL 4
REMARK VINA RESULT: -5.384079457      2.874      4.578
REMARK  4 active torsions:
REMARK  status: ('A' for Active; 'I' for Inactive)
REMARK    1  A    between atoms: C3_3  and  C4_4 
REMARK    2  A    between atoms: C4_4  and  C6_6 
REMARK    3  A    between atoms: C4_4  and  C7_9 
REMARK    4  A    between atoms: C10_15  and  C12_17 
ROOT
HETATM    1  C7  UNL     1     -23.317  46.104  49.232  1.00  0.00     0.193 C 
HETATM    2  O2  UNL     1     -24.525  45.477  49.651  1.00  0.00    -0.353 OA
HETATM    3  C8  UNL     1     -24.465  45.549  51.063  1.00  0.00     0.427 C 
HETATM    4  N2  UNL     1     -23.109  45.193  51.275  1.00  0.00     0.053 N 
HETATM    5  C9  UNL     1     -22.621  45.147  52.578  1.00  0.00     0.299 C 
HETATM    6 CL1  UNL     1     -22.864  43.613  50.533  1.00  0.00     0.121 Cl
HETATM    7  C10 UNL     1     -22.411  46.137  50.372  1.00  0.00     0.259 C 
HETATM    8  C11 UNL     1     -21.099  45.385  50.061  1.00  0.00     0.064 C 
ENDROOT
BRANCH   1   9
HETATM    9  C4  UNL     1     -23.711  47.275  48.455  1.00  0.00     0.081 C 
HETATM   10  C5  UNL     1     -24.445  46.647  47.224  1.00  0.00     0.032 C 
BRANCH   9  11
HETATM   11  C3  UNL     1     -24.715  48.183  49.016  1.00  0.00    -0.010 C 
HETATM   12  C2  UNL     1     -25.752  48.703  48.374  1.00  0.00    -0.034 C 
HETATM   13  C1  UNL     1     -26.715  49.610  49.010  1.00  0.00     0.036 C 
ENDBRANCH   9  11
BRANCH   9  14
HETATM   14  C6  UNL     1     -22.642  48.053  47.804  1.00  0.00     0.245 C 
HETATM   15  N1  UNL     1     -21.827  47.575  46.752  1.00  0.00    -0.061 NA
HETATM   16  O1  UNL     1     -22.426  49.227  48.196  1.00  0.00    -0.276 OA
ENDBRANCH   9  14
ENDBRANCH   1   9
BRANCH   7  17
HETATM   17  C12 UNL     1     -22.097  47.388  51.022  1.00  0.00     0.215 C 
HETATM   18  O3  UNL     1     -22.901  48.061  51.754  1.00  0.00    -0.646 OA
HETATM   19  O4  UNL     1     -20.839  47.953  50.881  1.00  0.00    -0.646 OA
ENDBRANCH   7  17
TORSDOF 4
ENDMDL
MODEL 5
REMARK VINA RESULT: -5.357367651      7.053      8.896
REMARK  4 active torsions:
REMARK  status: ('A' for Active; 'I' for Inactive)
REMARK    1  A    between atoms: C3_3  and  C4_4 
REMARK    2  A    between atoms: C4_4  and  C6_6 
REMARK    3  A    between atoms: C4_4  and  C7_9 
REMARK    4  A    between atoms: C10_15  and  C12_17 
ROOT
HETATM    1  C7  UNL     1     -30.479  52.081  43.303  1.00  0.00     0.193 C 
HETATM    2  O2  UNL     1     -29.791  53.229  43.791  1.00  0.00    -0.353 OA
HETATM    3  C8  UNL     1     -28.601  53.255  43.024  1.00  0.00     0.427 C 
HETATM    4  N2  UNL     1     -28.255  51.880  43.052  1.00  0.00     0.053 N 
HETATM    5  C9  UNL     1     -27.106  51.462  42.386  1.00  0.00     0.299 C 
HETATM    6 CL1  UNL     1     -28.117  51.413  44.747  1.00  0.00     0.121 Cl
HETATM    7  C10 UNL     1     -29.514  51.249  42.596  1.00  0.00     0.259 C 
HETATM    8  C11 UNL     1     -29.425  49.843  43.229  1.00  0.00     0.064 C 
ENDROOT
BRANCH   1   9
HETATM    9  C4  UNL     1     -31.730  52.565  42.729  1.00  0.00     0.081 C 
HETATM   10  C5  UNL     1     -32.610  52.842  43.994  1.00  0.00     0.032 C 
BRANCH   9  11
HETATM   11  C3  UNL     1     -31.729  53.855  42.034  1.00  0.00    -0.010 C 
HETATM   12  C2  UNL     1     -32.237  54.994  42.486  1.00  0.00    -0.034 C 
HETATM   13  C1  UNL     1     -32.197  56.247  41.724  1.00  0.00     0.036 C 
ENDBRANCH   9  11
BRANCH   9  14
HETATM   14  C6  UNL     1     -32.560  51.599  41.989  1.00  0.00     0.245 C 
HETATM   15  N1  UNL     1     -32.988  50.352  42.499  1.00  0.00    -0.061 NA
HETATM   16  O1  UNL     1     -32.924  51.887  40.822  1.00  0.00    -0.276 OA
ENDBRANCH   9  14
ENDBRANCH   1   9
BRANCH   7  17
HETATM   17  C12 UNL     1     -29.574  51.118  41.159  1.00  0.00     0.215 C 
HETATM   18  O3  UNL     1     -29.431  52.077  40.325  1.00  0.00    -0.646 OA
HETATM   19  O4  UNL     1     -29.798  49.880  40.578  1.00  0.00    -0.646 OA
ENDBRANCH   7  17
TORSDOF 4
ENDMDL
