MODEL 1
REMARK VINA RESULT: -5.207806957      0.000      0.000
REMARK  3 active torsions:
REMARK  status: ('A' for Active; 'I' for Inactive)
REMARK    1  A    between atoms: C2_2  and  C3_3 
REMARK    2  A    between atoms: C3_3  and  C4_4 
REMARK    3  A    between atoms: C4_4  and  C5_5 
ROOT
HETATM    1  C5  UNL     1      -1.808  29.376  -8.825  1.00  0.00     0.192 C 
HETATM    2  N1  UNL     1      -3.166  28.853  -8.825  1.00  0.00    -0.070 N 
ATOM      3  H11 UNL     1      -3.783  29.221  -8.102  1.00  0.00     0.277 HD
ATOM      4  H12 UNL     1      -3.266  27.880  -8.534  1.00  0.00     0.277 HD
HETATM    5  C6  UNL     1      -3.556  29.147 -10.207  1.00  0.00     0.239 C 
HETATM    6  C7  UNL     1      -3.230  30.606 -10.295  1.00  0.00     0.044 C 
HETATM    7  C8  UNL     1      -3.009  31.102 -11.685  1.00  0.00     0.239 C 
HETATM    8  N2  UNL     1      -1.710  30.573 -12.017  1.00  0.00    -0.074 N 
ATOM      9  H21 UNL     1      -1.270  31.064 -12.795  1.00  0.00     0.277 HD
ATOM     10  H22 UNL     1      -1.757  29.651 -12.448  1.00  0.00     0.277 HD
HETATM   11  C9  UNL     1      -0.914  30.591 -10.825  1.00  0.00     0.239 C 
HETATM   12  C10 UNL     1      -1.862  30.650  -9.646  1.00  0.00     0.049 C 
ENDROOT
BRANCH   1  13
HETATM   13  C4  UNL     1      -1.299  29.621  -7.435  1.00  0.00     0.037 C 
BRANCH  13  14
HETATM   14  C3  UNL     1      -2.363  29.162  -6.471  1.00  0.00     0.028 C 
BRANCH  14  15
HETATM   15  C2  UNL     1      -2.326  29.965  -5.218  1.00  0.00    -0.037 C 
HETATM   16  C1  UNL     1      -3.356  30.779  -4.949  1.00  0.00     0.007 C 
ENDBRANCH  14  15
ENDBRANCH  13  14
ENDBRANCH   1  13
TORSDOF 3
ENDMDL
MODEL 2
REMARK VINA RESULT: -5.117438574      2.184      4.974
REMARK  3 active torsions:
REMARK  status: ('A' for Active; 'I' for Inactive)
REMARK    1  A    between atoms: C2_2  and  C3_3 
REMARK    2  A    between atoms: C3_3  and  C4_4 
REMARK    3  A    between atoms: C4_4  and  C5_5 
ROOT
HETATM    1  C5  UNL     1      -3.811  29.810 -11.314  1.00  0.00     0.192 C 
HETATM    2  N1  UNL     1      -3.664  28.465 -10.777  1.00  0.00    -0.070 N 
ATOM      3  H11 UNL     1      -3.042  27.846 -11.297  1.00  0.00     0.277 HD
ATOM      4  H12 UNL     1      -4.480  27.859 -10.868  1.00  0.00     0.277 HD
HETATM    5  C6  UNL     1      -3.252  28.777  -9.406  1.00  0.00     0.239 C 
HETATM    6  C7  UNL     1      -2.101  29.702  -9.653  1.00  0.00     0.044 C 
HETATM    7  C8  UNL     1      -1.785  30.609  -8.511  1.00  0.00     0.239 C 
HETATM    8  N2  UNL     1      -2.850  31.578  -8.560  1.00  0.00    -0.074 N 
ATOM      9  H21 UNL     1      -2.627  32.437  -8.059  1.00  0.00     0.277 HD
ATOM     10  H22 UNL     1      -3.661  31.305  -8.005  1.00  0.00     0.277 HD
HETATM   11  C9  UNL     1      -3.171  31.804  -9.939  1.00  0.00     0.239 C 
HETATM   12  C10 UNL     1      -2.667  30.612 -10.724  1.00  0.00     0.049 C 
ENDROOT
BRANCH   1  13
HETATM   13  C4  UNL     1      -3.795  29.822 -12.814  1.00  0.00     0.037 C 
BRANCH  13  14
HETATM   14  C3  UNL     1      -3.214  28.510 -13.276  1.00  0.00     0.028 C 
BRANCH  14  15
HETATM   15  C2  UNL     1      -1.974  28.731 -14.071  1.00  0.00    -0.037 C 
HETATM   16  C1  UNL     1      -0.986  29.454 -13.527  1.00  0.00     0.007 C 
ENDBRANCH  14  15
ENDBRANCH  13  14
ENDBRANCH   1  13
TORSDOF 3
ENDMDL
MODEL 3
REMARK VINA RESULT: -5.008397386      2.688      5.275
REMARK  3 active torsions:
REMARK  status: ('A' for Active; 'I' for Inactive)
REMARK    1  A    between atoms: C2_2  and  C3_3 
REMARK    2  A    between atoms: C3_3  and  C4_4 
REMARK    3  A    between atoms: C4_4  and  C5_5 
ROOT
HETATM    1  C5  UNL     1      -1.575  29.897 -12.151  1.00  0.00     0.192 C 
HETATM    2  N1  UNL     1      -0.431  30.185 -11.298  1.00  0.00    -0.070 N 
ATOM      3  H11 UNL     1       0.218  30.888 -11.650  1.00  0.00     0.277 HD
ATOM      4  H12 UNL     1       0.271  29.447 -11.235  1.00  0.00     0.277 HD
HETATM    5  C6  UNL     1      -1.119  30.520 -10.048  1.00  0.00     0.239 C 
HETATM    6  C7  UNL     1      -2.085  31.562 -10.520  1.00  0.00     0.044 C 
HETATM    7  C8  UNL     1      -3.276  31.738  -9.639  1.00  0.00     0.239 C 
HETATM    8  N2  UNL     1      -4.068  30.570  -9.925  1.00  0.00    -0.074 N 
ATOM      9  H21 UNL     1      -5.045  30.678  -9.652  1.00  0.00     0.277 HD
ATOM     10  H22 UNL     1      -3.846  29.782  -9.317  1.00  0.00     0.277 HD
HETATM   11  C9  UNL     1      -3.908  30.263 -11.315  1.00  0.00     0.239 C 
HETATM   12  C10 UNL     1      -2.628  30.924 -11.782  1.00  0.00     0.049 C 
ENDROOT
BRANCH   1  13
HETATM   13  C4  UNL     1      -1.219  29.953 -13.608  1.00  0.00     0.037 C 
BRANCH  13  14
HETATM   14  C3  UNL     1      -1.497  28.594 -14.199  1.00  0.00     0.028 C 
BRANCH  14  15
HETATM   15  C2  UNL     1      -2.888  28.159 -13.895  1.00  0.00    -0.037 C 
HETATM   16  C1  UNL     1      -3.104  26.871 -13.591  1.00  0.00     0.007 C 
ENDBRANCH  14  15
ENDBRANCH  13  14
ENDBRANCH   1  13
TORSDOF 3
ENDMDL
MODEL 4
REMARK VINA RESULT: -4.940629122      2.138      5.051
REMARK  3 active torsions:
REMARK  status: ('A' for Active; 'I' for Inactive)
REMARK    1  A    between atoms: C2_2  and  C3_3 
REMARK    2  A    between atoms: C3_3  and  C4_4 
REMARK    3  A    between atoms: C4_4  and  C5_5 
ROOT
HETATM    1  C5  UNL     1      -2.170  30.745 -11.716  1.00  0.00     0.192 C 
HETATM    2  N1  UNL     1      -3.577  30.417 -11.893  1.00  0.00    -0.070 N 
ATOM      3  H11 UNL     1      -3.775  29.642 -12.526  1.00  0.00     0.277 HD
ATOM      4  H12 UNL     1      -4.128  31.096 -12.418  1.00  0.00     0.277 HD
HETATM    5  C6  UNL     1      -3.974  30.217 -10.497  1.00  0.00     0.239 C 
HETATM    6  C7  UNL     1      -2.943  29.231 -10.042  1.00  0.00     0.044 C 
HETATM    7  C8  UNL     1      -2.726  29.208  -8.566  1.00  0.00     0.239 C 
HETATM    8  N2  UNL     1      -1.981  30.418  -8.327  1.00  0.00    -0.074 N 
ATOM      9  H21 UNL     1      -1.484  30.408  -7.437  1.00  0.00     0.277 HD
ATOM     10  H22 UNL     1      -2.581  31.221  -8.137  1.00  0.00     0.277 HD
HETATM   11  C9  UNL     1      -1.113  30.625  -9.449  1.00  0.00     0.239 C 
HETATM   12  C10 UNL     1      -1.675  29.833 -10.611  1.00  0.00     0.049 C 
ENDROOT
BRANCH   1  13
HETATM   13  C4  UNL     1      -1.387  30.571 -12.985  1.00  0.00     0.037 C 
BRANCH  13  14
HETATM   14  C3  UNL     1      -1.104  29.099 -13.149  1.00  0.00     0.028 C 
BRANCH  14  15
HETATM   15  C2  UNL     1      -2.018  28.493 -14.156  1.00  0.00    -0.037 C 
HETATM   16  C1  UNL     1      -2.769  27.445 -13.789  1.00  0.00     0.007 C 
ENDBRANCH  14  15
ENDBRANCH  13  14
ENDBRANCH   1  13
TORSDOF 3
ENDMDL
MODEL 5
REMARK VINA RESULT: -4.856932510      2.269      5.248
REMARK  3 active torsions:
REMARK  status: ('A' for Active; 'I' for Inactive)
REMARK    1  A    between atoms: C2_2  and  C3_3 
REMARK    2  A    between atoms: C3_3  and  C4_4 
REMARK    3  A    between atoms: C4_4  and  C5_5 
ROOT
HETATM    1  C5  UNL     1      -2.541  29.598 -11.870  1.00  0.00     0.192 C 
HETATM    2  N1  UNL     1      -1.762  30.773 -12.228  1.00  0.00    -0.070 N 
ATOM      3  H11 UNL     1      -2.220  31.435 -12.854  1.00  0.00     0.277 HD
ATOM      4  H12 UNL     1      -0.968  30.608 -12.848  1.00  0.00     0.277 HD
HETATM    5  C6  UNL     1      -1.432  31.282 -10.893  1.00  0.00     0.239 C 
HETATM    6  C7  UNL     1      -2.790  31.346 -10.266  1.00  0.00     0.044 C 
HETATM    7  C8  UNL     1      -2.779  31.317  -8.774  1.00  0.00     0.239 C 
HETATM    8  N2  UNL     1      -2.473  29.940  -8.478  1.00  0.00    -0.074 N 
ATOM      9  H21 UNL     1      -2.729  29.673  -7.527  1.00  0.00     0.277 HD
ATOM     10  H22 UNL     1      -1.471  29.765  -8.401  1.00  0.00     0.277 HD
HETATM   11  C9  UNL     1      -3.106  29.128  -9.475  1.00  0.00     0.239 C 
HETATM   12  C10 UNL     1      -3.378  30.011 -10.675  1.00  0.00     0.049 C 
ENDROOT
BRANCH   1  13
HETATM   13  C4  UNL     1      -3.387  29.113 -13.011  1.00  0.00     0.037 C 
BRANCH  13  14
HETATM   14  C3  UNL     1      -2.504  28.296 -13.919  1.00  0.00     0.028 C 
BRANCH  14  15
HETATM   15  C2  UNL     1      -2.896  26.860 -13.886  1.00  0.00    -0.037 C 
HETATM   16  C1  UNL     1      -3.614  26.416 -12.845  1.00  0.00     0.007 C 
ENDBRANCH  14  15
ENDBRANCH  13  14
ENDBRANCH   1  13
TORSDOF 3
ENDMDL
