MODEL 1
REMARK VINA RESULT: -7.221273583      0.000      0.000
REMARK  18 active torsions:
REMARK  status: ('A' for Active; 'I' for Inactive)
REMARK    1  A    between atoms: C2_2  and  C3_3 
REMARK    2  A    between atoms: C3_3  and  N1_4 
REMARK       I    between atoms: N1_4  and  C4_6 
REMARK       I    between atoms: C4_6  and  N2_8 
REMARK    3  A    between atoms: N2_8  and  C5_10 
REMARK    4  A    between atoms: C5_10  and  C6_11 
REMARK    5  A    between atoms: C6_11  and  C7_12 
REMARK    6  A    between atoms: C7_12  and  N3_13 
REMARK    7  A    between atoms: N3_13  and  C8_14 
REMARK    8  A    between atoms: C8_14  and  C9_15 
REMARK       I    between atoms: C9_15  and  N4_17 
REMARK    9  A    between atoms: N4_17  and  C10_19 
REMARK   10  A    between atoms: C10_19  and  C11_20 
REMARK   11  A    between atoms: C11_20  and  N5_21 
REMARK   12  A    between atoms: N5_21  and  C12_24 
REMARK   13  A    between atoms: C12_24  and  C13_25 
REMARK   14  A    between atoms: C13_25  and  C14_26 
REMARK   15  A    between atoms: C14_26  and  C15_27 
REMARK   16  A    between atoms: C15_27  and  N6_28 
REMARK   17  A    between atoms: C19_35  and  N7_36 
REMARK   18  A    between atoms: C20_38  and  C21_39 
ROOT
HETATM    1  N3  UNL     1      30.407   6.265  15.384  1.00  0.00    -0.031 N 
HETATM    2  C16 UNL     1      30.827   5.004  15.857  1.00  0.00     0.250 C 
HETATM    3  C17 UNL     1      32.265   5.330  15.484  1.00  0.00     0.095 C 
HETATM    4  C18 UNL     1      31.732   6.556  14.877  1.00  0.00     0.131 C 
HETATM    5  C19 UNL     1      32.209   7.537  14.165  1.00  0.00     0.120 C 
ENDROOT
BRANCH   1   6
HETATM    6  C7  UNL     1      29.850   7.290  16.160  1.00  0.00     0.246 C 
BRANCH   6   7
HETATM    7  C6  UNL     1      29.767   7.254  17.621  1.00  0.00     0.048 C 
BRANCH   7   8
HETATM    8  C5  UNL     1      30.480   8.342  18.331  1.00  0.00     0.126 C 
BRANCH   8   9
HETATM    9  N2  UNL     1      31.910   8.367  17.986  1.00  0.00    -0.343 N 
HETATM   10  C4  UNL     1      32.396   9.480  17.213  1.00  0.00     0.316 C 
HETATM   11  N1  UNL     1      33.758   9.568  16.850  1.00  0.00    -0.343 N 
HETATM   12  O1  UNL     1      31.602  10.384  16.855  1.00  0.00    -0.247 OA
ATOM     13  H1  UNL     1      34.396   8.829  17.144  1.00  0.00     0.164 HD
ATOM     14  H2  UNL     1      32.537   7.619  18.285  1.00  0.00     0.164 HD
BRANCH  11  15
HETATM   15  C3  UNL     1      34.272  10.662  16.083  1.00  0.00     0.124 C 
BRANCH  15  16
HETATM   16  C2  UNL     1      35.685  10.502  15.615  1.00  0.00     0.015 C 
HETATM   17  C1  UNL     1      36.182  11.890  15.237  1.00  0.00     0.006 C 
ENDBRANCH  15  16
ENDBRANCH  11  15
ENDBRANCH   8   9
ENDBRANCH   7   8
ENDBRANCH   6   7
ENDBRANCH   1   6
BRANCH   1  18
HETATM   18  C8  UNL     1      29.483   6.028  14.232  1.00  0.00     0.346 C 
BRANCH  18  19
HETATM   19  C9  UNL     1      28.463   5.068  14.659  1.00  0.00     0.244 C 
HETATM   20  O2  UNL     1      27.460   5.399  15.339  1.00  0.00    -0.272 OA
HETATM   21  N4  UNL     1      28.556   3.667  14.321  1.00  0.00    -0.358 N 
ATOM     22  H4  UNL     1      29.335   3.313  13.766  1.00  0.00     0.162 HD
BRANCH  21  23
HETATM   23  C10 UNL     1      27.527   2.791  14.783  1.00  0.00     0.150 C 
BRANCH  23  24
HETATM   24  C11 UNL     1      26.503   2.595  13.682  1.00  0.00     0.251 C 
BRANCH  24  25
HETATM   25  N5  UNL     1      25.218   2.326  14.260  1.00  0.00    -0.074 N 
ATOM     26  H52 UNL     1      24.713   1.616  13.731  1.00  0.00     0.277 HD
ATOM     27  H51 UNL     1      25.304   1.830  15.147  1.00  0.00     0.277 HD
BRANCH  25  28
HETATM   28  C12 UNL     1      24.446   3.521  14.401  1.00  0.00     0.232 C 
BRANCH  28  29
HETATM   29  C13 UNL     1      24.690   4.464  13.269  1.00  0.00     0.029 C 
BRANCH  29  30
HETATM   30  C14 UNL     1      23.399   4.743  12.551  1.00  0.00     0.029 C 
BRANCH  30  31
HETATM   31  C15 UNL     1      22.521   5.615  13.394  1.00  0.00     0.229 C 
BRANCH  31  32
HETATM   32  N6  UNL     1      23.128   6.895  13.666  1.00  0.00    -0.079 N 
ATOM     33  H63 UNL     1      23.277   7.029  14.666  1.00  0.00     0.274 HD
ATOM     34  H62 UNL     1      24.099   6.917  13.354  1.00  0.00     0.274 HD
ATOM     35  H61 UNL     1      22.594   7.666  13.265  1.00  0.00     0.274 HD
ENDBRANCH  31  32
ENDBRANCH  30  31
ENDBRANCH  29  30
ENDBRANCH  28  29
ENDBRANCH  25  28
ENDBRANCH  24  25
ENDBRANCH  23  24
ENDBRANCH  21  23
ENDBRANCH  18  19
ENDBRANCH   1  18
BRANCH   5  36
HETATM   36  N7  UNL     1      33.578   7.622  13.770  1.00  0.00    -0.377 N 
HETATM   37  C20 UNL     1      33.961   8.533  12.961  1.00  0.00     0.065 C 
ATOM     38  H7  UNL     1      34.254   6.951  14.135  1.00  0.00     0.164 HD
BRANCH  37  39
HETATM   39  C21 UNL     1      35.309   8.771  12.450  1.00  0.00     0.024 C 
HETATM   40  C22 UNL     1      35.601   8.246  11.065  1.00  0.00     0.010 C 
HETATM   41  C23 UNL     1      35.128   9.591  10.533  1.00  0.00     0.001 C 
HETATM   42  C24 UNL     1      35.499  10.159  11.909  1.00  0.00     0.010 C 
ENDBRANCH  37  39
ENDBRANCH   5  36
TORSDOF 18
ENDMDL
MODEL 2
REMARK VINA RESULT: -7.180692959      2.878      9.088
REMARK  18 active torsions:
REMARK  status: ('A' for Active; 'I' for Inactive)
REMARK    1  A    between atoms: C2_2  and  C3_3 
REMARK    2  A    between atoms: C3_3  and  N1_4 
REMARK       I    between atoms: N1_4  and  C4_6 
REMARK       I    between atoms: C4_6  and  N2_8 
REMARK    3  A    between atoms: N2_8  and  C5_10 
REMARK    4  A    between atoms: C5_10  and  C6_11 
REMARK    5  A    between atoms: C6_11  and  C7_12 
REMARK    6  A    between atoms: C7_12  and  N3_13 
REMARK    7  A    between atoms: N3_13  and  C8_14 
REMARK    8  A    between atoms: C8_14  and  C9_15 
REMARK       I    between atoms: C9_15  and  N4_17 
REMARK    9  A    between atoms: N4_17  and  C10_19 
REMARK   10  A    between atoms: C10_19  and  C11_20 
REMARK   11  A    between atoms: C11_20  and  N5_21 
REMARK   12  A    between atoms: N5_21  and  C12_24 
REMARK   13  A    between atoms: C12_24  and  C13_25 
REMARK   14  A    between atoms: C13_25  and  C14_26 
REMARK   15  A    between atoms: C14_26  and  C15_27 
REMARK   16  A    between atoms: C15_27  and  N6_28 
REMARK   17  A    between atoms: C19_35  and  N7_36 
REMARK   18  A    between atoms: C20_38  and  C21_39 
ROOT
HETATM    1  N3  UNL     1      29.799   5.762  15.463  1.00  0.00    -0.031 N 
HETATM    2  C16 UNL     1      29.450   6.586  14.372  1.00  0.00     0.250 C 
HETATM    3  C17 UNL     1      28.270   5.683  14.051  1.00  0.00     0.095 C 
HETATM    4  C18 UNL     1      28.782   4.796  15.104  1.00  0.00     0.131 C 
HETATM    5  C19 UNL     1      28.483   3.615  15.567  1.00  0.00     0.120 C 
ENDROOT
BRANCH   1   6
HETATM    6  C7  UNL     1      29.787   6.136  16.812  1.00  0.00     0.246 C 
BRANCH   6   7
HETATM    7  C6  UNL     1      29.165   7.363  17.313  1.00  0.00     0.048 C 
BRANCH   7   8
HETATM    8  C5  UNL     1      29.915   8.074  18.376  1.00  0.00     0.126 C 
BRANCH   8   9
HETATM    9  N2  UNL     1      30.065   7.243  19.581  1.00  0.00    -0.343 N 
HETATM   10  C4  UNL     1      28.926   7.105  20.450  1.00  0.00     0.316 C 
HETATM   11  N1  UNL     1      29.000   6.319  21.621  1.00  0.00    -0.343 N 
HETATM   12  O1  UNL     1      27.851   7.688  20.166  1.00  0.00    -0.247 OA
ATOM     13  H1  UNL     1      29.876   5.849  21.845  1.00  0.00     0.164 HD
ATOM     14  H2  UNL     1      30.949   6.779  19.794  1.00  0.00     0.164 HD
BRANCH  11  15
HETATM   15  C3  UNL     1      27.884   6.162  22.504  1.00  0.00     0.124 C 
BRANCH  15  16
HETATM   16  C2  UNL     1      27.835   4.859  23.241  1.00  0.00     0.015 C 
HETATM   17  C1  UNL     1      29.143   4.140  22.946  1.00  0.00     0.006 C 
ENDBRANCH  15  16
ENDBRANCH  11  15
ENDBRANCH   8   9
ENDBRANCH   7   8
ENDBRANCH   6   7
ENDBRANCH   1   6
BRANCH   1  18
HETATM   18  C8  UNL     1      31.148   5.182  15.174  1.00  0.00     0.346 C 
BRANCH  18  19
HETATM   19  C9  UNL     1      32.147   6.230  15.392  1.00  0.00     0.244 C 
HETATM   20  O2  UNL     1      33.029   6.156  16.284  1.00  0.00    -0.272 OA
HETATM   21  N4  UNL     1      32.174   7.427  14.584  1.00  0.00    -0.358 N 
ATOM     22  H4  UNL     1      31.497   7.568  13.834  1.00  0.00     0.162 HD
BRANCH  21  23
HETATM   23  C10 UNL     1      33.173   8.409  14.863  1.00  0.00     0.150 C 
BRANCH  23  24
HETATM   24  C11 UNL     1      33.841   8.828  13.569  1.00  0.00     0.251 C 
BRANCH  24  25
HETATM   25  N5  UNL     1      34.335   7.670  12.883  1.00  0.00    -0.074 N 
ATOM     26  H52 UNL     1      34.866   7.065  13.508  1.00  0.00     0.277 HD
ATOM     27  H51 UNL     1      33.579   7.026  12.645  1.00  0.00     0.277 HD
BRANCH  25  28
HETATM   28  C12 UNL     1      35.098   8.029  11.729  1.00  0.00     0.232 C 
BRANCH  28  29
HETATM   29  C13 UNL     1      35.128   9.509  11.535  1.00  0.00     0.029 C 
BRANCH  29  30
HETATM   30  C14 UNL     1      35.254   9.829  10.072  1.00  0.00     0.029 C 
BRANCH  30  31
HETATM   31  C15 UNL     1      36.255   8.918   9.431  1.00  0.00     0.229 C 
BRANCH  31  32
HETATM   32  N6  UNL     1      36.182   8.960   7.991  1.00  0.00    -0.079 N 
ATOM     33  H63 UNL     1      36.127   8.021   7.596  1.00  0.00     0.274 HD
ATOM     34  H62 UNL     1      35.280   9.319   7.677  1.00  0.00     0.274 HD
ATOM     35  H61 UNL     1      36.952   9.488   7.583  1.00  0.00     0.274 HD
ENDBRANCH  31  32
ENDBRANCH  30  31
ENDBRANCH  29  30
ENDBRANCH  28  29
ENDBRANCH  25  28
ENDBRANCH  24  25
ENDBRANCH  23  24
ENDBRANCH  21  23
ENDBRANCH  18  19
ENDBRANCH   1  18
BRANCH   5  36
HETATM   36  N7  UNL     1      27.415   2.821  15.050  1.00  0.00    -0.377 N 
HETATM   37  C20 UNL     1      26.223   3.279  15.028  1.00  0.00     0.065 C 
ATOM     38  H7  UNL     1      27.605   1.883  14.696  1.00  0.00     0.164 HD
BRANCH  37  39
HETATM   39  C21 UNL     1      25.016   2.616  14.541  1.00  0.00     0.024 C 
HETATM   40  C22 UNL     1      24.218   1.843  15.563  1.00  0.00     0.010 C 
HETATM   41  C23 UNL     1      23.445   3.128  15.826  1.00  0.00     0.001 C 
HETATM   42  C24 UNL     1      23.844   3.547  14.405  1.00  0.00     0.010 C 
ENDBRANCH  37  39
ENDBRANCH   5  36
TORSDOF 18
ENDMDL
MODEL 3
REMARK VINA RESULT: -7.174090854      5.804     11.564
REMARK  18 active torsions:
REMARK  status: ('A' for Active; 'I' for Inactive)
REMARK    1  A    between atoms: C2_2  and  C3_3 
REMARK    2  A    between atoms: C3_3  and  N1_4 
REMARK       I    between atoms: N1_4  and  C4_6 
REMARK       I    between atoms: C4_6  and  N2_8 
REMARK    3  A    between atoms: N2_8  and  C5_10 
REMARK    4  A    between atoms: C5_10  and  C6_11 
REMARK    5  A    between atoms: C6_11  and  C7_12 
REMARK    6  A    between atoms: C7_12  and  N3_13 
REMARK    7  A    between atoms: N3_13  and  C8_14 
REMARK    8  A    between atoms: C8_14  and  C9_15 
REMARK       I    between atoms: C9_15  and  N4_17 
REMARK    9  A    between atoms: N4_17  and  C10_19 
REMARK   10  A    between atoms: C10_19  and  C11_20 
REMARK   11  A    between atoms: C11_20  and  N5_21 
REMARK   12  A    between atoms: N5_21  and  C12_24 
REMARK   13  A    between atoms: C12_24  and  C13_25 
REMARK   14  A    between atoms: C13_25  and  C14_26 
REMARK   15  A    between atoms: C14_26  and  C15_27 
REMARK   16  A    between atoms: C15_27  and  N6_28 
REMARK   17  A    between atoms: C19_35  and  N7_36 
REMARK   18  A    between atoms: C20_38  and  C21_39 
ROOT
HETATM    1  N3  UNL     1      23.201   3.101  13.725  1.00  0.00    -0.031 N 
HETATM    2  C16 UNL     1      23.065   4.442  13.307  1.00  0.00     0.250 C 
HETATM    3  C17 UNL     1      24.560   4.525  13.045  1.00  0.00     0.095 C 
HETATM    4  C18 UNL     1      24.644   3.182  13.633  1.00  0.00     0.131 C 
HETATM    5  C19 UNL     1      25.597   2.356  13.960  1.00  0.00     0.120 C 
ENDROOT
BRANCH   1   6
HETATM    6  C7  UNL     1      22.646   1.983  13.091  1.00  0.00     0.246 C 
BRANCH   6   7
HETATM    7  C6  UNL     1      22.167   1.983  11.708  1.00  0.00     0.048 C 
BRANCH   7   8
HETATM    8  C5  UNL     1      20.708   2.182  11.536  1.00  0.00     0.126 C 
BRANCH   8   9
HETATM    9  N2  UNL     1      19.954   1.705  12.705  1.00  0.00    -0.343 N 
HETATM   10  C4  UNL     1      18.809   0.865  12.470  1.00  0.00     0.316 C 
HETATM   11  N1  UNL     1      18.042   0.369  13.548  1.00  0.00    -0.343 N 
HETATM   12  O1  UNL     1      18.484   0.567  11.294  1.00  0.00    -0.247 OA
ATOM     13  H1  UNL     1      18.311   0.616  14.500  1.00  0.00     0.164 HD
ATOM     14  H2  UNL     1      20.234   1.961  13.652  1.00  0.00     0.164 HD
BRANCH  11  15
HETATM   15  C3  UNL     1      16.898  -0.469  13.347  1.00  0.00     0.124 C 
BRANCH  15  16
HETATM   16  C2  UNL     1      15.646  -0.009  14.027  1.00  0.00     0.015 C 
HETATM   17  C1  UNL     1      14.804   0.688  12.969  1.00  0.00     0.006 C 
ENDBRANCH  15  16
ENDBRANCH  11  15
ENDBRANCH   8   9
ENDBRANCH   7   8
ENDBRANCH   6   7
ENDBRANCH   1   6
BRANCH   1  18
HETATM   18  C8  UNL     1      22.806   3.037  15.167  1.00  0.00     0.346 C 
BRANCH  18  19
HETATM   19  C9  UNL     1      21.597   3.844  15.340  1.00  0.00     0.244 C 
HETATM   20  O2  UNL     1      20.442   3.395  15.131  1.00  0.00    -0.272 OA
HETATM   21  N4  UNL     1      21.664   5.223  15.766  1.00  0.00    -0.358 N 
ATOM     22  H4  UNL     1      22.560   5.668  15.963  1.00  0.00     0.162 HD
BRANCH  21  23
HETATM   23  C10 UNL     1      20.441   5.949  15.903  1.00  0.00     0.150 C 
BRANCH  23  24
HETATM   24  C11 UNL     1      20.328   6.961  14.781  1.00  0.00     0.251 C 
BRANCH  24  25
HETATM   25  N5  UNL     1      19.166   6.679  13.990  1.00  0.00    -0.074 N 
ATOM     26  H52 UNL     1      18.414   6.290  14.558  1.00  0.00     0.277 HD
ATOM     27  H51 UNL     1      18.706   7.536  13.684  1.00  0.00     0.277 HD
BRANCH  25  28
HETATM   28  C12 UNL     1      19.479   5.829  12.883  1.00  0.00     0.232 C 
BRANCH  28  29
HETATM   29  C13 UNL     1      18.324   4.954  12.525  1.00  0.00     0.029 C 
BRANCH  29  30
HETATM   30  C14 UNL     1      17.250   5.072  13.570  1.00  0.00     0.029 C 
BRANCH  30  31
HETATM   31  C15 UNL     1      16.863   3.713  14.065  1.00  0.00     0.229 C 
BRANCH  31  32
HETATM   32  N6  UNL     1      17.524   3.378  15.302  1.00  0.00    -0.079 N 
ATOM     33  H63 UNL     1      18.193   2.619  15.171  1.00  0.00     0.274 HD
ATOM     34  H62 UNL     1      18.170   4.114  15.588  1.00  0.00     0.274 HD
ATOM     35  H61 UNL     1      16.860   3.161  16.045  1.00  0.00     0.274 HD
ENDBRANCH  31  32
ENDBRANCH  30  31
ENDBRANCH  29  30
ENDBRANCH  28  29
ENDBRANCH  25  28
ENDBRANCH  24  25
ENDBRANCH  23  24
ENDBRANCH  21  23
ENDBRANCH  18  19
ENDBRANCH   1  18
BRANCH   5  36
HETATM   36  N7  UNL     1      26.983   2.650  13.777  1.00  0.00    -0.377 N 
HETATM   37  C20 UNL     1      27.594   3.413  14.599  1.00  0.00     0.065 C 
ATOM     38  H7  UNL     1      27.487   2.249  12.986  1.00  0.00     0.164 HD
BRANCH  37  39
HETATM   39  C21 UNL     1      28.996   3.822  14.571  1.00  0.00     0.024 C 
HETATM   40  C22 UNL     1      29.258   5.303  14.436  1.00  0.00     0.010 C 
HETATM   41  C23 UNL     1      29.235   5.373  15.957  1.00  0.00     0.001 C 
HETATM   42  C24 UNL     1      29.620   3.888  15.936  1.00  0.00     0.010 C 
ENDBRANCH  37  39
ENDBRANCH   5  36
TORSDOF 18
ENDMDL
MODEL 4
REMARK VINA RESULT: -7.163077018      1.997      8.267
REMARK  18 active torsions:
REMARK  status: ('A' for Active; 'I' for Inactive)
REMARK    1  A    between atoms: C2_2  and  C3_3 
REMARK    2  A    between atoms: C3_3  and  N1_4 
REMARK       I    between atoms: N1_4  and  C4_6 
REMARK       I    between atoms: C4_6  and  N2_8 
REMARK    3  A    between atoms: N2_8  and  C5_10 
REMARK    4  A    between atoms: C5_10  and  C6_11 
REMARK    5  A    between atoms: C6_11  and  C7_12 
REMARK    6  A    between atoms: C7_12  and  N3_13 
REMARK    7  A    between atoms: N3_13  and  C8_14 
REMARK    8  A    between atoms: C8_14  and  C9_15 
REMARK       I    between atoms: C9_15  and  N4_17 
REMARK    9  A    between atoms: N4_17  and  C10_19 
REMARK   10  A    between atoms: C10_19  and  C11_20 
REMARK   11  A    between atoms: C11_20  and  N5_21 
REMARK   12  A    between atoms: N5_21  and  C12_24 
REMARK   13  A    between atoms: C12_24  and  C13_25 
REMARK   14  A    between atoms: C13_25  and  C14_26 
REMARK   15  A    between atoms: C14_26  and  C15_27 
REMARK   16  A    between atoms: C15_27  and  N6_28 
REMARK   17  A    between atoms: C19_35  and  N7_36 
REMARK   18  A    between atoms: C20_38  and  C21_39 
ROOT
HETATM    1  N3  UNL     1      29.804   5.569  15.309  1.00  0.00    -0.031 N 
HETATM    2  C16 UNL     1      29.356   6.522  14.371  1.00  0.00     0.250 C 
HETATM    3  C17 UNL     1      28.164   5.643  14.029  1.00  0.00     0.095 C 
HETATM    4  C18 UNL     1      28.771   4.637  14.908  1.00  0.00     0.131 C 
HETATM    5  C19 UNL     1      28.525   3.399  15.232  1.00  0.00     0.120 C 
ENDROOT
BRANCH   1   6
HETATM    6  C7  UNL     1      29.900   5.761  16.693  1.00  0.00     0.246 C 
BRANCH   6   7
HETATM    7  C6  UNL     1      29.318   6.901  17.401  1.00  0.00     0.048 C 
BRANCH   7   8
HETATM    8  C5  UNL     1      30.093   7.399  18.563  1.00  0.00     0.126 C 
BRANCH   8   9
HETATM    9  N2  UNL     1      31.437   7.845  18.165  1.00  0.00    -0.343 N 
HETATM   10  C4  UNL     1      31.652   9.257  17.987  1.00  0.00     0.316 C 
HETATM   11  N1  UNL     1      32.920   9.754  17.609  1.00  0.00    -0.343 N 
HETATM   12  O1  UNL     1      30.705  10.060  18.169  1.00  0.00    -0.247 OA
ATOM     13  H1  UNL     1      33.684   9.096  17.463  1.00  0.00     0.164 HD
ATOM     14  H2  UNL     1      32.193   7.175  18.020  1.00  0.00     0.164 HD
BRANCH  11  15
HETATM   15  C3  UNL     1      33.165  11.152  17.426  1.00  0.00     0.124 C 
BRANCH  15  16
HETATM   16  C2  UNL     1      33.525  11.556  16.030  1.00  0.00     0.015 C 
HETATM   17  C1  UNL     1      32.218  11.707  15.267  1.00  0.00     0.006 C 
ENDBRANCH  15  16
ENDBRANCH  11  15
ENDBRANCH   8   9
ENDBRANCH   7   8
ENDBRANCH   6   7
ENDBRANCH   1   6
BRANCH   1  18
HETATM   18  C8  UNL     1      31.130   5.062  14.837  1.00  0.00     0.346 C 
BRANCH  18  19
HETATM   19  C9  UNL     1      32.137   6.083  15.134  1.00  0.00     0.244 C 
HETATM   20  O2  UNL     1      32.809   6.089  16.196  1.00  0.00    -0.272 OA
HETATM   21  N4  UNL     1      32.416   7.159  14.211  1.00  0.00    -0.358 N 
ATOM     22  H4  UNL     1      31.921   7.228  13.322  1.00  0.00     0.162 HD
BRANCH  21  23
HETATM   23  C10 UNL     1      33.405   8.123  14.576  1.00  0.00     0.150 C 
BRANCH  23  24
HETATM   24  C11 UNL     1      34.068   8.661  13.323  1.00  0.00     0.251 C 
BRANCH  24  25
HETATM   25  N5  UNL     1      34.568   7.572  12.535  1.00  0.00    -0.074 N 
ATOM     26  H52 UNL     1      35.120   6.927  13.099  1.00  0.00     0.277 HD
ATOM     27  H51 UNL     1      33.819   6.937  12.257  1.00  0.00     0.277 HD
BRANCH  25  28
HETATM   28  C12 UNL     1      35.304   8.039  11.402  1.00  0.00     0.232 C 
BRANCH  28  29
HETATM   29  C13 UNL     1      35.249   9.527  11.292  1.00  0.00     0.029 C 
BRANCH  29  30
HETATM   30  C14 UNL     1      35.149   9.928   9.847  1.00  0.00     0.029 C 
BRANCH  30  31
HETATM   31  C15 UNL     1      36.455   9.681   9.155  1.00  0.00     0.229 C 
BRANCH  31  32
HETATM   32  N6  UNL     1      36.311   8.790   8.030  1.00  0.00    -0.079 N 
ATOM     33  H63 UNL     1      36.424   7.817   8.313  1.00  0.00     0.274 HD
ATOM     34  H62 UNL     1      35.343   8.753   7.708  1.00  0.00     0.274 HD
ATOM     35  H61 UNL     1      36.945   9.030   7.268  1.00  0.00     0.274 HD
ENDBRANCH  31  32
ENDBRANCH  30  31
ENDBRANCH  29  30
ENDBRANCH  28  29
ENDBRANCH  25  28
ENDBRANCH  24  25
ENDBRANCH  23  24
ENDBRANCH  21  23
ENDBRANCH  18  19
ENDBRANCH   1  18
BRANCH   5  36
HETATM   36  N7  UNL     1      27.426   2.657  14.702  1.00  0.00    -0.377 N 
HETATM   37  C20 UNL     1      26.243   2.854  15.140  1.00  0.00     0.065 C 
ATOM     38  H7  UNL     1      27.587   1.965  13.969  1.00  0.00     0.164 HD
BRANCH  37  39
HETATM   39  C21 UNL     1      25.009   2.195  14.721  1.00  0.00     0.024 C 
HETATM   40  C22 UNL     1      24.009   1.892  15.811  1.00  0.00     0.010 C 
HETATM   41  C23 UNL     1      23.406   3.263  15.540  1.00  0.00     0.001 C 
HETATM   42  C24 UNL     1      24.003   3.142  14.132  1.00  0.00     0.010 C 
ENDBRANCH  37  39
ENDBRANCH   5  36
TORSDOF 18
ENDMDL
MODEL 5
REMARK VINA RESULT: -7.143325688      1.174      1.364
REMARK  18 active torsions:
REMARK  status: ('A' for Active; 'I' for Inactive)
REMARK    1  A    between atoms: C2_2  and  C3_3 
REMARK    2  A    between atoms: C3_3  and  N1_4 
REMARK       I    between atoms: N1_4  and  C4_6 
REMARK       I    between atoms: C4_6  and  N2_8 
REMARK    3  A    between atoms: N2_8  and  C5_10 
REMARK    4  A    between atoms: C5_10  and  C6_11 
REMARK    5  A    between atoms: C6_11  and  C7_12 
REMARK    6  A    between atoms: C7_12  and  N3_13 
REMARK    7  A    between atoms: N3_13  and  C8_14 
REMARK    8  A    between atoms: C8_14  and  C9_15 
REMARK       I    between atoms: C9_15  and  N4_17 
REMARK    9  A    between atoms: N4_17  and  C10_19 
REMARK   10  A    between atoms: C10_19  and  C11_20 
REMARK   11  A    between atoms: C11_20  and  N5_21 
REMARK   12  A    between atoms: N5_21  and  C12_24 
REMARK   13  A    between atoms: C12_24  and  C13_25 
REMARK   14  A    between atoms: C13_25  and  C14_26 
REMARK   15  A    between atoms: C14_26  and  C15_27 
REMARK   16  A    between atoms: C15_27  and  N6_28 
REMARK   17  A    between atoms: C19_35  and  N7_36 
REMARK   18  A    between atoms: C20_38  and  C21_39 
ROOT
HETATM    1  N3  UNL     1      30.665   6.846  15.452  1.00  0.00    -0.031 N 
HETATM    2  C16 UNL     1      31.070   5.644  16.068  1.00  0.00     0.250 C 
HETATM    3  C17 UNL     1      32.507   5.893  15.636  1.00  0.00     0.095 C 
HETATM    4  C18 UNL     1      31.985   7.046  14.893  1.00  0.00     0.131 C 
HETATM    5  C19 UNL     1      32.467   7.924  14.059  1.00  0.00     0.120 C 
ENDROOT
BRANCH   1   6
HETATM    6  C7  UNL     1      30.140   7.968  16.105  1.00  0.00     0.246 C 
BRANCH   6   7
HETATM    7  C6  UNL     1      29.971   8.062  17.556  1.00  0.00     0.048 C 
BRANCH   7   8
HETATM    8  C5  UNL     1      30.814   9.075  18.235  1.00  0.00     0.126 C 
BRANCH   8   9
HETATM    9  N2  UNL     1      32.233   8.927  17.876  1.00  0.00    -0.343 N 
HETATM   10  C4  UNL     1      32.826   9.944  17.047  1.00  0.00     0.316 C 
HETATM   11  N1  UNL     1      34.185   9.866  16.667  1.00  0.00    -0.343 N 
HETATM   12  O1  UNL     1      32.131  10.913  16.655  1.00  0.00    -0.247 OA
ATOM     13  H1  UNL     1      34.742   9.075  16.989  1.00  0.00     0.164 HD
ATOM     14  H2  UNL     1      32.778   8.129  18.203  1.00  0.00     0.164 HD
BRANCH  11  15
HETATM   15  C3  UNL     1      34.803  10.861  15.845  1.00  0.00     0.124 C 
BRANCH  15  16
HETATM   16  C2  UNL     1      36.194  10.538  15.395  1.00  0.00     0.015 C 
HETATM   17  C1  UNL     1      36.913  11.866  15.206  1.00  0.00     0.006 C 
ENDBRANCH  15  16
ENDBRANCH  11  15
ENDBRANCH   8   9
ENDBRANCH   7   8
ENDBRANCH   6   7
ENDBRANCH   1   6
BRANCH   1  18
HETATM   18  C8  UNL     1      29.716   6.489  14.351  1.00  0.00     0.346 C 
BRANCH  18  19
HETATM   19  C9  UNL     1      28.813   5.451  14.851  1.00  0.00     0.244 C 
HETATM   20  O2  UNL     1      27.829   5.702  15.590  1.00  0.00    -0.272 OA
HETATM   21  N4  UNL     1      29.007   4.058  14.520  1.00  0.00    -0.358 N 
ATOM     22  H4  UNL     1      29.778   3.764  13.921  1.00  0.00     0.162 HD
BRANCH  21  23
HETATM   23  C10 UNL     1      28.089   3.102  15.054  1.00  0.00     0.150 C 
BRANCH  23  24
HETATM   24  C11 UNL     1      27.003   2.824  14.033  1.00  0.00     0.251 C 
BRANCH  24  25
HETATM   25  N5  UNL     1      25.838   3.600  14.344  1.00  0.00    -0.074 N 
ATOM     26  H52 UNL     1      25.631   3.578  15.342  1.00  0.00     0.277 HD
ATOM     27  H51 UNL     1      26.017   4.600  14.242  1.00  0.00     0.277 HD
BRANCH  25  28
HETATM   28  C12 UNL     1      24.712   3.189  13.566  1.00  0.00     0.232 C 
BRANCH  28  29
HETATM   29  C13 UNL     1      24.225   1.841  13.982  1.00  0.00     0.029 C 
BRANCH  29  30
HETATM   30  C14 UNL     1      23.458   1.951  15.270  1.00  0.00     0.029 C 
BRANCH  30  31
HETATM   31  C15 UNL     1      22.462   3.067  15.181  1.00  0.00     0.229 C 
BRANCH  31  32
HETATM   32  N6  UNL     1      22.531   3.946  16.322  1.00  0.00    -0.079 N 
ATOM     33  H63 UNL     1      21.639   3.984  16.814  1.00  0.00     0.274 HD
ATOM     34  H62 UNL     1      23.107   3.546  17.064  1.00  0.00     0.274 HD
ATOM     35  H61 UNL     1      22.853   4.880  16.068  1.00  0.00     0.274 HD
ENDBRANCH  31  32
ENDBRANCH  30  31
ENDBRANCH  29  30
ENDBRANCH  28  29
ENDBRANCH  25  28
ENDBRANCH  24  25
ENDBRANCH  23  24
ENDBRANCH  21  23
ENDBRANCH  18  19
ENDBRANCH   1  18
BRANCH   5  36
HETATM   36  N7  UNL     1      33.831   7.933  13.636  1.00  0.00    -0.377 N 
HETATM   37  C20 UNL     1      34.224   8.759  12.746  1.00  0.00     0.065 C 
ATOM     38  H7  UNL     1      34.494   7.275  14.047  1.00  0.00     0.164 HD
BRANCH  37  39
HETATM   39  C21 UNL     1      35.568   8.911  12.194  1.00  0.00     0.024 C 
HETATM   40  C22 UNL     1      35.789   8.356  10.808  1.00  0.00     0.010 C 
HETATM   41  C23 UNL     1      35.381   9.721  10.273  1.00  0.00     0.001 C 
HETATM   42  C24 UNL     1      35.825  10.280  11.631  1.00  0.00     0.010 C 
ENDBRANCH  37  39
ENDBRANCH   5  36
TORSDOF 18
ENDMDL
