MODEL 1
REMARK VINA RESULT: -9.004270644      0.000      0.000
REMARK  5 active torsions:
REMARK  status: ('A' for Active; 'I' for Inactive)
REMARK       I    between atoms: C1_2  and  N1_3 
REMARK    1  A    between atoms: C1_2  and  C14_17 
REMARK    2  A    between atoms: N1_3  and  C2_5 
REMARK    3  A    between atoms: C5_8  and  C6_9 
REMARK    4  A    between atoms: C6_9  and  C7_10 
REMARK    5  A    between atoms: C17_21  and  N2_22 
ROOT
HETATM    1  O1  UNL     1       4.238  38.436  77.553  1.00  0.00    -0.267 OA
HETATM    2  C1  UNL     1       4.157  38.494  78.840  1.00  0.00     0.257 C 
HETATM    3  N1  UNL     1       4.911  37.508  79.514  1.00  0.00    -0.352 N 
ATOM      4  H1  UNL     1       4.920  37.460  80.533  1.00  0.00     0.163 HD
ENDROOT
BRANCH   2   5
HETATM    5  C14 UNL     1       3.330  39.530  79.391  1.00  0.00     0.097 A 
HETATM    6  C15 UNL     1       3.624  40.876  79.293  1.00  0.00     0.136 A 
HETATM    7  F1  UNL     1       4.753  41.312  78.676  1.00  0.00    -0.205 F 
HETATM    8  C16 UNL     1       2.759  41.831  79.832  1.00  0.00     0.080 A 
HETATM    9  C17 UNL     1       1.623  41.444  80.455  1.00  0.00     0.114 A 
HETATM   10  C18 UNL     1       1.292  40.111  80.573  1.00  0.00     0.004 A 
HETATM   11  C19 UNL     1       2.144  39.165  80.044  1.00  0.00     0.055 A 
HETATM   12  C21 UNL     1       0.102  39.465  81.197  1.00  0.00     0.063 C 
HETATM   13  N3  UNL     1       1.566  37.907  80.332  1.00  0.00    -0.388 N 
HETATM   14  C20 UNL     1       0.127  38.103  80.526  1.00  0.00     0.124 C 
ATOM     15  H3  UNL     1       2.063  37.019  80.393  1.00  0.00     0.159 HD
BRANCH   9  16
HETATM   16  N2  UNL     1       0.745  42.406  81.003  1.00  0.00    -0.115 N 
HETATM   17  O2  UNL     1       0.350  42.320  82.175  1.00  0.00    -0.532 OA
HETATM   18  O3  UNL     1       0.327  43.447  80.218  1.00  0.00    -0.532 OA
ENDBRANCH   9  16
ENDBRANCH   2   5
BRANCH   3  19
HETATM   19  C2  UNL     1       5.676  36.560  78.708  1.00  0.00     0.085 C 
HETATM   20  C3  UNL     1       5.630  35.167  79.254  1.00  0.00     0.025 C 
HETATM   21  C4  UNL     1       6.731  34.517  78.398  1.00  0.00     0.007 C 
HETATM   22  C5  UNL     1       7.804  35.579  78.467  1.00  0.00    -0.012 C 
HETATM   23  C13 UNL     1       7.148  36.880  78.723  1.00  0.00     0.029 C 
BRANCH  22  24
HETATM   24  C6  UNL     1       8.840  35.489  77.432  1.00  0.00     0.009 C 
BRANCH  24  25
HETATM   25  C7  UNL     1       9.013  36.574  76.453  1.00  0.00    -0.014 C 
HETATM   26  C8  UNL     1      10.349  36.646  75.760  1.00  0.00     0.005 C 
HETATM   27  C9  UNL     1      10.251  37.549  74.532  1.00  0.00     0.000 C 
HETATM   28  C10 UNL     1       9.027  38.442  74.597  1.00  0.00     0.000 C 
HETATM   29  C11 UNL     1       7.810  37.568  74.496  1.00  0.00     0.000 C 
HETATM   30  C12 UNL     1       7.992  36.322  75.328  1.00  0.00     0.005 C 
ENDBRANCH  24  25
ENDBRANCH  22  24
ENDBRANCH   3  19
TORSDOF 5
ENDMDL
MODEL 2
REMARK VINA RESULT: -8.717047041      2.783      3.629
REMARK  5 active torsions:
REMARK  status: ('A' for Active; 'I' for Inactive)
REMARK       I    between atoms: C1_2  and  N1_3 
REMARK    1  A    between atoms: C1_2  and  C14_17 
REMARK    2  A    between atoms: N1_3  and  C2_5 
REMARK    3  A    between atoms: C5_8  and  C6_9 
REMARK    4  A    between atoms: C6_9  and  C7_10 
REMARK    5  A    between atoms: C17_21  and  N2_22 
ROOT
HETATM    1  O1  UNL     1       6.378  37.438  79.406  1.00  0.00    -0.267 OA
HETATM    2  C1  UNL     1       5.461  37.810  78.579  1.00  0.00     0.257 C 
HETATM    3  N1  UNL     1       5.761  37.550  77.223  1.00  0.00    -0.352 N 
ATOM      4  H1  UNL     1       5.107  37.803  76.482  1.00  0.00     0.163 HD
ENDROOT
BRANCH   2   5
HETATM    5  C14 UNL     1       4.291  38.424  79.141  1.00  0.00     0.097 A 
HETATM    6  C15 UNL     1       3.954  39.749  78.947  1.00  0.00     0.136 A 
HETATM    7  F1  UNL     1       4.740  40.580  78.213  1.00  0.00    -0.205 F 
HETATM    8  C16 UNL     1       2.785  40.272  79.504  1.00  0.00     0.080 A 
HETATM    9  C17 UNL     1       1.971  39.482  80.241  1.00  0.00     0.114 A 
HETATM   10  C18 UNL     1       2.271  38.154  80.458  1.00  0.00     0.004 A 
HETATM   11  C19 UNL     1       3.424  37.634  79.911  1.00  0.00     0.055 A 
HETATM   12  C21 UNL     1       1.522  37.109  81.214  1.00  0.00     0.063 C 
HETATM   13  N3  UNL     1       3.477  36.279  80.313  1.00  0.00    -0.388 N 
HETATM   14  C20 UNL     1       2.112  35.843  80.617  1.00  0.00     0.124 C 
ATOM     15  H3  UNL     1       4.318  35.707  80.380  1.00  0.00     0.159 HD
BRANCH   9  16
HETATM   16  N2  UNL     1       0.788  40.007  80.808  1.00  0.00    -0.115 N 
HETATM   17  O2  UNL     1      -0.194  39.283  81.025  1.00  0.00    -0.532 OA
HETATM   18  O3  UNL     1       0.735  41.339  81.120  1.00  0.00    -0.532 OA
ENDBRANCH   9  16
ENDBRANCH   2   5
BRANCH   3  19
HETATM   19  C2  UNL     1       7.036  36.907  76.916  1.00  0.00     0.085 C 
HETATM   20  C3  UNL     1       7.649  37.415  75.648  1.00  0.00     0.025 C 
HETATM   21  C4  UNL     1       8.762  36.369  75.461  1.00  0.00     0.007 C 
HETATM   22  C5  UNL     1       8.003  35.096  75.760  1.00  0.00    -0.012 C 
HETATM   23  C13 UNL     1       6.864  35.436  76.642  1.00  0.00     0.029 C 
BRANCH  22  24
HETATM   24  C6  UNL     1       8.837  33.933  76.081  1.00  0.00     0.009 C 
BRANCH  24  25
HETATM   25  C7  UNL     1       8.624  32.649  75.396  1.00  0.00    -0.014 C 
HETATM   26  C8  UNL     1       7.598  32.638  74.293  1.00  0.00     0.005 C 
HETATM   27  C9  UNL     1       7.760  31.381  73.442  1.00  0.00     0.000 C 
HETATM   28  C10 UNL     1       8.566  30.320  74.167  1.00  0.00     0.000 C 
HETATM   29  C11 UNL     1       9.970  30.830  74.323  1.00  0.00     0.000 C 
HETATM   30  C12 UNL     1       9.955  32.289  74.707  1.00  0.00     0.005 C 
ENDBRANCH  24  25
ENDBRANCH  22  24
ENDBRANCH   3  19
TORSDOF 5
ENDMDL
MODEL 3
REMARK VINA RESULT: -8.403952756      1.623      2.476
REMARK  5 active torsions:
REMARK  status: ('A' for Active; 'I' for Inactive)
REMARK       I    between atoms: C1_2  and  N1_3 
REMARK    1  A    between atoms: C1_2  and  C14_17 
REMARK    2  A    between atoms: N1_3  and  C2_5 
REMARK    3  A    between atoms: C5_8  and  C6_9 
REMARK    4  A    between atoms: C6_9  and  C7_10 
REMARK    5  A    between atoms: C17_21  and  N2_22 
ROOT
HETATM    1  O1  UNL     1       4.891  37.545  77.637  1.00  0.00    -0.267 OA
HETATM    2  C1  UNL     1       4.594  37.289  78.866  1.00  0.00     0.257 C 
HETATM    3  N1  UNL     1       5.353  36.246  79.442  1.00  0.00    -0.352 N 
ATOM      4  H1  UNL     1       5.201  35.958  80.408  1.00  0.00     0.163 HD
ENDROOT
BRANCH   2   5
HETATM    5  C14 UNL     1       3.556  38.082  79.460  1.00  0.00     0.097 A 
HETATM    6  C15 UNL     1       2.507  37.551  80.186  1.00  0.00     0.136 A 
HETATM    7  F1  UNL     1       2.378  36.211  80.366  1.00  0.00    -0.205 F 
HETATM    8  C16 UNL     1       1.547  38.388  80.758  1.00  0.00     0.080 A 
HETATM    9  C17 UNL     1       1.635  39.728  80.606  1.00  0.00     0.114 A 
HETATM   10  C18 UNL     1       2.665  40.298  79.890  1.00  0.00     0.004 A 
HETATM   11  C19 UNL     1       3.616  39.477  79.322  1.00  0.00     0.055 A 
HETATM   12  C21 UNL     1       2.965  41.732  79.609  1.00  0.00     0.063 C 
HETATM   13  N3  UNL     1       4.519  40.327  78.643  1.00  0.00    -0.388 N 
HETATM   14  C20 UNL     1       4.441  41.655  79.258  1.00  0.00     0.124 C 
ATOM     15  H3  UNL     1       5.120  40.062  77.863  1.00  0.00     0.159 HD
BRANCH   9  16
HETATM   16  N2  UNL     1       0.664  40.578  81.181  1.00  0.00    -0.115 N 
HETATM   17  O2  UNL     1       0.698  41.804  81.001  1.00  0.00    -0.532 OA
HETATM   18  O3  UNL     1      -0.327  40.030  81.951  1.00  0.00    -0.532 OA
ENDBRANCH   9  16
ENDBRANCH   2   5
BRANCH   3  19
HETATM   19  C2  UNL     1       6.360  35.592  78.610  1.00  0.00     0.085 C 
HETATM   20  C3  UNL     1       6.742  34.238  79.121  1.00  0.00     0.025 C 
HETATM   21  C4  UNL     1       7.980  33.971  78.246  1.00  0.00     0.007 C 
HETATM   22  C5  UNL     1       8.683  35.306  78.340  1.00  0.00    -0.012 C 
HETATM   23  C13 UNL     1       7.667  36.342  78.629  1.00  0.00     0.029 C 
BRANCH  22  24
HETATM   24  C6  UNL     1       9.687  35.556  77.300  1.00  0.00     0.009 C 
BRANCH  24  25
HETATM   25  C7  UNL     1       9.506  36.653  76.336  1.00  0.00    -0.014 C 
HETATM   26  C8  UNL     1      10.654  36.920  75.399  1.00  0.00     0.005 C 
HETATM   27  C9  UNL     1      10.188  37.797  74.239  1.00  0.00     0.000 C 
HETATM   28  C10 UNL     1       8.884  38.500  74.565  1.00  0.00     0.000 C 
HETATM   29  C11 UNL     1       7.810  37.456  74.679  1.00  0.00     0.000 C 
HETATM   30  C12 UNL     1       8.330  36.252  75.425  1.00  0.00     0.005 C 
ENDBRANCH  24  25
ENDBRANCH  22  24
ENDBRANCH   3  19
TORSDOF 5
ENDMDL
MODEL 4
REMARK VINA RESULT: -8.367031982      2.105      2.887
REMARK  5 active torsions:
REMARK  status: ('A' for Active; 'I' for Inactive)
REMARK       I    between atoms: C1_2  and  N1_3 
REMARK    1  A    between atoms: C1_2  and  C14_17 
REMARK    2  A    between atoms: N1_3  and  C2_5 
REMARK    3  A    between atoms: C5_8  and  C6_9 
REMARK    4  A    between atoms: C6_9  and  C7_10 
REMARK    5  A    between atoms: C17_21  and  N2_22 
ROOT
HETATM    1  O1  UNL     1       5.120  36.852  77.875  1.00  0.00    -0.267 OA
HETATM    2  C1  UNL     1       5.013  36.521  79.117  1.00  0.00     0.257 C 
HETATM    3  N1  UNL     1       5.990  35.603  79.560  1.00  0.00    -0.352 N 
ATOM      4  H1  UNL     1       6.001  35.272  80.525  1.00  0.00     0.163 HD
ENDROOT
BRANCH   2   5
HETATM    5  C14 UNL     1       3.938  37.120  79.857  1.00  0.00     0.097 A 
HETATM    6  C15 UNL     1       3.244  36.471  80.859  1.00  0.00     0.136 A 
HETATM    7  F1  UNL     1       3.528  35.186  81.200  1.00  0.00    -0.205 F 
HETATM    8  C16 UNL     1       2.225  37.126  81.555  1.00  0.00     0.080 A 
HETATM    9  C17 UNL     1       1.908  38.405  81.251  1.00  0.00     0.114 A 
HETATM   10  C18 UNL     1       2.576  39.088  80.257  1.00  0.00     0.004 A 
HETATM   11  C19 UNL     1       3.582  38.446  79.567  1.00  0.00     0.055 A 
HETATM   12  C21 UNL     1       2.407  40.488  79.770  1.00  0.00     0.063 C 
HETATM   13  N3  UNL     1       4.061  39.372  78.612  1.00  0.00    -0.388 N 
HETATM   14  C20 UNL     1       3.745  40.721  79.090  1.00  0.00     0.124 C 
ATOM     15  H3  UNL     1       4.541  39.141  77.743  1.00  0.00     0.159 HD
BRANCH   9  16
HETATM   16  N2  UNL     1       0.877  39.071  81.950  1.00  0.00    -0.115 N 
HETATM   17  O2  UNL     1       1.073  39.551  83.076  1.00  0.00    -0.532 OA
HETATM   18  O3  UNL     1      -0.357  39.182  81.368  1.00  0.00    -0.532 OA
ENDBRANCH   9  16
ENDBRANCH   2   5
BRANCH   3  19
HETATM   19  C2  UNL     1       6.985  35.143  78.595  1.00  0.00     0.085 C 
HETATM   20  C3  UNL     1       7.578  33.819  78.962  1.00  0.00     0.025 C 
HETATM   21  C4  UNL     1       8.749  33.774  77.964  1.00  0.00     0.007 C 
HETATM   22  C5  UNL     1       9.289  35.179  78.101  1.00  0.00    -0.012 C 
HETATM   23  C13 UNL     1       8.186  36.053  78.559  1.00  0.00     0.029 C 
BRANCH  22  24
HETATM   24  C6  UNL     1      10.149  35.627  77.001  1.00  0.00     0.009 C 
BRANCH  24  25
HETATM   25  C7  UNL     1       9.729  36.734  76.128  1.00  0.00    -0.014 C 
HETATM   26  C8  UNL     1      10.721  37.184  75.088  1.00  0.00     0.005 C 
HETATM   27  C9  UNL     1      10.023  38.046  74.038  1.00  0.00     0.000 C 
HETATM   28  C10 UNL     1       8.691  38.565  74.544  1.00  0.00     0.000 C 
HETATM   29  C11 UNL     1       7.770  37.390  74.713  1.00  0.00     0.000 C 
HETATM   30  C12 UNL     1       8.513  36.230  75.328  1.00  0.00     0.005 C 
ENDBRANCH  24  25
ENDBRANCH  22  24
ENDBRANCH   3  19
TORSDOF 5
ENDMDL
MODEL 5
REMARK VINA RESULT: -8.355577350      3.152      4.346
REMARK  5 active torsions:
REMARK  status: ('A' for Active; 'I' for Inactive)
REMARK       I    between atoms: C1_2  and  N1_3 
REMARK    1  A    between atoms: C1_2  and  C14_17 
REMARK    2  A    between atoms: N1_3  and  C2_5 
REMARK    3  A    between atoms: C5_8  and  C6_9 
REMARK    4  A    between atoms: C6_9  and  C7_10 
REMARK    5  A    between atoms: C17_21  and  N2_22 
ROOT
HETATM    1  O1  UNL     1       6.651  36.738  79.675  1.00  0.00    -0.267 OA
HETATM    2  C1  UNL     1       5.688  37.013  78.862  1.00  0.00     0.257 C 
HETATM    3  N1  UNL     1       6.015  36.852  77.497  1.00  0.00    -0.352 N 
ATOM      4  H1  UNL     1       5.330  37.043  76.767  1.00  0.00     0.163 HD
ENDROOT
BRANCH   2   5
HETATM    5  C14 UNL     1       4.447  37.436  79.447  1.00  0.00     0.097 A 
HETATM    6  C15 UNL     1       3.628  36.605  80.186  1.00  0.00     0.136 A 
HETATM    7  F1  UNL     1       3.941  35.299  80.389  1.00  0.00    -0.205 F 
HETATM    8  C16 UNL     1       2.446  37.093  80.748  1.00  0.00     0.080 A 
HETATM    9  C17 UNL     1       2.093  38.387  80.573  1.00  0.00     0.114 A 
HETATM   10  C18 UNL     1       2.883  39.249  79.844  1.00  0.00     0.004 A 
HETATM   11  C19 UNL     1       4.050  38.772  79.286  1.00  0.00     0.055 A 
HETATM   12  C21 UNL     1       2.701  40.697  79.538  1.00  0.00     0.063 C 
HETATM   13  N3  UNL     1       4.629  39.858  78.589  1.00  0.00    -0.388 N 
HETATM   14  C20 UNL     1       4.122  41.099  79.182  1.00  0.00     0.124 C 
ATOM     15  H3  UNL     1       5.284  39.790  77.811  1.00  0.00     0.159 HD
BRANCH   9  16
HETATM   16  N2  UNL     1       0.898  38.884  81.138  1.00  0.00    -0.115 N 
HETATM   17  O2  UNL     1      -0.205  38.630  80.632  1.00  0.00    -0.532 OA
HETATM   18  O3  UNL     1       0.968  39.661  82.264  1.00  0.00    -0.532 OA
ENDBRANCH   9  16
ENDBRANCH   2   5
BRANCH   3  19
HETATM   19  C2  UNL     1       7.366  36.405  77.165  1.00  0.00     0.085 C 
HETATM   20  C3  UNL     1       7.926  37.100  75.964  1.00  0.00     0.025 C 
HETATM   21  C4  UNL     1       9.165  36.222  75.712  1.00  0.00     0.007 C 
HETATM   22  C5  UNL     1       8.569  34.843  75.876  1.00  0.00    -0.012 C 
HETATM   23  C13 UNL     1       7.385  34.955  76.756  1.00  0.00     0.029 C 
BRANCH  22  24
HETATM   24  C6  UNL     1       9.539  33.768  76.112  1.00  0.00     0.009 C 
BRANCH  24  25
HETATM   25  C7  UNL     1       9.392  32.468  75.440  1.00  0.00    -0.014 C 
HETATM   26  C8  UNL     1       8.261  32.346  74.453  1.00  0.00     0.005 C 
HETATM   27  C9  UNL     1       8.463  31.112  73.577  1.00  0.00     0.000 C 
HETATM   28  C10 UNL     1       9.450  30.145  74.201  1.00  0.00     0.000 C 
HETATM   29  C11 UNL     1      10.801  30.803  74.211  1.00  0.00     0.000 C 
HETATM   30  C12 UNL     1      10.672  32.252  74.610  1.00  0.00     0.005 C 
ENDBRANCH  24  25
ENDBRANCH  22  24
ENDBRANCH   3  19
TORSDOF 5
ENDMDL
