MODEL 1
REMARK VINA RESULT: -7.174039002      0.000      0.000
REMARK  6 active torsions:
REMARK  status: ('A' for Active; 'I' for Inactive)
REMARK    1  A    between atoms: C2_2  and  C3_3 
REMARK    2  A    between atoms: C4_5  and  C5_6 
REMARK    3  A    between atoms: C6_10  and  C7_11 
REMARK    4  A    between atoms: C8_14  and  O3_15 
REMARK    5  A    between atoms: C16_24  and  C17_25 
REMARK    6  A    between atoms: C17_25  and  C18_26 
ROOT
HETATM    1  C3  UNL     1       7.293  33.685  77.353  1.00  0.00     0.138 C 
HETATM    2  F1  UNL     1       6.683  33.900  76.121  1.00  0.00    -0.237 F 
HETATM    3  C4  UNL     1       7.919  34.985  77.790  1.00  0.00     0.093 C 
HETATM    4  C9  UNL     1       7.241  35.343  79.118  1.00  0.00     0.020 C 
HETATM    5  C10 UNL     1       5.904  34.735  78.874  1.00  0.00    -0.001 C 
HETATM    6  C11 UNL     1       4.983  34.768  80.028  1.00  0.00     0.006 C 
HETATM    7  C12 UNL     1       3.663  34.158  79.525  1.00  0.00     0.006 C 
HETATM    8  C13 UNL     1       4.072  32.772  79.121  1.00  0.00    -0.002 C 
HETATM    9  C14 UNL     1       2.927  31.913  78.702  1.00  0.00     0.032 C 
HETATM   10  C15 UNL     1       3.664  30.922  77.860  1.00  0.00    -0.023 C 
HETATM   11  C16 UNL     1       4.822  31.406  77.415  1.00  0.00    -0.078 C 
HETATM   12  C20 UNL     1       4.965  32.778  77.892  1.00  0.00     0.031 C 
HETATM   13  C21 UNL     1       6.245  33.322  78.357  1.00  0.00     0.008 C 
HETATM   14  C22 UNL     1       6.911  32.519  79.453  1.00  0.00     0.020 C 
ENDROOT
BRANCH   3  15
HETATM   15  C5  UNL     1       7.724  36.100  76.857  1.00  0.00     0.119 A 
HETATM   16  O1  UNL     1       6.749  36.953  76.687  1.00  0.00    -0.238 OA
HETATM   17  N1  UNL     1       7.009  37.786  75.724  1.00  0.00    -0.253 N 
HETATM   18  C6  UNL     1       8.196  37.528  75.193  1.00  0.00     0.155 A 
ATOM     19  H1  UNL     1       6.387  38.534  75.419  1.00  0.00     0.195 HD
HETATM   20  C8  UNL     1       8.689  36.434  75.910  1.00  0.00     0.132 A 
BRANCH  18  21
HETATM   21  C7  UNL     1       8.906  38.188  74.100  1.00  0.00     0.286 C 
HETATM   22  N2  UNL     1      10.231  38.654  74.283  1.00  0.00    -0.056 NA
HETATM   23  O2  UNL     1       8.349  38.347  72.985  1.00  0.00    -0.269 OA
ENDBRANCH  18  21
BRANCH  20  24
HETATM   24  O3  UNL     1       9.920  35.839  75.667  1.00  0.00    -0.356 OA
ATOM     25  H3  UNL     1      10.228  35.398  74.883  1.00  0.00     0.218 HD
ENDBRANCH  20  24
ENDBRANCH   3  15
BRANCH   1  26
HETATM   26  C2  UNL     1       8.430  32.732  77.257  1.00  0.00     0.007 C 
HETATM   27  C1  UNL     1       9.028  32.397  76.138  1.00  0.00     0.010 C 
ENDBRANCH   1  26
BRANCH  11  28
HETATM   28  C17 UNL     1       5.714  30.595  76.560  1.00  0.00     0.034 C 
BRANCH  28  29
HETATM   29  C18 UNL     1       5.260  30.495  75.100  1.00  0.00    -0.000 C 
HETATM   30  C19 UNL     1       6.012  31.404  74.185  1.00  0.00     0.005 C 
ENDBRANCH  28  29
ENDBRANCH  11  28
TORSDOF 6
ENDMDL
MODEL 2
REMARK VINA RESULT: -6.708618224      0.762      1.106
REMARK  6 active torsions:
REMARK  status: ('A' for Active; 'I' for Inactive)
REMARK    1  A    between atoms: C2_2  and  C3_3 
REMARK    2  A    between atoms: C4_5  and  C5_6 
REMARK    3  A    between atoms: C6_10  and  C7_11 
REMARK    4  A    between atoms: C8_14  and  O3_15 
REMARK    5  A    between atoms: C16_24  and  C17_25 
REMARK    6  A    between atoms: C17_25  and  C18_26 
ROOT
HETATM    1  C3  UNL     1       7.161  33.874  77.587  1.00  0.00     0.138 C 
HETATM    2  F1  UNL     1       6.523  34.042  76.362  1.00  0.00    -0.237 F 
HETATM    3  C4  UNL     1       7.845  35.172  77.932  1.00  0.00     0.093 C 
HETATM    4  C9  UNL     1       7.219  35.629  79.256  1.00  0.00     0.020 C 
HETATM    5  C10 UNL     1       5.855  35.058  79.083  1.00  0.00    -0.001 C 
HETATM    6  C11 UNL     1       4.970  35.188  80.259  1.00  0.00     0.006 C 
HETATM    7  C12 UNL     1       3.615  34.601  79.827  1.00  0.00     0.006 C 
HETATM    8  C13 UNL     1       3.964  33.180  79.492  1.00  0.00    -0.002 C 
HETATM    9  C14 UNL     1       2.777  32.342  79.153  1.00  0.00     0.032 C 
HETATM   10  C15 UNL     1       3.453  31.279  78.350  1.00  0.00    -0.023 C 
HETATM   11  C16 UNL     1       4.614  31.694  77.846  1.00  0.00    -0.078 C 
HETATM   12  C20 UNL     1       4.820  33.084  78.240  1.00  0.00     0.031 C 
HETATM   13  C21 UNL     1       6.131  33.606  78.639  1.00  0.00     0.008 C 
HETATM   14  C22 UNL     1       6.800  32.842  79.760  1.00  0.00     0.020 C 
ENDROOT
BRANCH   3  15
HETATM   15  C5  UNL     1       7.662  36.240  76.944  1.00  0.00     0.119 A 
HETATM   16  O1  UNL     1       6.696  37.093  76.729  1.00  0.00    -0.238 OA
HETATM   17  N1  UNL     1       6.966  37.873  75.725  1.00  0.00    -0.253 N 
HETATM   18  C6  UNL     1       8.150  37.576  75.209  1.00  0.00     0.155 A 
ATOM     19  H1  UNL     1       6.352  38.611  75.381  1.00  0.00     0.195 HD
HETATM   20  C8  UNL     1       8.631  36.515  75.982  1.00  0.00     0.132 A 
BRANCH  18  21
HETATM   21  C7  UNL     1       8.868  38.172  74.085  1.00  0.00     0.286 C 
HETATM   22  N2  UNL     1      10.194  38.641  74.248  1.00  0.00    -0.056 NA
HETATM   23  O2  UNL     1       8.317  38.272  72.960  1.00  0.00    -0.269 OA
ENDBRANCH  18  21
BRANCH  20  24
HETATM   24  O3  UNL     1       9.856  35.896  75.771  1.00  0.00    -0.356 OA
ATOM     25  H3  UNL     1      10.557  36.140  75.178  1.00  0.00     0.218 HD
ENDBRANCH  20  24
ENDBRANCH   3  15
BRANCH   1  26
HETATM   26  C2  UNL     1       8.261  32.876  77.514  1.00  0.00     0.007 C 
HETATM   27  C1  UNL     1       8.808  32.452  76.400  1.00  0.00     0.010 C 
ENDBRANCH   1  26
BRANCH  11  28
HETATM   28  C17 UNL     1       5.452  30.805  77.015  1.00  0.00     0.034 C 
BRANCH  28  29
HETATM   29  C18 UNL     1       5.765  29.453  77.665  1.00  0.00    -0.000 C 
HETATM   30  C19 UNL     1       7.085  29.426  78.363  1.00  0.00     0.005 C 
ENDBRANCH  28  29
ENDBRANCH  11  28
TORSDOF 6
ENDMDL
MODEL 3
REMARK VINA RESULT: -6.588938405      1.253      1.570
REMARK  6 active torsions:
REMARK  status: ('A' for Active; 'I' for Inactive)
REMARK    1  A    between atoms: C2_2  and  C3_3 
REMARK    2  A    between atoms: C4_5  and  C5_6 
REMARK    3  A    between atoms: C6_10  and  C7_11 
REMARK    4  A    between atoms: C8_14  and  O3_15 
REMARK    5  A    between atoms: C16_24  and  C17_25 
REMARK    6  A    between atoms: C17_25  and  C18_26 
ROOT
HETATM    1  C3  UNL     1       7.743  33.116  76.541  1.00  0.00     0.138 C 
HETATM    2  F1  UNL     1       7.225  33.391  75.279  1.00  0.00    -0.237 F 
HETATM    3  C4  UNL     1       8.099  34.430  77.189  1.00  0.00     0.093 C 
HETATM    4  C9  UNL     1       7.247  34.505  78.463  1.00  0.00     0.020 C 
HETATM    5  C10 UNL     1       6.060  33.734  78.001  1.00  0.00    -0.001 C 
HETATM    6  C11 UNL     1       5.042  33.474  79.039  1.00  0.00     0.006 C 
HETATM    7  C12 UNL     1       3.896  32.738  78.323  1.00  0.00     0.006 C 
HETATM    8  C13 UNL     1       4.568  31.496  77.816  1.00  0.00    -0.002 C 
HETATM    9  C14 UNL     1       3.627  30.531  77.175  1.00  0.00     0.032 C 
HETATM   10  C15 UNL     1       4.596  29.783  76.318  1.00  0.00    -0.023 C 
HETATM   11  C16 UNL     1       5.694  30.494  76.065  1.00  0.00    -0.078 C 
HETATM   12  C20 UNL     1       5.560  31.798  76.705  1.00  0.00     0.031 C 
HETATM   13  C21 UNL     1       6.681  32.469  77.372  1.00  0.00     0.008 C 
HETATM   14  C22 UNL     1       7.364  31.644  78.440  1.00  0.00     0.020 C 
ENDROOT
BRANCH   3  15
HETATM   15  C5  UNL     1       7.809  35.613  76.372  1.00  0.00     0.119 A 
HETATM   16  O1  UNL     1       6.725  36.318  76.187  1.00  0.00    -0.238 OA
HETATM   17  N1  UNL     1       6.933  37.299  75.360  1.00  0.00    -0.253 N 
HETATM   18  C6  UNL     1       8.190  37.299  74.942  1.00  0.00     0.155 A 
ATOM     19  H1  UNL     1       6.225  37.975  75.071  1.00  0.00     0.195 HD
HETATM   20  C8  UNL     1       8.790  36.211  75.584  1.00  0.00     0.132 A 
BRANCH  18  21
HETATM   21  C7  UNL     1       8.881  38.196  74.019  1.00  0.00     0.286 C 
HETATM   22  N2  UNL     1      10.168  38.697  74.332  1.00  0.00    -0.056 NA
HETATM   23  O2  UNL     1       8.340  38.531  72.935  1.00  0.00    -0.269 OA
ENDBRANCH  18  21
BRANCH  20  24
HETATM   24  O3  UNL     1      10.120  35.850  75.418  1.00  0.00    -0.356 OA
ATOM     25  H3  UNL     1      10.644  35.841  74.626  1.00  0.00     0.218 HD
ENDBRANCH  20  24
ENDBRANCH   3  15
BRANCH   1  26
HETATM   26  C2  UNL     1       9.028  32.371  76.469  1.00  0.00     0.007 C 
HETATM   27  C1  UNL     1       9.729  32.200  75.374  1.00  0.00     0.010 C 
ENDBRANCH   1  26
BRANCH  11  28
HETATM   28  C17 UNL     1       6.786  29.948  75.232  1.00  0.00     0.034 C 
BRANCH  28  29
HETATM   29  C18 UNL     1       7.613  28.859  75.923  1.00  0.00    -0.000 C 
HETATM   30  C19 UNL     1       8.799  28.425  75.126  1.00  0.00     0.005 C 
ENDBRANCH  28  29
ENDBRANCH  11  28
TORSDOF 6
ENDMDL
MODEL 4
REMARK VINA RESULT: -6.536220523      2.309      4.708
REMARK  6 active torsions:
REMARK  status: ('A' for Active; 'I' for Inactive)
REMARK    1  A    between atoms: C2_2  and  C3_3 
REMARK    2  A    between atoms: C4_5  and  C5_6 
REMARK    3  A    between atoms: C6_10  and  C7_11 
REMARK    4  A    between atoms: C8_14  and  O3_15 
REMARK    5  A    between atoms: C16_24  and  C17_25 
REMARK    6  A    between atoms: C17_25  and  C18_26 
ROOT
HETATM    1  C3  UNL     1       6.918  35.602  79.172  1.00  0.00     0.138 C 
HETATM    2  F1  UNL     1       8.265  35.879  79.387  1.00  0.00    -0.237 F 
HETATM    3  C4  UNL     1       6.649  35.741  77.696  1.00  0.00     0.093 C 
HETATM    4  C9  UNL     1       6.154  34.364  77.235  1.00  0.00     0.020 C 
HETATM    5  C10 UNL     1       6.910  33.508  78.191  1.00  0.00    -0.001 C 
HETATM    6  C11 UNL     1       6.580  32.070  78.136  1.00  0.00     0.006 C 
HETATM    7  C12 UNL     1       7.521  31.388  79.145  1.00  0.00     0.006 C 
HETATM    8  C13 UNL     1       7.142  32.042  80.442  1.00  0.00    -0.002 C 
HETATM    9  C14 UNL     1       7.838  31.460  81.627  1.00  0.00     0.032 C 
HETATM   10  C15 UNL     1       7.729  32.619  82.564  1.00  0.00    -0.023 C 
HETATM   11  C16 UNL     1       7.555  33.771  81.919  1.00  0.00    -0.078 C 
HETATM   12  C20 UNL     1       7.557  33.504  80.484  1.00  0.00     0.031 C 
HETATM   13  C21 UNL     1       6.647  34.181  79.555  1.00  0.00     0.008 C 
HETATM   14  C22 UNL     1       5.181  34.068  79.911  1.00  0.00     0.020 C 
ENDROOT
BRANCH   3  15
HETATM   15  C5  UNL     1       7.822  36.101  76.892  1.00  0.00     0.119 A 
HETATM   16  O1  UNL     1       9.056  35.672  76.884  1.00  0.00    -0.238 OA
HETATM   17  N1  UNL     1       9.767  36.287  75.986  1.00  0.00    -0.253 N 
HETATM   18  C6  UNL     1       9.029  37.175  75.335  1.00  0.00     0.155 A 
ATOM     19  H1  UNL     1      10.755  36.111  75.807  1.00  0.00     0.195 HD
HETATM   20  C8  UNL     1       7.754  37.079  75.902  1.00  0.00     0.132 A 
BRANCH  18  21
HETATM   21  C7  UNL     1       9.385  38.092  74.255  1.00  0.00     0.286 C 
HETATM   22  N2  UNL     1       8.523  38.261  73.144  1.00  0.00    -0.056 NA
HETATM   23  O2  UNL     1      10.460  38.742  74.302  1.00  0.00    -0.269 OA
ENDBRANCH  18  21
BRANCH  20  24
HETATM   24  O3  UNL     1       6.669  37.848  75.505  1.00  0.00    -0.356 OA
ATOM     25  H3  UNL     1       5.836  37.980  75.943  1.00  0.00     0.218 HD
ENDBRANCH  20  24
ENDBRANCH   3  15
BRANCH   1  26
HETATM   26  C2  UNL     1       6.030  36.607  79.813  1.00  0.00     0.007 C 
HETATM   27  C1  UNL     1       5.611  37.707  79.234  1.00  0.00     0.010 C 
ENDBRANCH   1  26
BRANCH  11  28
HETATM   28  C17 UNL     1       7.425  35.048  82.651  1.00  0.00     0.034 C 
BRANCH  28  29
HETATM   29  C18 UNL     1       8.690  35.912  82.632  1.00  0.00    -0.000 C 
HETATM   30  C19 UNL     1       9.287  36.114  83.985  1.00  0.00     0.005 C 
ENDBRANCH  28  29
ENDBRANCH  11  28
TORSDOF 6
ENDMDL
MODEL 5
REMARK VINA RESULT: -6.399430617      2.264      3.808
REMARK  6 active torsions:
REMARK  status: ('A' for Active; 'I' for Inactive)
REMARK    1  A    between atoms: C2_2  and  C3_3 
REMARK    2  A    between atoms: C4_5  and  C5_6 
REMARK    3  A    between atoms: C6_10  and  C7_11 
REMARK    4  A    between atoms: C8_14  and  O3_15 
REMARK    5  A    between atoms: C16_24  and  C17_25 
REMARK    6  A    between atoms: C17_25  and  C18_26 
ROOT
HETATM    1  C3  UNL     1       7.566  34.577  76.766  1.00  0.00     0.138 C 
HETATM    2  F1  UNL     1       6.892  35.204  75.723  1.00  0.00    -0.237 F 
HETATM    3  C4  UNL     1       7.407  35.431  77.998  1.00  0.00     0.093 C 
HETATM    4  C9  UNL     1       6.692  34.544  79.025  1.00  0.00     0.020 C 
HETATM    5  C10 UNL     1       5.887  33.705  78.095  1.00  0.00    -0.001 C 
HETATM    6  C11 UNL     1       5.138  32.605  78.737  1.00  0.00     0.006 C 
HETATM    7  C12 UNL     1       4.338  31.932  77.608  1.00  0.00     0.006 C 
HETATM    8  C13 UNL     1       5.417  31.461  76.676  1.00  0.00    -0.002 C 
HETATM    9  C14 UNL     1       4.902  30.652  75.533  1.00  0.00     0.032 C 
HETATM   10  C15 UNL     1       6.026  30.853  74.568  1.00  0.00    -0.023 C 
HETATM   11  C16 UNL     1       6.721  31.958  74.834  1.00  0.00    -0.078 C 
HETATM   12  C20 UNL     1       6.119  32.620  75.987  1.00  0.00     0.031 C 
HETATM   13  C21 UNL     1       6.919  33.256  77.039  1.00  0.00     0.008 C 
HETATM   14  C22 UNL     1       7.952  32.355  77.678  1.00  0.00     0.020 C 
ENDROOT
BRANCH   3  15
HETATM   15  C5  UNL     1       6.606  36.644  77.800  1.00  0.00     0.119 A 
HETATM   16  O1  UNL     1       6.404  37.414  76.764  1.00  0.00    -0.238 OA
HETATM   17  N1  UNL     1       5.604  38.397  77.053  1.00  0.00    -0.253 N 
HETATM   18  C6  UNL     1       5.223  38.332  78.320  1.00  0.00     0.155 A 
ATOM     19  H1  UNL     1       5.311  39.119  76.394  1.00  0.00     0.195 HD
HETATM   20  C8  UNL     1       5.859  37.199  78.837  1.00  0.00     0.132 A 
BRANCH  18  21
HETATM   21  C7  UNL     1       4.340  39.206  79.088  1.00  0.00     0.286 C 
HETATM   22  N2  UNL     1       4.528  40.609  79.073  1.00  0.00    -0.056 NA
HETATM   23  O2  UNL     1       3.402  38.721  79.770  1.00  0.00    -0.269 OA
ENDBRANCH  18  21
BRANCH  20  24
HETATM   24  O3  UNL     1       5.727  36.767  80.150  1.00  0.00    -0.356 OA
ATOM     25  H3  UNL     1       6.004  35.947  80.541  1.00  0.00     0.218 HD
ENDBRANCH  20  24
ENDBRANCH   3  15
BRANCH   1  26
HETATM   26  C2  UNL     1       9.033  34.522  76.532  1.00  0.00     0.007 C 
HETATM   27  C1  UNL     1       9.763  35.540  76.140  1.00  0.00     0.010 C 
ENDBRANCH   1  26
BRANCH  11  28
HETATM   28  C17 UNL     1       7.878  32.354  74.004  1.00  0.00     0.034 C 
BRANCH  28  29
HETATM   29  C18 UNL     1       8.944  31.263  73.855  1.00  0.00    -0.000 C 
HETATM   30  C19 UNL     1      10.208  31.570  74.588  1.00  0.00     0.005 C 
ENDBRANCH  28  29
ENDBRANCH  11  28
TORSDOF 6
ENDMDL
