MODEL 1
REMARK VINA RESULT: -7.531598524      0.000      0.000
REMARK  14 active torsions:
REMARK  status: ('A' for Active; 'I' for Inactive)
REMARK    1  A    between atoms: C1_4  and  C2_5 
REMARK    2  A    between atoms: C2_5  and  O2_7 
REMARK    3  A    between atoms: O2_7  and  C3_8 
REMARK    4  A    between atoms: C3_8  and  C4_9 
REMARK    5  A    between atoms: C5_10  and  O3_11 
REMARK    6  A    between atoms: C6_13  and  S1_14 
REMARK    7  A    between atoms: S1_14  and  C7_15 
REMARK    8  A    between atoms: C7_15  and  C8_16 
REMARK    9  A    between atoms: C8_16  and  C9_17 
REMARK   10  A    between atoms: C9_17  and  C10_18 
REMARK   11  A    between atoms: C10_18  and  C11_19 
REMARK   12  A    between atoms: C11_19  and  O4_20 
REMARK   13  A    between atoms: C15_27  and  O7_28 
REMARK   14  A    between atoms: C15_27  and  C16_30 
ROOT
HETATM    1  C4  UNL     1      21.781  65.126  45.970  1.00  0.00     0.284 C 
HETATM    2  C5  UNL     1      22.126  63.713  46.380  1.00  0.00     0.172 C 
HETATM    3  C6  UNL     1      20.875  62.907  46.150  1.00  0.00     0.137 C 
HETATM    4  C12 UNL     1      19.812  63.945  46.360  1.00  0.00     0.380 C 
HETATM    5  O5  UNL     1      18.627  63.714  45.693  1.00  0.00    -0.348 OA
HETATM    6  C13 UNL     1      17.840  64.884  45.888  1.00  0.00     0.254 C 
HETATM    7  C14 UNL     1      18.385  65.590  47.068  1.00  0.00     0.216 C 
HETATM    8  O6  UNL     1      17.743  65.645  48.080  1.00  0.00    -0.290 OA
HETATM    9  C15 UNL     1      19.767  66.205  46.888  1.00  0.00     0.329 C 
HETATM   10  N2  UNL     1      20.397  65.225  46.030  1.00  0.00     0.171 N 
ENDROOT
BRANCH   1  11
HETATM   11  C3  UNL     1      22.350  65.285  44.552  1.00  0.00     0.217 C 
BRANCH  11  12
HETATM   12  O2  UNL     1      23.704  65.629  44.560  1.00  0.00    -0.315 OA
BRANCH  12  13
HETATM   13  C2  UNL     1      24.359  66.496  45.384  1.00  0.00     0.298 C 
HETATM   14  O1  UNL     1      24.178  67.728  45.251  1.00  0.00    -0.259 OA
BRANCH  13  15
HETATM   15  C1  UNL     1      25.282  66.034  46.435  1.00  0.00     0.163 C 
HETATM   16  N1  UNL     1      24.882  65.800  47.628  1.00  0.00    -0.403 N 
ATOM     17  H12 UNL     1      23.895  65.942  47.840  1.00  0.00     0.155 HD
ATOM     18  H11 UNL     1      25.521  65.480  48.356  1.00  0.00     0.155 HD
ENDBRANCH  13  15
ENDBRANCH  12  13
ENDBRANCH  11  12
ENDBRANCH   1  11
BRANCH   2  19
HETATM   19  O3  UNL     1      22.537  63.660  47.716  1.00  0.00    -0.392 OA
ATOM     20  H3  UNL     1      23.396  63.261  47.796  1.00  0.00     0.210 HD
ENDBRANCH   2  19
BRANCH   3  21
HETATM   21  S1  UNL     1      20.717  62.188  44.529  1.00  0.00    -0.157 SA
BRANCH  21  22
HETATM   22  C7  UNL     1      19.641  60.739  44.506  1.00  0.00     0.074 C 
BRANCH  22  23
HETATM   23  C8  UNL     1      18.547  60.971  43.465  1.00  0.00     0.010 C 
BRANCH  23  24
HETATM   24  C9  UNL     1      19.217  61.301  42.171  1.00  0.00     0.003 C 
BRANCH  24  25
HETATM   25  C10 UNL     1      18.320  61.409  40.990  1.00  0.00     0.026 C 
BRANCH  25  26
HETATM   26  C11 UNL     1      17.812  62.774  40.656  1.00  0.00     0.164 C 
BRANCH  26  27
HETATM   27  O4  UNL     1      16.700  63.184  41.369  1.00  0.00    -0.401 OA
ATOM     28  H4  UNL     1      16.551  64.122  41.388  1.00  0.00     0.209 HD
ENDBRANCH  26  27
ENDBRANCH  25  26
ENDBRANCH  24  25
ENDBRANCH  23  24
ENDBRANCH  22  23
ENDBRANCH  21  22
ENDBRANCH   3  21
BRANCH   9  29
HETATM   29  O7  UNL     1      20.313  66.315  48.136  1.00  0.00    -0.357 OA
ATOM     30  H7  UNL     1      20.591  67.218  48.234  1.00  0.00     0.213 HD
ENDBRANCH   9  29
BRANCH   9  31
HETATM   31  C16 UNL     1      19.551  67.551  46.217  1.00  0.00     0.060 C 
HETATM   32  C17 UNL     1      20.879  68.326  46.337  1.00  0.00     0.010 C 
HETATM   33  C18 UNL     1      20.724  69.667  45.671  1.00  0.00     0.001 C 
HETATM   34  C19 UNL     1      20.342  69.612  44.234  1.00  0.00     0.000 C 
HETATM   35  C20 UNL     1      19.222  68.636  43.961  1.00  0.00     0.001 C 
HETATM   36  C21 UNL     1      19.395  67.346  44.722  1.00  0.00     0.010 C 
ENDBRANCH   9  31
TORSDOF 14
ENDMDL
MODEL 2
REMARK VINA RESULT: -7.399986836      2.898      6.629
REMARK  14 active torsions:
REMARK  status: ('A' for Active; 'I' for Inactive)
REMARK    1  A    between atoms: C1_4  and  C2_5 
REMARK    2  A    between atoms: C2_5  and  O2_7 
REMARK    3  A    between atoms: O2_7  and  C3_8 
REMARK    4  A    between atoms: C3_8  and  C4_9 
REMARK    5  A    between atoms: C5_10  and  O3_11 
REMARK    6  A    between atoms: C6_13  and  S1_14 
REMARK    7  A    between atoms: S1_14  and  C7_15 
REMARK    8  A    between atoms: C7_15  and  C8_16 
REMARK    9  A    between atoms: C8_16  and  C9_17 
REMARK   10  A    between atoms: C9_17  and  C10_18 
REMARK   11  A    between atoms: C10_18  and  C11_19 
REMARK   12  A    between atoms: C11_19  and  O4_20 
REMARK   13  A    between atoms: C15_27  and  O7_28 
REMARK   14  A    between atoms: C15_27  and  C16_30 
ROOT
HETATM    1  C4  UNL     1      20.497  63.500  45.196  1.00  0.00     0.284 C 
HETATM    2  C5  UNL     1      21.439  63.224  46.344  1.00  0.00     0.172 C 
HETATM    3  C6  UNL     1      22.791  63.700  45.883  1.00  0.00     0.137 C 
HETATM    4  C12 UNL     1      22.686  63.498  44.399  1.00  0.00     0.380 C 
HETATM    5  O5  UNL     1      23.481  64.329  43.637  1.00  0.00    -0.348 OA
HETATM    6  C13 UNL     1      23.101  64.092  42.285  1.00  0.00     0.254 C 
HETATM    7  C14 UNL     1      22.423  62.777  42.242  1.00  0.00     0.216 C 
HETATM    8  O6  UNL     1      22.949  61.852  41.688  1.00  0.00    -0.290 OA
HETATM    9  C15 UNL     1      21.067  62.712  42.933  1.00  0.00     0.329 C 
HETATM   10  N2  UNL     1      21.284  63.598  44.056  1.00  0.00     0.171 N 
ENDROOT
BRANCH   1  11
HETATM   11  C3  UNL     1      19.782  64.808  45.566  1.00  0.00     0.217 C 
BRANCH  11  12
HETATM   12  O2  UNL     1      18.998  64.677  46.714  1.00  0.00    -0.315 OA
BRANCH  12  13
HETATM   13  C2  UNL     1      17.927  65.425  47.107  1.00  0.00     0.298 C 
HETATM   14  O1  UNL     1      16.819  65.252  46.552  1.00  0.00    -0.259 OA
BRANCH  13  15
HETATM   15  C1  UNL     1      18.026  66.440  48.170  1.00  0.00     0.163 C 
HETATM   16  N1  UNL     1      18.974  66.425  49.030  1.00  0.00    -0.403 N 
ATOM     17  H12 UNL     1      19.670  65.684  48.964  1.00  0.00     0.155 HD
ATOM     18  H11 UNL     1      19.042  67.128  49.766  1.00  0.00     0.155 HD
ENDBRANCH  13  15
ENDBRANCH  12  13
ENDBRANCH  11  12
ENDBRANCH   1  11
BRANCH   2  19
HETATM   19  O3  UNL     1      21.453  61.863  46.671  1.00  0.00    -0.392 OA
ATOM     20  H3  UNL     1      22.314  61.486  46.533  1.00  0.00     0.210 HD
ENDBRANCH   2  19
BRANCH   3  21
HETATM   21  S1  UNL     1      23.165  65.403  46.244  1.00  0.00    -0.157 SA
BRANCH  21  22
HETATM   22  C7  UNL     1      23.264  65.739  48.015  1.00  0.00     0.074 C 
BRANCH  22  23
HETATM   23  C8  UNL     1      24.081  64.626  48.669  1.00  0.00     0.010 C 
BRANCH  23  24
HETATM   24  C9  UNL     1      23.278  64.081  49.803  1.00  0.00     0.003 C 
BRANCH  24  25
HETATM   25  C10 UNL     1      21.832  64.429  49.795  1.00  0.00     0.026 C 
BRANCH  25  26
HETATM   26  C11 UNL     1      20.869  63.303  49.981  1.00  0.00     0.164 C 
BRANCH  26  27
HETATM   27  O4  UNL     1      19.796  63.289  49.107  1.00  0.00    -0.401 OA
ATOM     28  H4  UNL     1      19.492  64.141  48.822  1.00  0.00     0.209 HD
ENDBRANCH  26  27
ENDBRANCH  25  26
ENDBRANCH  24  25
ENDBRANCH  23  24
ENDBRANCH  22  23
ENDBRANCH  21  22
ENDBRANCH   3  21
BRANCH   9  29
HETATM   29  O7  UNL     1      20.858  61.403  43.264  1.00  0.00    -0.357 OA
ATOM     30  H7  UNL     1      20.640  60.949  42.459  1.00  0.00     0.213 HD
ENDBRANCH   9  29
BRANCH   9  31
HETATM   31  C16 UNL     1      20.052  63.238  41.932  1.00  0.00     0.060 C 
HETATM   32  C17 UNL     1      20.329  62.516  40.597  1.00  0.00     0.010 C 
HETATM   33  C18 UNL     1      19.335  62.991  39.570  1.00  0.00     0.001 C 
HETATM   34  C19 UNL     1      17.908  62.774  39.932  1.00  0.00     0.000 C 
HETATM   35  C20 UNL     1      17.594  63.181  41.353  1.00  0.00     0.001 C 
HETATM   36  C21 UNL     1      18.668  62.748  42.318  1.00  0.00     0.010 C 
ENDBRANCH   9  31
TORSDOF 14
ENDMDL
MODEL 3
REMARK VINA RESULT: -7.339947644      1.463      1.579
REMARK  14 active torsions:
REMARK  status: ('A' for Active; 'I' for Inactive)
REMARK    1  A    between atoms: C1_4  and  C2_5 
REMARK    2  A    between atoms: C2_5  and  O2_7 
REMARK    3  A    between atoms: O2_7  and  C3_8 
REMARK    4  A    between atoms: C3_8  and  C4_9 
REMARK    5  A    between atoms: C5_10  and  O3_11 
REMARK    6  A    between atoms: C6_13  and  S1_14 
REMARK    7  A    between atoms: S1_14  and  C7_15 
REMARK    8  A    between atoms: C7_15  and  C8_16 
REMARK    9  A    between atoms: C8_16  and  C9_17 
REMARK   10  A    between atoms: C9_17  and  C10_18 
REMARK   11  A    between atoms: C10_18  and  C11_19 
REMARK   12  A    between atoms: C11_19  and  O4_20 
REMARK   13  A    between atoms: C15_27  and  O7_28 
REMARK   14  A    between atoms: C15_27  and  C16_30 
ROOT
HETATM    1  C4  UNL     1      21.998  65.232  46.211  1.00  0.00     0.284 C 
HETATM    2  C5  UNL     1      22.400  63.830  46.605  1.00  0.00     0.172 C 
HETATM    3  C6  UNL     1      21.263  62.944  46.171  1.00  0.00     0.137 C 
HETATM    4  C12 UNL     1      20.098  63.885  46.275  1.00  0.00     0.380 C 
HETATM    5  O5  UNL     1      19.037  63.600  45.441  1.00  0.00    -0.348 OA
HETATM    6  C13 UNL     1      18.137  64.694  45.575  1.00  0.00     0.254 C 
HETATM    7  C14 UNL     1      18.458  65.376  46.848  1.00  0.00     0.216 C 
HETATM    8  O6  UNL     1      17.684  65.329  47.763  1.00  0.00    -0.290 OA
HETATM    9  C15 UNL     1      19.796  66.104  46.886  1.00  0.00     0.329 C 
HETATM   10  N2  UNL     1      20.615  65.222  46.083  1.00  0.00     0.171 N 
ENDROOT
BRANCH   1  11
HETATM   11  C3  UNL     1      22.737  65.509  44.893  1.00  0.00     0.217 C 
BRANCH  11  12
HETATM   12  O2  UNL     1      23.984  64.883  44.843  1.00  0.00    -0.315 OA
BRANCH  12  13
HETATM   13  C2  UNL     1      24.777  64.645  43.760  1.00  0.00     0.298 C 
HETATM   14  O1  UNL     1      24.494  65.173  42.661  1.00  0.00    -0.259 OA
BRANCH  13  15
HETATM   15  C1  UNL     1      25.967  63.779  43.833  1.00  0.00     0.163 C 
HETATM   16  N1  UNL     1      27.008  64.003  43.123  1.00  0.00    -0.403 N 
ATOM     17  H12 UNL     1      26.997  64.805  42.494  1.00  0.00     0.155 HD
ATOM     18  H11 UNL     1      27.832  63.404  43.173  1.00  0.00     0.155 HD
ENDBRANCH  13  15
ENDBRANCH  12  13
ENDBRANCH  11  12
ENDBRANCH   1  11
BRANCH   2  19
HETATM   19  O3  UNL     1      22.632  63.738  47.982  1.00  0.00    -0.392 OA
ATOM     20  H3  UNL     1      23.397  64.241  48.236  1.00  0.00     0.210 HD
ENDBRANCH   2  19
BRANCH   3  21
HETATM   21  S1  UNL     1      21.384  62.301  44.515  1.00  0.00    -0.157 SA
BRANCH  21  22
HETATM   22  C7  UNL     1      20.194  60.986  44.184  1.00  0.00     0.074 C 
BRANCH  22  23
HETATM   23  C8  UNL     1      19.736  61.109  42.731  1.00  0.00     0.010 C 
BRANCH  23  24
HETATM   24  C9  UNL     1      18.242  61.096  42.725  1.00  0.00     0.003 C 
BRANCH  24  25
HETATM   25  C10 UNL     1      17.592  62.106  41.848  1.00  0.00     0.026 C 
BRANCH  25  26
HETATM   26  C11 UNL     1      18.324  62.483  40.601  1.00  0.00     0.164 C 
BRANCH  26  27
HETATM   27  O4  UNL     1      18.310  61.533  39.596  1.00  0.00    -0.401 OA
ATOM     28  H4  UNL     1      19.152  61.141  39.395  1.00  0.00     0.209 HD
ENDBRANCH  26  27
ENDBRANCH  25  26
ENDBRANCH  24  25
ENDBRANCH  23  24
ENDBRANCH  22  23
ENDBRANCH  21  22
ENDBRANCH   3  21
BRANCH   9  29
HETATM   29  O7  UNL     1      20.159  66.189  48.201  1.00  0.00    -0.357 OA
ATOM     30  H7  UNL     1      21.102  66.302  48.217  1.00  0.00     0.213 HD
ENDBRANCH   9  29
BRANCH   9  31
HETATM   31  C16 UNL     1      19.561  67.463  46.249  1.00  0.00     0.060 C 
HETATM   32  C17 UNL     1      20.854  68.280  46.453  1.00  0.00     0.010 C 
HETATM   33  C18 UNL     1      20.680  69.636  45.823  1.00  0.00     0.001 C 
HETATM   34  C19 UNL     1      20.363  69.615  44.370  1.00  0.00     0.000 C 
HETATM   35  C20 UNL     1      19.292  68.610  44.015  1.00  0.00     0.001 C 
HETATM   36  C21 UNL     1      19.478  67.303  44.743  1.00  0.00     0.010 C 
ENDBRANCH   9  31
TORSDOF 14
ENDMDL
MODEL 4
REMARK VINA RESULT: -7.314251586      1.240      1.395
REMARK  14 active torsions:
REMARK  status: ('A' for Active; 'I' for Inactive)
REMARK    1  A    between atoms: C1_4  and  C2_5 
REMARK    2  A    between atoms: C2_5  and  O2_7 
REMARK    3  A    between atoms: O2_7  and  C3_8 
REMARK    4  A    between atoms: C3_8  and  C4_9 
REMARK    5  A    between atoms: C5_10  and  O3_11 
REMARK    6  A    between atoms: C6_13  and  S1_14 
REMARK    7  A    between atoms: S1_14  and  C7_15 
REMARK    8  A    between atoms: C7_15  and  C8_16 
REMARK    9  A    between atoms: C8_16  and  C9_17 
REMARK   10  A    between atoms: C9_17  and  C10_18 
REMARK   11  A    between atoms: C10_18  and  C11_19 
REMARK   12  A    between atoms: C11_19  and  O4_20 
REMARK   13  A    between atoms: C15_27  and  O7_28 
REMARK   14  A    between atoms: C15_27  and  C16_30 
ROOT
HETATM    1  C4  UNL     1      21.824  65.132  46.221  1.00  0.00     0.284 C 
HETATM    2  C5  UNL     1      22.153  63.722  46.653  1.00  0.00     0.172 C 
HETATM    3  C6  UNL     1      20.930  62.904  46.332  1.00  0.00     0.137 C 
HETATM    4  C12 UNL     1      19.844  63.931  46.466  1.00  0.00     0.380 C 
HETATM    5  O5  UNL     1      18.712  63.689  45.714  1.00  0.00    -0.348 OA
HETATM    6  C13 UNL     1      17.902  64.851  45.853  1.00  0.00     0.254 C 
HETATM    7  C14 UNL     1      18.353  65.560  47.071  1.00  0.00     0.216 C 
HETATM    8  O6  UNL     1      17.639  65.607  48.034  1.00  0.00    -0.290 OA
HETATM    9  C15 UNL     1      19.738  66.190  46.992  1.00  0.00     0.329 C 
HETATM   10  N2  UNL     1      20.439  65.218  46.181  1.00  0.00     0.171 N 
ENDROOT
BRANCH   1  11
HETATM   11  C3  UNL     1      22.493  65.300  44.848  1.00  0.00     0.217 C 
BRANCH  11  12
HETATM   12  O2  UNL     1      23.699  65.999  44.928  1.00  0.00    -0.315 OA
BRANCH  12  13
HETATM   13  C2  UNL     1      24.925  65.544  45.313  1.00  0.00     0.298 C 
HETATM   14  O1  UNL     1      25.560  64.771  44.561  1.00  0.00    -0.259 OA
BRANCH  13  15
HETATM   15  C1  UNL     1      25.538  65.930  46.597  1.00  0.00     0.163 C 
HETATM   16  N1  UNL     1      25.037  65.569  47.718  1.00  0.00    -0.403 N 
ATOM     17  H12 UNL     1      24.191  65.000  47.705  1.00  0.00     0.155 HD
ATOM     18  H11 UNL     1      25.461  65.836  48.606  1.00  0.00     0.155 HD
ENDBRANCH  13  15
ENDBRANCH  12  13
ENDBRANCH  11  12
ENDBRANCH   1  11
BRANCH   2  19
HETATM   19  O3  UNL     1      22.467  63.670  48.015  1.00  0.00    -0.392 OA
ATOM     20  H3  UNL     1      23.393  63.826  48.160  1.00  0.00     0.210 HD
ENDBRANCH   2  19
BRANCH   3  21
HETATM   21  S1  UNL     1      20.897  62.186  44.703  1.00  0.00    -0.157 SA
BRANCH  21  22
HETATM   22  C7  UNL     1      19.802  60.756  44.589  1.00  0.00     0.074 C 
BRANCH  22  23
HETATM   23  C8  UNL     1      18.785  61.020  43.479  1.00  0.00     0.010 C 
BRANCH  23  24
HETATM   24  C9  UNL     1      19.414  61.958  42.502  1.00  0.00     0.003 C 
BRANCH  24  25
HETATM   25  C10 UNL     1      19.721  61.385  41.164  1.00  0.00     0.026 C 
BRANCH  25  26
HETATM   26  C11 UNL     1      21.003  61.813  40.529  1.00  0.00     0.164 C 
BRANCH  26  27
HETATM   27  O4  UNL     1      21.733  60.803  39.928  1.00  0.00    -0.401 OA
ATOM     28  H4  UNL     1      22.508  61.085  39.456  1.00  0.00     0.209 HD
ENDBRANCH  26  27
ENDBRANCH  25  26
ENDBRANCH  24  25
ENDBRANCH  23  24
ENDBRANCH  22  23
ENDBRANCH  21  22
ENDBRANCH   3  21
BRANCH   9  29
HETATM   29  O7  UNL     1      20.192  66.302  48.276  1.00  0.00    -0.357 OA
ATOM     30  H7  UNL     1      19.795  67.085  48.638  1.00  0.00     0.213 HD
ENDBRANCH   9  29
BRANCH   9  31
HETATM   31  C16 UNL     1      19.558  67.534  46.309  1.00  0.00     0.060 C 
HETATM   32  C17 UNL     1      20.902  68.281  46.435  1.00  0.00     0.010 C 
HETATM   33  C18 UNL     1      20.782  69.620  45.757  1.00  0.00     0.001 C 
HETATM   34  C19 UNL     1      20.411  69.563  44.318  1.00  0.00     0.000 C 
HETATM   35  C20 UNL     1      19.272  68.608  44.041  1.00  0.00     0.001 C 
HETATM   36  C21 UNL     1      19.410  67.322  44.814  1.00  0.00     0.010 C 
ENDBRANCH   9  31
TORSDOF 14
ENDMDL
MODEL 5
REMARK VINA RESULT: -7.282876917      2.881      4.908
REMARK  14 active torsions:
REMARK  status: ('A' for Active; 'I' for Inactive)
REMARK    1  A    between atoms: C1_4  and  C2_5 
REMARK    2  A    between atoms: C2_5  and  O2_7 
REMARK    3  A    between atoms: O2_7  and  C3_8 
REMARK    4  A    between atoms: C3_8  and  C4_9 
REMARK    5  A    between atoms: C5_10  and  O3_11 
REMARK    6  A    between atoms: C6_13  and  S1_14 
REMARK    7  A    between atoms: S1_14  and  C7_15 
REMARK    8  A    between atoms: C7_15  and  C8_16 
REMARK    9  A    between atoms: C8_16  and  C9_17 
REMARK   10  A    between atoms: C9_17  and  C10_18 
REMARK   11  A    between atoms: C10_18  and  C11_19 
REMARK   12  A    between atoms: C11_19  and  O4_20 
REMARK   13  A    between atoms: C15_27  and  O7_28 
REMARK   14  A    between atoms: C15_27  and  C16_30 
ROOT
HETATM    1  C4  UNL     1      22.430  62.790  46.028  1.00  0.00     0.284 C 
HETATM    2  C5  UNL     1      20.967  62.558  46.329  1.00  0.00     0.172 C 
HETATM    3  C6  UNL     1      20.328  63.920  46.306  1.00  0.00     0.137 C 
HETATM    4  C12 UNL     1      21.472  64.792  46.735  1.00  0.00     0.380 C 
HETATM    5  O5  UNL     1      21.416  66.096  46.286  1.00  0.00    -0.348 OA
HETATM    6  C13 UNL     1      22.660  66.683  46.653  1.00  0.00     0.254 C 
HETATM    7  C14 UNL     1      23.236  65.854  47.735  1.00  0.00     0.216 C 
HETATM    8  O6  UNL     1      23.316  66.296  48.848  1.00  0.00    -0.290 OA
HETATM    9  C15 UNL     1      23.692  64.460  47.325  1.00  0.00     0.329 C 
HETATM   10  N2  UNL     1      22.689  64.118  46.340  1.00  0.00     0.171 N 
ENDROOT
BRANCH   1  11
HETATM   11  C3  UNL     1      22.592  62.464  44.536  1.00  0.00     0.217 C 
BRANCH  11  12
HETATM   12  O2  UNL     1      23.297  63.456  43.850  1.00  0.00    -0.315 OA
BRANCH  12  13
HETATM   13  C2  UNL     1      24.450  63.342  43.132  1.00  0.00     0.298 C 
HETATM   14  O1  UNL     1      24.761  62.234  42.638  1.00  0.00    -0.259 OA
BRANCH  13  15
HETATM   15  C1  UNL     1      25.355  64.484  42.912  1.00  0.00     0.163 C 
HETATM   16  N1  UNL     1      26.591  64.318  42.624  1.00  0.00    -0.403 N 
ATOM     17  H12 UNL     1      26.943  63.365  42.549  1.00  0.00     0.155 HD
ATOM     18  H11 UNL     1      27.217  65.109  42.473  1.00  0.00     0.155 HD
ENDBRANCH  13  15
ENDBRANCH  12  13
ENDBRANCH  11  12
ENDBRANCH   1  11
BRANCH   2  19
HETATM   19  O3  UNL     1      20.799  61.928  47.567  1.00  0.00    -0.392 OA
ATOM     20  H3  UNL     1      20.018  61.386  47.573  1.00  0.00     0.210 HD
ENDBRANCH   2  19
BRANCH   3  21
HETATM   21  S1  UNL     1      19.714  64.450  44.721  1.00  0.00    -0.157 SA
BRANCH  21  22
HETATM   22  C7  UNL     1      18.858  63.138  43.826  1.00  0.00     0.074 C 
BRANCH  22  23
HETATM   23  C8  UNL     1      19.628  62.856  42.537  1.00  0.00     0.010 C 
BRANCH  23  24
HETATM   24  C9  UNL     1      19.747  61.375  42.395  1.00  0.00     0.003 C 
BRANCH  24  25
HETATM   25  C10 UNL     1      20.704  60.900  41.360  1.00  0.00     0.026 C 
BRANCH  25  26
HETATM   26  C11 UNL     1      21.710  61.891  40.872  1.00  0.00     0.164 C 
BRANCH  26  27
HETATM   27  O4  UNL     1      22.950  61.368  40.551  1.00  0.00    -0.401 OA
ATOM     28  H4  UNL     1      23.668  61.988  40.558  1.00  0.00     0.209 HD
ENDBRANCH  26  27
ENDBRANCH  25  26
ENDBRANCH  24  25
ENDBRANCH  23  24
ENDBRANCH  22  23
ENDBRANCH  21  22
ENDBRANCH   3  21
BRANCH   9  29
HETATM   29  O7  UNL     1      23.674  63.693  48.456  1.00  0.00    -0.357 OA
ATOM     30  H7  UNL     1      24.467  63.170  48.444  1.00  0.00     0.213 HD
ENDBRANCH   9  29
BRANCH   9  31
HETATM   31  C16 UNL     1      25.086  64.620  46.743  1.00  0.00     0.060 C 
HETATM   32  C17 UNL     1      25.950  65.289  47.832  1.00  0.00     0.010 C 
HETATM   33  C18 UNL     1      27.351  65.457  47.310  1.00  0.00     0.001 C 
HETATM   34  C19 UNL     1      28.020  64.195  46.892  1.00  0.00     0.000 C 
HETATM   35  C20 UNL     1      27.131  63.311  46.049  1.00  0.00     0.001 C 
HETATM   36  C21 UNL     1      25.721  63.252  46.579  1.00  0.00     0.010 C 
ENDBRANCH   9  31
TORSDOF 14
ENDMDL
