MODEL 1
REMARK VINA RESULT: -4.995801503      0.000      0.000
REMARK  1 active torsions:
REMARK  status: ('A' for Active; 'I' for Inactive)
REMARK    1  A    between atoms: N3_5  and  O2_6 
ROOT
HETATM    1  C1  UNL     1      55.857  22.398  40.292  1.00  0.00     0.199 C 
HETATM    2  N1  UNL     1      55.106  23.592  40.546  1.00  0.00    -0.197 N 
HETATM    3  N2  UNL     1      55.623  24.806  40.359  1.00  0.00     0.070 NA
HETATM    4  O1  UNL     1      54.767  25.719  40.651  1.00  0.00    -0.095 OA
HETATM    5  N3  UNL     1      53.694  25.105  41.027  1.00  0.00    -0.018 N 
HETATM    6  N4  UNL     1      53.885  23.797  40.968  1.00  0.00    -0.178 N 
ATOM      7  H4  UNL     1      53.203  23.078  41.209  1.00  0.00     0.214 HD
ENDROOT
BRANCH   5   8
HETATM    8  O2  UNL     1      52.535  25.688  41.425  1.00  0.00    -0.246 OA
ATOM      9  H2  UNL     1      51.698  25.253  41.537  1.00  0.00     0.249 HD
ENDBRANCH   5   8
TORSDOF 1
ENDMDL
MODEL 2
REMARK VINA RESULT: -4.660203540      9.488      9.993
REMARK  1 active torsions:
REMARK  status: ('A' for Active; 'I' for Inactive)
REMARK    1  A    between atoms: N3_5  and  O2_6 
ROOT
HETATM    1  C1  UNL     1      46.686  28.656  45.059  1.00  0.00     0.199 C 
HETATM    2  N1  UNL     1      46.809  27.415  45.767  1.00  0.00    -0.197 N 
HETATM    3  N2  UNL     1      46.750  27.351  47.098  1.00  0.00     0.070 NA
HETATM    4  O1  UNL     1      46.885  26.140  47.504  1.00  0.00    -0.095 OA
HETATM    5  N3  UNL     1      47.031  25.414  46.445  1.00  0.00    -0.018 N 
HETATM    6  N4  UNL     1      46.987  26.183  45.368  1.00  0.00    -0.178 N 
ATOM      7  H4  UNL     1      47.075  25.870  44.402  1.00  0.00     0.214 HD
ENDROOT
BRANCH   5   8
HETATM    8  O2  UNL     1      47.205  24.069  46.413  1.00  0.00    -0.246 OA
ATOM      9  H2  UNL     1      47.929  23.606  46.008  1.00  0.00     0.249 HD
ENDBRANCH   5   8
TORSDOF 1
ENDMDL
MODEL 3
REMARK VINA RESULT: -4.561467006      1.290      1.515
REMARK  1 active torsions:
REMARK  status: ('A' for Active; 'I' for Inactive)
REMARK    1  A    between atoms: N3_5  and  O2_6 
ROOT
HETATM    1  C1  UNL     1      56.944  23.825  40.844  1.00  0.00     0.199 C 
HETATM    2  N1  UNL     1      55.540  24.110  40.820  1.00  0.00    -0.197 N 
HETATM    3  N2  UNL     1      54.652  23.250  40.320  1.00  0.00     0.070 NA
HETATM    4  O1  UNL     1      53.460  23.720  40.406  1.00  0.00    -0.095 OA
HETATM    5  N3  UNL     1      53.565  24.883  40.961  1.00  0.00    -0.018 N 
HETATM    6  N4  UNL     1      54.838  25.137  41.222  1.00  0.00    -0.178 N 
ATOM      7  H4  UNL     1      55.205  25.983  41.657  1.00  0.00     0.214 HD
ENDROOT
BRANCH   5   8
HETATM    8  O2  UNL     1      52.545  25.731  41.244  1.00  0.00    -0.246 OA
ATOM      9  H2  UNL     1      52.253  25.988  42.111  1.00  0.00     0.249 HD
ENDBRANCH   5   8
TORSDOF 1
ENDMDL
MODEL 4
REMARK VINA RESULT: -4.504883027      9.108      9.535
REMARK  1 active torsions:
REMARK  status: ('A' for Active; 'I' for Inactive)
REMARK    1  A    between atoms: N3_5  and  O2_6 
ROOT
HETATM    1  C1  UNL     1      47.018  26.525  46.959  1.00  0.00     0.199 C 
HETATM    2  N1  UNL     1      46.756  27.014  45.637  1.00  0.00    -0.197 N 
HETATM    3  N2  UNL     1      46.459  28.293  45.402  1.00  0.00     0.070 NA
HETATM    4  O1  UNL     1      46.265  28.494  44.148  1.00  0.00    -0.095 OA
HETATM    5  N3  UNL     1      46.436  27.354  43.565  1.00  0.00    -0.018 N 
HETATM    6  N4  UNL     1      46.738  26.433  44.466  1.00  0.00    -0.178 N 
ATOM      7  H4  UNL     1      46.923  25.448  44.281  1.00  0.00     0.214 HD
ENDROOT
BRANCH   5   8
HETATM    8  O2  UNL     1      46.328  27.111  42.234  1.00  0.00    -0.246 OA
ATOM      9  H2  UNL     1      46.665  26.351  41.773  1.00  0.00     0.249 HD
ENDBRANCH   5   8
TORSDOF 1
ENDMDL
MODEL 5
REMARK VINA RESULT: -4.327758308      1.652      1.730
REMARK  1 active torsions:
REMARK  status: ('A' for Active; 'I' for Inactive)
REMARK    1  A    between atoms: N3_5  and  O2_6 
ROOT
HETATM    1  C1  UNL     1      56.943  24.504  41.825  1.00  0.00     0.199 C 
HETATM    2  N1  UNL     1      55.582  24.501  41.372  1.00  0.00    -0.197 N 
HETATM    3  N2  UNL     1      54.921  25.629  41.111  1.00  0.00     0.070 NA
HETATM    4  O1  UNL     1      53.723  25.378  40.721  1.00  0.00    -0.095 OA
HETATM    5  N3  UNL     1      53.601  24.092  40.725  1.00  0.00    -0.018 N 
HETATM    6  N4  UNL     1      54.735  23.537  41.122  1.00  0.00    -0.178 N 
ATOM      7  H4  UNL     1      54.915  22.538  41.217  1.00  0.00     0.214 HD
ENDROOT
BRANCH   5   8
HETATM    8  O2  UNL     1      52.491  23.392  40.378  1.00  0.00    -0.246 OA
ATOM      9  H2  UNL     1      52.474  22.543  39.952  1.00  0.00     0.249 HD
ENDBRANCH   5   8
TORSDOF 1
ENDMDL
