MODEL 1
REMARK VINA RESULT: -3.549787009      0.000      0.000
REMARK  5 active torsions:
REMARK  status: ('A' for Active; 'I' for Inactive)
REMARK    1  A    between atoms: N1_1  and  C1_5 
REMARK    2  A    between atoms: C1_5  and  C2_6 
REMARK    3  A    between atoms: C2_6  and  C3_7 
REMARK    4  A    between atoms: C3_7  and  N2_8 
REMARK    5  A    between atoms: N2_8  and  C4_10 
ROOT
HETATM    1  N2  UNL     1       8.805  35.729  11.258  1.00  0.00    -0.362 N 
ATOM      2  H2  UNL     1       9.737  36.086  11.468  1.00  0.00     0.162 HD
ENDROOT
BRANCH   1   3
HETATM    3  C3  UNL     1       7.630  36.552  11.373  1.00  0.00     0.124 C 
BRANCH   3   4
HETATM    4  C2  UNL     1       7.130  37.031  10.032  1.00  0.00     0.047 C 
BRANCH   4   5
HETATM    5  C1  UNL     1       5.807  37.733  10.250  1.00  0.00     0.231 C 
BRANCH   5   6
HETATM    6  N1  UNL     1       5.528  38.617   9.129  1.00  0.00    -0.079 N 
ATOM      7  H13 UNL     1       5.584  39.601   9.394  1.00  0.00     0.274 HD
ATOM      8  H12 UNL     1       6.278  38.608   8.438  1.00  0.00     0.274 HD
ATOM      9  H11 UNL     1       4.625  38.381   8.719  1.00  0.00     0.274 HD
ENDBRANCH   5   6
ENDBRANCH   4   5
ENDBRANCH   3   4
ENDBRANCH   1   3
BRANCH   1  10
HETATM   10  C4  UNL     1       8.585  34.371  10.829  1.00  0.00     0.171 C 
HETATM   11  N3  UNL     1       9.149  33.808   9.825  1.00  0.00    -0.361 N 
HETATM   12  C5  UNL     1       8.747  32.444   9.621  1.00  0.00     0.142 C 
ATOM     13  H3  UNL     1       9.822  34.285   9.226  1.00  0.00     0.162 HD
HETATM   14  C6  UNL     1       7.615  32.244  10.572  1.00  0.00     0.142 C 
HETATM   15  N4  UNL     1       7.724  33.409  11.414  1.00  0.00    -0.361 N 
ATOM     16  H4  UNL     1       7.247  33.525  12.308  1.00  0.00     0.162 HD
ENDBRANCH   1  10
TORSDOF 5
ENDMDL
MODEL 2
REMARK VINA RESULT: -3.424528028      0.108      1.178
REMARK  5 active torsions:
REMARK  status: ('A' for Active; 'I' for Inactive)
REMARK    1  A    between atoms: N1_1  and  C1_5 
REMARK    2  A    between atoms: C1_5  and  C2_6 
REMARK    3  A    between atoms: C2_6  and  C3_7 
REMARK    4  A    between atoms: C3_7  and  N2_8 
REMARK    5  A    between atoms: N2_8  and  C4_10 
ROOT
HETATM    1  N2  UNL     1       8.814  35.732  11.265  1.00  0.00    -0.362 N 
ATOM      2  H2  UNL     1       9.759  36.050  11.480  1.00  0.00     0.162 HD
ENDROOT
BRANCH   1   3
HETATM    3  C3  UNL     1       7.672  36.600  11.387  1.00  0.00     0.124 C 
BRANCH   3   4
HETATM    4  C2  UNL     1       7.127  37.025  10.046  1.00  0.00     0.047 C 
BRANCH   4   5
HETATM    5  C1  UNL     1       5.831  37.772  10.282  1.00  0.00     0.231 C 
BRANCH   5   6
HETATM    6  N1  UNL     1       5.518  38.594   9.124  1.00  0.00    -0.079 N 
ATOM      7  H13 UNL     1       4.913  39.380   9.364  1.00  0.00     0.274 HD
ATOM      8  H12 UNL     1       6.326  39.124   8.800  1.00  0.00     0.274 HD
ATOM      9  H11 UNL     1       5.118  38.014   8.386  1.00  0.00     0.274 HD
ENDBRANCH   5   6
ENDBRANCH   4   5
ENDBRANCH   3   4
ENDBRANCH   1   3
BRANCH   1  10
HETATM   10  C4  UNL     1       8.541  34.389  10.820  1.00  0.00     0.171 C 
HETATM   11  N3  UNL     1       7.737  33.567  11.385  1.00  0.00    -0.361 N 
HETATM   12  C5  UNL     1       7.654  32.290  10.733  1.00  0.00     0.142 C 
ATOM     13  H3  UNL     1       7.203  33.799  12.223  1.00  0.00     0.162 HD
HETATM   14  C6  UNL     1       8.742  32.324   9.713  1.00  0.00     0.142 C 
HETATM   15  N4  UNL     1       9.094  33.721   9.698  1.00  0.00    -0.361 N 
ATOM     16  H4  UNL     1       9.662  34.169   8.979  1.00  0.00     0.162 HD
ENDBRANCH   1  10
TORSDOF 5
ENDMDL
MODEL 3
REMARK VINA RESULT: -3.406044748      1.080      1.172
REMARK  5 active torsions:
REMARK  status: ('A' for Active; 'I' for Inactive)
REMARK    1  A    between atoms: N1_1  and  C1_5 
REMARK    2  A    between atoms: C1_5  and  C2_6 
REMARK    3  A    between atoms: C2_6  and  C3_7 
REMARK    4  A    between atoms: C3_7  and  N2_8 
REMARK    5  A    between atoms: N2_8  and  C4_10 
ROOT
HETATM    1  N2  UNL     1       7.971  36.715  10.575  1.00  0.00    -0.362 N 
ATOM      2  H2  UNL     1       8.525  37.397  10.058  1.00  0.00     0.162 HD
ENDROOT
BRANCH   1   3
HETATM    3  C3  UNL     1       6.777  37.087  11.288  1.00  0.00     0.124 C 
BRANCH   3   4
HETATM    4  C2  UNL     1       5.640  37.439  10.361  1.00  0.00     0.047 C 
BRANCH   4   5
HETATM    5  C1  UNL     1       6.113  38.542   9.439  1.00  0.00     0.231 C 
BRANCH   5   6
HETATM    6  N1  UNL     1       5.269  38.590   8.254  1.00  0.00    -0.079 N 
ATOM      7  H13 UNL     1       5.461  37.819   7.615  1.00  0.00     0.274 HD
ATOM      8  H12 UNL     1       4.297  38.367   8.467  1.00  0.00     0.274 HD
ATOM      9  H11 UNL     1       5.364  39.498   7.799  1.00  0.00     0.274 HD
ENDBRANCH   5   6
ENDBRANCH   4   5
ENDBRANCH   3   4
ENDBRANCH   1   3
BRANCH   1  10
HETATM   10  C4  UNL     1       8.335  35.322  10.638  1.00  0.00     0.171 C 
HETATM   11  N3  UNL     1       8.998  34.687   9.744  1.00  0.00    -0.361 N 
HETATM   12  C5  UNL     1       9.223  33.304  10.060  1.00  0.00     0.142 C 
ATOM     13  H3  UNL     1       9.336  35.124   8.887  1.00  0.00     0.162 HD
HETATM   14  C6  UNL     1       8.383  33.057  11.268  1.00  0.00     0.142 C 
HETATM   15  N4  UNL     1       8.042  34.398  11.672  1.00  0.00    -0.361 N 
ATOM     16  H4  UNL     1       7.644  34.648  12.577  1.00  0.00     0.162 HD
ENDBRANCH   1  10
TORSDOF 5
ENDMDL
MODEL 4
REMARK VINA RESULT: -2.545245977      1.331      1.546
REMARK  5 active torsions:
REMARK  status: ('A' for Active; 'I' for Inactive)
REMARK    1  A    between atoms: N1_1  and  C1_5 
REMARK    2  A    between atoms: C1_5  and  C2_6 
REMARK    3  A    between atoms: C2_6  and  C3_7 
REMARK    4  A    between atoms: C3_7  and  N2_8 
REMARK    5  A    between atoms: N2_8  and  C4_10 
ROOT
HETATM    1  N2  UNL     1       9.598  34.619   9.717  1.00  0.00    -0.362 N 
ATOM      2  H2  UNL     1      10.358  34.515   9.045  1.00  0.00     0.162 HD
ENDROOT
BRANCH   1   3
HETATM    3  C3  UNL     1       9.258  35.893  10.293  1.00  0.00     0.124 C 
BRANCH   3   4
HETATM    4  C2  UNL     1       7.892  36.371   9.868  1.00  0.00     0.047 C 
BRANCH   4   5
HETATM    5  C1  UNL     1       7.112  36.731  11.114  1.00  0.00     0.231 C 
BRANCH   5   6
HETATM    6  N1  UNL     1       5.896  37.441  10.747  1.00  0.00    -0.079 N 
ATOM      7  H13 UNL     1       5.556  37.169   9.825  1.00  0.00     0.274 HD
ATOM      8  H12 UNL     1       5.094  37.135  11.296  1.00  0.00     0.274 HD
ATOM      9  H11 UNL     1       6.050  38.447  10.818  1.00  0.00     0.274 HD
ENDBRANCH   5   6
ENDBRANCH   4   5
ENDBRANCH   3   4
ENDBRANCH   1   3
BRANCH   1  10
HETATM   10  C4  UNL     1       8.799  33.499  10.148  1.00  0.00     0.171 C 
HETATM   11  N3  UNL     1       8.530  32.464   9.443  1.00  0.00    -0.361 N 
HETATM   12  C5  UNL     1       7.711  31.496  10.118  1.00  0.00     0.142 C 
ATOM     13  H3  UNL     1       8.867  32.338   8.488  1.00  0.00     0.162 HD
HETATM   14  C6  UNL     1       7.285  32.181  11.372  1.00  0.00     0.142 C 
HETATM   15  N4  UNL     1       8.167  33.321  11.404  1.00  0.00    -0.361 N 
ATOM     16  H4  UNL     1       8.316  33.917  12.218  1.00  0.00     0.162 HD
ENDBRANCH   1  10
TORSDOF 5
ENDMDL
MODEL 5
REMARK VINA RESULT: -2.543647185      1.413      4.551
REMARK  5 active torsions:
REMARK  status: ('A' for Active; 'I' for Inactive)
REMARK    1  A    between atoms: N1_1  and  C1_5 
REMARK    2  A    between atoms: C1_5  and  C2_6 
REMARK    3  A    between atoms: C2_6  and  C3_7 
REMARK    4  A    between atoms: C3_7  and  N2_8 
REMARK    5  A    between atoms: N2_8  and  C4_10 
ROOT
HETATM    1  N2  UNL     1       8.711  35.617  11.236  1.00  0.00    -0.362 N 
ATOM      2  H2  UNL     1       8.899  35.436  12.222  1.00  0.00     0.162 HD
ENDROOT
BRANCH   1   3
HETATM    3  C3  UNL     1       9.485  35.007  10.188  1.00  0.00     0.124 C 
BRANCH   3   4
HETATM    4  C2  UNL     1       8.927  33.670   9.765  1.00  0.00     0.047 C 
BRANCH   4   5
HETATM    5  C1  UNL     1       8.417  32.963  11.003  1.00  0.00     0.231 C 
BRANCH   5   6
HETATM    6  N1  UNL     1       7.025  32.584  10.816  1.00  0.00    -0.079 N 
ATOM      7  H13 UNL     1       6.546  33.197  10.157  1.00  0.00     0.274 HD
ATOM      8  H12 UNL     1       6.933  31.711  10.298  1.00  0.00     0.274 HD
ATOM      9  H11 UNL     1       6.553  32.547  11.719  1.00  0.00     0.274 HD
ENDBRANCH   5   6
ENDBRANCH   4   5
ENDBRANCH   3   4
ENDBRANCH   1   3
BRANCH   1  10
HETATM   10  C4  UNL     1       7.654  36.500  10.810  1.00  0.00     0.171 C 
HETATM   11  N3  UNL     1       6.594  36.769  11.477  1.00  0.00    -0.361 N 
HETATM   12  C5  UNL     1       5.704  37.681  10.816  1.00  0.00     0.142 C 
ATOM     13  H3  UNL     1       6.401  36.371  12.396  1.00  0.00     0.162 HD
HETATM   14  C6  UNL     1       6.270  37.822   9.443  1.00  0.00     0.142 C 
HETATM   15  N4  UNL     1       7.575  37.229   9.597  1.00  0.00    -0.361 N 
ATOM     16  H4  UNL     1       8.337  37.322   8.925  1.00  0.00     0.162 HD
ENDBRANCH   1  10
TORSDOF 5
ENDMDL
