MODEL 1
REMARK VINA RESULT: -8.555659970      0.000      0.000
REMARK  6 active torsions:
REMARK  status: ('A' for Active; 'I' for Inactive)
REMARK    1  A    between atoms: C2_2  and  N1_3 
REMARK    2  A    between atoms: C3_4  and  C4_5 
REMARK    3  A    between atoms: N2_9  and  C8_10 
REMARK    4  A    between atoms: C8_10  and  C9_11 
REMARK    5  A    between atoms: C9_11  and  C10_12 
REMARK    6  A    between atoms: C10_12  and  C11_13 
ROOT
HETATM    1  C4  UNL     1      49.969  51.715  17.260  1.00  0.00     0.153 C 
HETATM    2  C5  UNL     1      48.943  52.630  17.969  1.00  0.00     0.035 C 
HETATM    3  C6  UNL     1      47.628  52.232  17.349  1.00  0.00     0.022 C 
HETATM    4  C7  UNL     1      48.079  51.707  15.973  1.00  0.00     0.123 C 
HETATM    5  N2  UNL     1      49.228  50.963  16.345  1.00  0.00    -0.382 N 
ENDROOT
BRANCH   1   6
HETATM    6  C3  UNL     1      50.813  51.071  18.239  1.00  0.00     0.125 A 
HETATM    7  N1  UNL     1      51.894  51.431  18.898  1.00  0.00    -0.285 N 
HETATM    8  C18 UNL     1      52.292  50.427  19.739  1.00  0.00     0.342 A 
HETATM    9  N4  UNL     1      51.419  49.424  19.581  1.00  0.00    -0.250 N 
HETATM   10  O1  UNL     1      53.292  50.479  20.497  1.00  0.00    -0.245 OA
HETATM   11  N3  UNL     1      50.535  49.800  18.688  1.00  0.00    -0.283 N 
ATOM     12  H4  UNL     1      51.438  48.527  20.067  1.00  0.00     0.192 HD
ATOM     13  H3  UNL     1      49.751  49.231  18.371  1.00  0.00     0.188 HD
BRANCH   7  14
HETATM   14  C2  UNL     1      52.628  52.661  18.805  1.00  0.00     0.131 C 
HETATM   15  C1  UNL     1      52.059  53.786  19.643  1.00  0.00     0.027 C 
ENDBRANCH   7  14
ENDBRANCH   1   6
BRANCH   5  16
HETATM   16  C8  UNL     1      49.780  50.027  15.502  1.00  0.00     0.059 C 
BRANCH  16  17
HETATM   17  C9  UNL     1      49.103  48.747  15.186  1.00  0.00     0.044 C 
BRANCH  17  18
HETATM   18  C10 UNL     1      48.788  47.944  16.388  1.00  0.00     0.009 C 
BRANCH  18  19
HETATM   19  C11 UNL     1      47.260  47.922  16.652  1.00  0.00    -0.014 C 
HETATM   20  C12 UNL     1      46.948  48.677  17.914  1.00  0.00     0.004 C 
HETATM   21  C13 UNL     1      45.861  47.915  18.627  1.00  0.00     0.000 C 
HETATM   22  C14 UNL     1      44.577  48.130  17.852  1.00  0.00     0.000 C 
HETATM   23  C15 UNL     1      44.554  47.330  16.578  1.00  0.00     0.000 C 
HETATM   24  C16 UNL     1      45.091  48.087  15.398  1.00  0.00     0.000 C 
HETATM   25  C17 UNL     1      46.505  48.514  15.507  1.00  0.00     0.004 C 
ENDBRANCH  18  19
ENDBRANCH  17  18
ENDBRANCH  16  17
ENDBRANCH   5  16
TORSDOF 6
ENDMDL
MODEL 2
REMARK VINA RESULT: -8.454476530      2.924      6.467
REMARK  6 active torsions:
REMARK  status: ('A' for Active; 'I' for Inactive)
REMARK    1  A    between atoms: C2_2  and  N1_3 
REMARK    2  A    between atoms: C3_4  and  C4_5 
REMARK    3  A    between atoms: N2_9  and  C8_10 
REMARK    4  A    between atoms: C8_10  and  C9_11 
REMARK    5  A    between atoms: C9_11  and  C10_12 
REMARK    6  A    between atoms: C10_12  and  C11_13 
ROOT
HETATM    1  C4  UNL     1      48.970  50.884  18.532  1.00  0.00     0.153 C 
HETATM    2  C5  UNL     1      48.310  49.523  18.207  1.00  0.00     0.035 C 
HETATM    3  C6  UNL     1      47.504  49.808  16.966  1.00  0.00     0.022 C 
HETATM    4  C7  UNL     1      47.228  51.317  17.114  1.00  0.00     0.123 C 
HETATM    5  N2  UNL     1      48.497  51.769  17.559  1.00  0.00    -0.382 N 
ENDROOT
BRANCH   1   6
HETATM    6  C3  UNL     1      50.386  50.705  18.747  1.00  0.00     0.125 A 
HETATM    7  N1  UNL     1      51.150  50.633  19.817  1.00  0.00    -0.285 N 
HETATM    8  C18 UNL     1      52.456  50.435  19.453  1.00  0.00     0.342 A 
HETATM    9  N4  UNL     1      52.479  50.386  18.115  1.00  0.00    -0.250 N 
HETATM   10  O1  UNL     1      53.415  50.325  20.255  1.00  0.00    -0.245 OA
HETATM   11  N3  UNL     1      51.250  50.547  17.688  1.00  0.00    -0.283 N 
ATOM     12  H4  UNL     1      53.305  50.249  17.532  1.00  0.00     0.192 HD
ATOM     13  H3  UNL     1      50.973  50.555  16.706  1.00  0.00     0.188 HD
BRANCH   7  14
HETATM   14  C2  UNL     1      50.770  50.751  21.195  1.00  0.00     0.131 C 
HETATM   15  C1  UNL     1      50.836  52.163  21.737  1.00  0.00     0.027 C 
ENDBRANCH   7  14
ENDBRANCH   1   6
BRANCH   5  16
HETATM   16  C8  UNL     1      48.845  53.098  17.503  1.00  0.00     0.059 C 
BRANCH  16  17
HETATM   17  C9  UNL     1      48.814  53.977  18.695  1.00  0.00     0.044 C 
BRANCH  17  18
HETATM   18  C10 UNL     1      48.813  55.417  18.355  1.00  0.00     0.009 C 
BRANCH  18  19
HETATM   19  C11 UNL     1      49.081  56.282  19.613  1.00  0.00    -0.014 C 
HETATM   20  C12 UNL     1      47.779  56.771  20.185  1.00  0.00     0.004 C 
HETATM   21  C13 UNL     1      48.004  58.188  20.645  1.00  0.00     0.000 C 
HETATM   22  C14 UNL     1      48.850  58.126  21.899  1.00  0.00     0.000 C 
HETATM   23  C15 UNL     1      50.287  57.807  21.588  1.00  0.00     0.000 C 
HETATM   24  C16 UNL     1      50.584  56.335  21.624  1.00  0.00     0.000 C 
HETATM   25  C17 UNL     1      49.832  55.512  20.648  1.00  0.00     0.004 C 
ENDBRANCH  18  19
ENDBRANCH  17  18
ENDBRANCH  16  17
ENDBRANCH   5  16
TORSDOF 6
ENDMDL
MODEL 3
REMARK VINA RESULT: -8.415051913      2.893      6.375
REMARK  6 active torsions:
REMARK  status: ('A' for Active; 'I' for Inactive)
REMARK    1  A    between atoms: C2_2  and  N1_3 
REMARK    2  A    between atoms: C3_4  and  C4_5 
REMARK    3  A    between atoms: N2_9  and  C8_10 
REMARK    4  A    between atoms: C8_10  and  C9_11 
REMARK    5  A    between atoms: C9_11  and  C10_12 
REMARK    6  A    between atoms: C10_12  and  C11_13 
ROOT
HETATM    1  C4  UNL     1      48.980  51.020  18.528  1.00  0.00     0.153 C 
HETATM    2  C5  UNL     1      48.273  49.677  18.228  1.00  0.00     0.035 C 
HETATM    3  C6  UNL     1      47.492  49.962  16.971  1.00  0.00     0.022 C 
HETATM    4  C7  UNL     1      47.272  51.483  17.079  1.00  0.00     0.123 C 
HETATM    5  N2  UNL     1      48.552  51.897  17.528  1.00  0.00    -0.382 N 
ENDROOT
BRANCH   1   6
HETATM    6  C3  UNL     1      50.386  50.793  18.765  1.00  0.00     0.125 A 
HETATM    7  N1  UNL     1      51.138  50.740  19.844  1.00  0.00    -0.285 N 
HETATM    8  C18 UNL     1      52.437  50.471  19.503  1.00  0.00     0.342 A 
HETATM    9  N4  UNL     1      52.469  50.359  18.169  1.00  0.00    -0.250 N 
HETATM   10  O1  UNL     1      53.385  50.359  20.318  1.00  0.00    -0.245 OA
HETATM   11  N3  UNL     1      51.251  50.550  17.722  1.00  0.00    -0.283 N 
ATOM     12  H4  UNL     1      53.293  50.160  17.601  1.00  0.00     0.192 HD
ATOM     13  H3  UNL     1      50.981  50.523  16.739  1.00  0.00     0.188 HD
BRANCH   7  14
HETATM   14  C2  UNL     1      50.752  50.937  21.212  1.00  0.00     0.131 C 
HETATM   15  C1  UNL     1      50.833  52.376  21.676  1.00  0.00     0.027 C 
ENDBRANCH   7  14
ENDBRANCH   1   6
BRANCH   5  16
HETATM   16  C8  UNL     1      48.951  53.210  17.444  1.00  0.00     0.059 C 
BRANCH  16  17
HETATM   17  C9  UNL     1      49.395  53.983  18.627  1.00  0.00     0.044 C 
BRANCH  17  18
HETATM   18  C10 UNL     1      48.272  54.536  19.415  1.00  0.00     0.009 C 
BRANCH  18  19
HETATM   19  C11 UNL     1      48.716  55.798  20.199  1.00  0.00    -0.014 C 
HETATM   20  C12 UNL     1      50.216  55.848  20.281  1.00  0.00     0.004 C 
HETATM   21  C13 UNL     1      50.567  56.347  21.659  1.00  0.00     0.000 C 
HETATM   22  C14 UNL     1      50.239  57.825  21.700  1.00  0.00     0.000 C 
HETATM   23  C15 UNL     1      48.757  58.066  21.792  1.00  0.00     0.000 C 
HETATM   24  C16 UNL     1      48.101  58.220  20.450  1.00  0.00     0.000 C 
HETATM   25  C17 UNL     1      48.202  57.043  19.555  1.00  0.00     0.004 C 
ENDBRANCH  18  19
ENDBRANCH  17  18
ENDBRANCH  16  17
ENDBRANCH   5  16
TORSDOF 6
ENDMDL
MODEL 4
REMARK VINA RESULT: -8.157696536      2.750      6.368
REMARK  6 active torsions:
REMARK  status: ('A' for Active; 'I' for Inactive)
REMARK    1  A    between atoms: C2_2  and  N1_3 
REMARK    2  A    between atoms: C3_4  and  C4_5 
REMARK    3  A    between atoms: N2_9  and  C8_10 
REMARK    4  A    between atoms: C8_10  and  C9_11 
REMARK    5  A    between atoms: C9_11  and  C10_12 
REMARK    6  A    between atoms: C10_12  and  C11_13 
ROOT
HETATM    1  C4  UNL     1      49.256  50.402  18.088  1.00  0.00     0.153 C 
HETATM    2  C5  UNL     1      49.235  49.686  16.716  1.00  0.00     0.035 C 
HETATM    3  C6  UNL     1      49.042  50.812  15.734  1.00  0.00     0.022 C 
HETATM    4  C7  UNL     1      48.313  51.858  16.598  1.00  0.00     0.123 C 
HETATM    5  N2  UNL     1      49.051  51.755  17.806  1.00  0.00    -0.382 N 
ENDROOT
BRANCH   1   6
HETATM    6  C3  UNL     1      50.403  49.969  18.851  1.00  0.00     0.125 A 
HETATM    7  N1  UNL     1      51.675  50.308  18.868  1.00  0.00    -0.285 N 
HETATM    8  C18 UNL     1      52.345  49.584  19.819  1.00  0.00     0.342 A 
HETATM    9  N4  UNL     1      51.443  48.779  20.396  1.00  0.00    -0.250 N 
HETATM   10  O1  UNL     1      53.570  49.689  20.068  1.00  0.00    -0.245 OA
HETATM   11  N3  UNL     1      50.284  49.002  19.824  1.00  0.00    -0.283 N 
ATOM     12  H4  UNL     1      51.625  48.112  21.145  1.00  0.00     0.192 HD
ATOM     13  H3  UNL     1      49.416  48.526  20.066  1.00  0.00     0.188 HD
BRANCH   7  14
HETATM   14  C2  UNL     1      52.355  51.265  18.044  1.00  0.00     0.131 C 
HETATM   15  C1  UNL     1      52.528  52.624  18.688  1.00  0.00     0.027 C 
ENDBRANCH   7  14
ENDBRANCH   1   6
BRANCH   5  16
HETATM   16  C8  UNL     1      48.992  52.735  18.768  1.00  0.00     0.059 C 
BRANCH  16  17
HETATM   17  C9  UNL     1      48.593  54.127  18.459  1.00  0.00     0.044 C 
BRANCH  17  18
HETATM   18  C10 UNL     1      49.723  55.081  18.509  1.00  0.00     0.009 C 
BRANCH  18  19
HETATM   19  C11 UNL     1      49.564  56.065  19.697  1.00  0.00    -0.014 C 
HETATM   20  C12 UNL     1      48.106  56.261  20.007  1.00  0.00     0.004 C 
HETATM   21  C13 UNL     1      47.919  57.717  20.347  1.00  0.00     0.000 C 
HETATM   22  C14 UNL     1      48.525  57.941  21.716  1.00  0.00     0.000 C 
HETATM   23  C15 UNL     1      50.028  57.958  21.666  1.00  0.00     0.000 C 
HETATM   24  C16 UNL     1      50.641  56.607  21.900  1.00  0.00     0.000 C 
HETATM   25  C17 UNL     1      50.277  55.566  20.911  1.00  0.00     0.004 C 
ENDBRANCH  18  19
ENDBRANCH  17  18
ENDBRANCH  16  17
ENDBRANCH   5  16
TORSDOF 6
ENDMDL
MODEL 5
REMARK VINA RESULT: -8.141962896      2.130      3.568
REMARK  6 active torsions:
REMARK  status: ('A' for Active; 'I' for Inactive)
REMARK    1  A    between atoms: C2_2  and  N1_3 
REMARK    2  A    between atoms: C3_4  and  C4_5 
REMARK    3  A    between atoms: N2_9  and  C8_10 
REMARK    4  A    between atoms: C8_10  and  C9_11 
REMARK    5  A    between atoms: C9_11  and  C10_12 
REMARK    6  A    between atoms: C10_12  and  C11_13 
ROOT
HETATM    1  C4  UNL     1      50.418  54.714  19.762  1.00  0.00     0.153 C 
HETATM    2  C5  UNL     1      50.089  55.817  20.796  1.00  0.00     0.035 C 
HETATM    3  C6  UNL     1      48.669  56.198  20.466  1.00  0.00     0.022 C 
HETATM    4  C7  UNL     1      48.589  55.835  18.971  1.00  0.00     0.123 C 
HETATM    5  N2  UNL     1      49.274  54.593  18.970  1.00  0.00    -0.382 N 
ENDROOT
BRANCH   1   6
HETATM    6  C3  UNL     1      50.982  53.565  20.431  1.00  0.00     0.125 A 
HETATM    7  N1  UNL     1      51.835  52.625  20.080  1.00  0.00    -0.285 N 
HETATM    8  C18 UNL     1      52.047  51.765  21.124  1.00  0.00     0.342 A 
HETATM    9  N4  UNL     1      51.294  52.201  22.142  1.00  0.00    -0.250 N 
HETATM   10  O1  UNL     1      52.810  50.769  21.089  1.00  0.00    -0.245 OA
HETATM   11  N3  UNL     1      50.657  53.273  21.736  1.00  0.00    -0.283 N 
ATOM     12  H4  UNL     1      51.228  51.777  23.066  1.00  0.00     0.192 HD
ATOM     13  H3  UNL     1      50.009  53.815  22.308  1.00  0.00     0.188 HD
BRANCH   7  14
HETATM   14  C2  UNL     1      52.483  52.436  18.814  1.00  0.00     0.131 C 
HETATM   15  C1  UNL     1      51.900  51.314  17.981  1.00  0.00     0.027 C 
ENDBRANCH   7  14
ENDBRANCH   1   6
BRANCH   5  16
HETATM   16  C8  UNL     1      49.164  53.714  17.918  1.00  0.00     0.059 C 
BRANCH  16  17
HETATM   17  C9  UNL     1      47.966  52.867  17.714  1.00  0.00     0.044 C 
BRANCH  17  18
HETATM   18  C10 UNL     1      47.977  52.147  16.421  1.00  0.00     0.009 C 
BRANCH  18  19
HETATM   19  C11 UNL     1      47.997  50.612  16.643  1.00  0.00    -0.014 C 
HETATM   20  C12 UNL     1      46.681  50.161  17.213  1.00  0.00     0.004 C 
HETATM   21  C13 UNL     1      46.985  49.097  18.236  1.00  0.00     0.000 C 
HETATM   22  C14 UNL     1      47.400  47.852  17.481  1.00  0.00     0.000 C 
HETATM   23  C15 UNL     1      48.793  47.973  16.927  1.00  0.00     0.000 C 
HETATM   24  C16 UNL     1      48.825  48.520  15.528  1.00  0.00     0.000 C 
HETATM   25  C17 UNL     1      48.273  49.886  15.368  1.00  0.00     0.004 C 
ENDBRANCH  18  19
ENDBRANCH  17  18
ENDBRANCH  16  17
ENDBRANCH   5  16
TORSDOF 6
ENDMDL
