MODEL 1
REMARK VINA RESULT: -10.683978148      0.000      0.000
REMARK  5 active torsions:
REMARK  status: ('A' for Active; 'I' for Inactive)
REMARK    1  A    between atoms: C4_5  and  C5_6 
REMARK    2  A    between atoms: N2_7  and  N3_9 
REMARK    3  A    between atoms: N3_9  and  S1_11 
REMARK    4  A    between atoms: S1_11  and  C6_14 
REMARK    5  A    between atoms: C9_17  and  N4_18 
ROOT
HETATM    1  S1  UNL     1       2.018  -0.403  24.901  1.00  0.00     0.276 S 
HETATM    2  O1  UNL     1       2.827  -1.657  24.628  1.00  0.00    -0.199 OA
HETATM    3  O2  UNL     1       2.256  -0.063  26.346  1.00  0.00    -0.199 OA
ENDROOT
BRANCH   1   4
HETATM    4  N3  UNL     1       0.332  -0.723  24.699  1.00  0.00    -0.223 N 
ATOM      5  H3  UNL     1      -0.270   0.047  24.405  1.00  0.00     0.200 HD
BRANCH   4   6
HETATM    6  N2  UNL     1      -0.245  -1.943  24.908  1.00  0.00    -0.302 N 
HETATM    7  C5  UNL     1      -0.823  -2.778  24.197  1.00  0.00     0.119 C 
ATOM      8  H2  UNL     1      -0.187  -2.238  25.883  1.00  0.00     0.186 HD
BRANCH   7   9
HETATM    9  C4  UNL     1      -1.125  -2.773  22.776  1.00  0.00    -0.019 A 
HETATM   10  C3  UNL     1      -1.316  -1.627  22.046  1.00  0.00     0.014 A 
HETATM   11  C2  UNL     1      -1.600  -1.716  20.694  1.00  0.00     0.027 A 
HETATM   12  C1  UNL     1      -1.708  -2.904  20.008  1.00  0.00     0.046 A 
HETATM   13  N1  UNL     1      -2.003  -2.904  18.614  1.00  0.00    -0.102 NA
HETATM   14  C14 UNL     1      -1.518  -4.049  20.734  1.00  0.00     0.027 A 
HETATM   15  C13 UNL     1      -1.236  -3.980  22.073  1.00  0.00     0.014 A 
ENDBRANCH   7   9
ENDBRANCH   4   6
ENDBRANCH   1   4
BRANCH   1  16
HETATM   16  C6  UNL     1       2.580   0.854  23.867  1.00  0.00     0.081 C 
HETATM   17  C7  UNL     1       2.242   0.803  22.533  1.00  0.00     0.028 C 
HETATM   18  C8  UNL     1       2.578   1.643  21.481  1.00  0.00     0.042 C 
HETATM   19  C9  UNL     1       3.544   2.632  21.496  1.00  0.00     0.152 C 
HETATM   20  C10 UNL     1       4.222   3.163  22.573  1.00  0.00     0.204 C 
HETATM   21  O5  UNL     1       5.069   4.047  22.272  1.00  0.00    -0.286 OA
HETATM   22  C11 UNL     1       4.094   2.859  23.896  1.00  0.00     0.059 C 
HETATM   23  C12 UNL     1       3.340   1.836  24.462  1.00  0.00     0.029 C 
BRANCH  19  24
HETATM   24  N4  UNL     1       3.854   3.144  20.220  1.00  0.00    -0.112 N 
HETATM   25  O3  UNL     1       2.959   3.623  19.518  1.00  0.00    -0.532 OA
HETATM   26  O4  UNL     1       5.135   3.113  19.755  1.00  0.00    -0.532 OA
ENDBRANCH  19  24
ENDBRANCH   1  16
TORSDOF 5
ENDMDL
MODEL 2
REMARK VINA RESULT: -10.549287575      0.941      1.820
REMARK  5 active torsions:
REMARK  status: ('A' for Active; 'I' for Inactive)
REMARK    1  A    between atoms: C4_5  and  C5_6 
REMARK    2  A    between atoms: N2_7  and  N3_9 
REMARK    3  A    between atoms: N3_9  and  S1_11 
REMARK    4  A    between atoms: S1_11  and  C6_14 
REMARK    5  A    between atoms: C9_17  and  N4_18 
ROOT
HETATM    1  S1  UNL     1       1.529  -0.273  25.388  1.00  0.00     0.276 S 
HETATM    2  O1  UNL     1       2.556  -0.175  26.500  1.00  0.00    -0.199 OA
HETATM    3  O2  UNL     1       0.299   0.425  25.896  1.00  0.00    -0.199 OA
ENDROOT
BRANCH   1   4
HETATM    4  N3  UNL     1       1.122  -1.926  25.093  1.00  0.00    -0.223 N 
ATOM      5  H3  UNL     1       1.852  -2.543  24.737  1.00  0.00     0.200 HD
BRANCH   4   6
HETATM    6  N2  UNL     1      -0.118  -2.458  25.308  1.00  0.00    -0.302 N 
HETATM    7  C5  UNL     1      -1.069  -2.793  24.588  1.00  0.00     0.119 C 
ATOM      8  H2  UNL     1      -0.306  -2.618  26.298  1.00  0.00     0.186 HD
BRANCH   7   9
HETATM    9  C4  UNL     1      -1.237  -2.742  23.146  1.00  0.00    -0.019 A 
HETATM   10  C3  UNL     1      -1.481  -1.584  22.452  1.00  0.00     0.014 A 
HETATM   11  C2  UNL     1      -1.627  -1.628  21.075  1.00  0.00     0.027 A 
HETATM   12  C1  UNL     1      -1.543  -2.782  20.331  1.00  0.00     0.046 A 
HETATM   13  N1  UNL     1      -1.705  -2.737  18.915  1.00  0.00    -0.102 NA
HETATM   14  C14 UNL     1      -1.299  -3.939  21.021  1.00  0.00     0.027 A 
HETATM   15  C13 UNL     1      -1.152  -3.915  22.383  1.00  0.00     0.014 A 
ENDBRANCH   7   9
ENDBRANCH   4   6
ENDBRANCH   1   4
BRANCH   1  16
HETATM   16  C6  UNL     1       2.155   0.512  23.988  1.00  0.00     0.081 C 
HETATM   17  C7  UNL     1       3.132   1.467  24.156  1.00  0.00     0.028 C 
HETATM   18  C8  UNL     1       3.781   2.271  23.230  1.00  0.00     0.042 C 
HETATM   19  C9  UNL     1       3.421   2.456  21.908  1.00  0.00     0.152 C 
HETATM   20  C10 UNL     1       2.512   1.747  21.151  1.00  0.00     0.204 C 
HETATM   21  O5  UNL     1       2.379   2.166  19.969  1.00  0.00    -0.286 OA
HETATM   22  C11 UNL     1       1.755   0.672  21.513  1.00  0.00     0.059 C 
HETATM   23  C12 UNL     1       1.621   0.118  22.781  1.00  0.00     0.029 C 
BRANCH  19  24
HETATM   24  N4  UNL     1       4.093   3.524  21.280  1.00  0.00    -0.112 N 
HETATM   25  O3  UNL     1       3.837   4.686  21.606  1.00  0.00    -0.532 OA
HETATM   26  O4  UNL     1       5.023   3.283  20.313  1.00  0.00    -0.532 OA
ENDBRANCH  19  24
ENDBRANCH   1  16
TORSDOF 5
ENDMDL
MODEL 3
REMARK VINA RESULT: -10.103187702      2.921      6.687
REMARK  5 active torsions:
REMARK  status: ('A' for Active; 'I' for Inactive)
REMARK    1  A    between atoms: C4_5  and  C5_6 
REMARK    2  A    between atoms: N2_7  and  N3_9 
REMARK    3  A    between atoms: N3_9  and  S1_11 
REMARK    4  A    between atoms: S1_11  and  C6_14 
REMARK    5  A    between atoms: C9_17  and  N4_18 
ROOT
HETATM    1  S1  UNL     1       0.878  -1.052  25.548  1.00  0.00     0.276 S 
HETATM    2  O1  UNL     1      -0.075  -1.308  26.700  1.00  0.00    -0.199 OA
HETATM    3  O2  UNL     1       2.121  -1.839  25.854  1.00  0.00    -0.199 OA
ENDROOT
BRANCH   1   4
HETATM    4  N3  UNL     1       1.307   0.621  25.487  1.00  0.00    -0.223 N 
ATOM      5  H3  UNL     1       0.564   1.301  25.324  1.00  0.00     0.200 HD
BRANCH   4   6
HETATM    6  N2  UNL     1       2.580   1.090  25.645  1.00  0.00    -0.302 N 
HETATM    7  C5  UNL     1       3.407   1.656  24.914  1.00  0.00     0.119 C 
ATOM      8  H2  UNL     1       2.937   0.938  26.588  1.00  0.00     0.186 HD
BRANCH   7   9
HETATM    9  C4  UNL     1       3.328   2.062  23.522  1.00  0.00    -0.019 A 
HETATM   10  C3  UNL     1       2.700   1.322  22.552  1.00  0.00     0.014 A 
HETATM   11  C2  UNL     1       2.673   1.786  21.247  1.00  0.00     0.027 A 
HETATM   12  C1  UNL     1       3.246   2.969  20.841  1.00  0.00     0.046 A 
HETATM   13  N1  UNL     1       3.170   3.372  19.476  1.00  0.00    -0.102 NA
HETATM   14  C14 UNL     1       3.874   3.709  21.807  1.00  0.00     0.027 A 
HETATM   15  C13 UNL     1       3.910   3.266  23.103  1.00  0.00     0.014 A 
ENDBRANCH   7   9
ENDBRANCH   4   6
ENDBRANCH   1   4
BRANCH   1  16
HETATM   16  C6  UNL     1       0.141  -1.597  24.090  1.00  0.00     0.081 C 
HETATM   17  C7  UNL     1      -0.231  -2.920  24.001  1.00  0.00     0.028 C 
HETATM   18  C8  UNL     1      -0.802  -3.630  22.955  1.00  0.00     0.042 C 
HETATM   19  C9  UNL     1      -0.925  -3.207  21.645  1.00  0.00     0.152 C 
HETATM   20  C10 UNL     1      -0.734  -1.946  21.121  1.00  0.00     0.204 C 
HETATM   21  O5  UNL     1      -0.900  -1.868  19.873  1.00  0.00    -0.286 OA
HETATM   22  C11 UNL     1      -0.394  -0.795  21.770  1.00  0.00     0.059 C 
HETATM   23  C12 UNL     1      -0.025  -0.651  23.103  1.00  0.00     0.029 C 
BRANCH  19  24
HETATM   24  N4  UNL     1      -1.298  -4.230  20.749  1.00  0.00    -0.112 N 
HETATM   25  O3  UNL     1      -0.647  -4.406  19.714  1.00  0.00    -0.532 OA
HETATM   26  O4  UNL     1      -2.371  -5.026  21.015  1.00  0.00    -0.532 OA
ENDBRANCH  19  24
ENDBRANCH   1  16
TORSDOF 5
ENDMDL
MODEL 4
REMARK VINA RESULT: -10.097376929      2.912      6.616
REMARK  5 active torsions:
REMARK  status: ('A' for Active; 'I' for Inactive)
REMARK    1  A    between atoms: C4_5  and  C5_6 
REMARK    2  A    between atoms: N2_7  and  N3_9 
REMARK    3  A    between atoms: N3_9  and  S1_11 
REMARK    4  A    between atoms: S1_11  and  C6_14 
REMARK    5  A    between atoms: C9_17  and  N4_18 
ROOT
HETATM    1  S1  UNL     1       1.019  -1.056  25.513  1.00  0.00     0.276 S 
HETATM    2  O1  UNL     1       0.145  -1.389  26.708  1.00  0.00    -0.199 OA
HETATM    3  O2  UNL     1       2.315  -1.785  25.732  1.00  0.00    -0.199 OA
ENDROOT
BRANCH   1   4
HETATM    4  N3  UNL     1       1.359   0.638  25.474  1.00  0.00    -0.223 N 
ATOM      5  H3  UNL     1       0.587   1.277  25.280  1.00  0.00     0.200 HD
BRANCH   4   6
HETATM    6  N2  UNL     1       2.597   1.174  25.688  1.00  0.00    -0.302 N 
HETATM    7  C5  UNL     1       3.419   1.793  24.997  1.00  0.00     0.119 C 
ATOM      8  H2  UNL     1       2.923   1.031  26.644  1.00  0.00     0.186 HD
BRANCH   7   9
HETATM    9  C4  UNL     1       3.374   2.210  23.606  1.00  0.00    -0.019 A 
HETATM   10  C3  UNL     1       3.901   3.393  23.152  1.00  0.00     0.014 A 
HETATM   11  C2  UNL     1       3.814   3.710  21.807  1.00  0.00     0.027 A 
HETATM   12  C1  UNL     1       3.221   2.902  20.864  1.00  0.00     0.046 A 
HETATM   13  N1  UNL     1       3.176   3.306  19.498  1.00  0.00    -0.102 NA
HETATM   14  C14 UNL     1       2.695   1.721  21.315  1.00  0.00     0.027 A 
HETATM   15  C13 UNL     1       2.772   1.391  22.642  1.00  0.00     0.014 A 
ENDBRANCH   7   9
ENDBRANCH   4   6
ENDBRANCH   1   4
BRANCH   1  16
HETATM   16  C6  UNL     1       0.232  -1.604  24.083  1.00  0.00     0.081 C 
HETATM   17  C7  UNL     1      -0.134  -2.930  24.005  1.00  0.00     0.028 C 
HETATM   18  C8  UNL     1      -0.738  -3.643  22.980  1.00  0.00     0.042 C 
HETATM   19  C9  UNL     1      -0.914  -3.218  21.676  1.00  0.00     0.152 C 
HETATM   20  C10 UNL     1      -0.752  -1.954  21.148  1.00  0.00     0.204 C 
HETATM   21  O5  UNL     1      -0.966  -1.875  19.908  1.00  0.00    -0.286 OA
HETATM   22  C11 UNL     1      -0.396  -0.802  21.787  1.00  0.00     0.059 C 
HETATM   23  C12 UNL     1       0.022  -0.658  23.105  1.00  0.00     0.029 C 
BRANCH  19  24
HETATM   24  N4  UNL     1      -1.312  -4.242  20.793  1.00  0.00    -0.112 N 
HETATM   25  O3  UNL     1      -2.285  -4.948  21.071  1.00  0.00    -0.532 OA
HETATM   26  O4  UNL     1      -0.630  -4.458  19.633  1.00  0.00    -0.532 OA
ENDBRANCH  19  24
ENDBRANCH   1  16
TORSDOF 5
ENDMDL
MODEL 5
REMARK VINA RESULT: -9.749639632      1.241      1.580
REMARK  5 active torsions:
REMARK  status: ('A' for Active; 'I' for Inactive)
REMARK    1  A    between atoms: C4_5  and  C5_6 
REMARK    2  A    between atoms: N2_7  and  N3_9 
REMARK    3  A    between atoms: N3_9  and  S1_11 
REMARK    4  A    between atoms: S1_11  and  C6_14 
REMARK    5  A    between atoms: C9_17  and  N4_18 
ROOT
HETATM    1  S1  UNL     1       2.106   0.203  25.320  1.00  0.00     0.276 S 
HETATM    2  O1  UNL     1       2.543   0.673  26.694  1.00  0.00    -0.199 OA
HETATM    3  O2  UNL     1       0.603   0.205  25.339  1.00  0.00    -0.199 OA
ENDROOT
BRANCH   1   4
HETATM    4  N3  UNL     1       2.635  -1.419  25.046  1.00  0.00    -0.223 N 
ATOM      5  H3  UNL     1       3.565  -1.559  24.648  1.00  0.00     0.200 HD
BRANCH   4   6
HETATM    6  N2  UNL     1       1.886  -2.525  25.330  1.00  0.00    -0.302 N 
HETATM    7  C5  UNL     1       1.024  -3.183  24.728  1.00  0.00     0.119 C 
ATOM      8  H2  UNL     1       2.082  -2.900  26.258  1.00  0.00     0.186 HD
BRANCH   7   9
HETATM    9  C4  UNL     1       0.446  -3.014  23.406  1.00  0.00    -0.019 A 
HETATM   10  C3  UNL     1       1.039  -2.283  22.408  1.00  0.00     0.014 A 
HETATM   11  C2  UNL     1       0.417  -2.175  21.176  1.00  0.00     0.027 A 
HETATM   12  C1  UNL     1      -0.788  -2.766  20.870  1.00  0.00     0.046 A 
HETATM   13  N1  UNL     1      -1.358  -2.604  19.574  1.00  0.00    -0.102 NA
HETATM   14  C14 UNL     1      -1.381  -3.496  21.864  1.00  0.00     0.027 A 
HETATM   15  C13 UNL     1      -0.780  -3.613  23.090  1.00  0.00     0.014 A 
ENDBRANCH   7   9
ENDBRANCH   4   6
ENDBRANCH   1   4
BRANCH   1  16
HETATM   16  C6  UNL     1       2.713   1.303  24.141  1.00  0.00     0.081 C 
HETATM   17  C7  UNL     1       2.326   1.135  22.830  1.00  0.00     0.028 C 
HETATM   18  C8  UNL     1       2.680   1.834  21.686  1.00  0.00     0.042 C 
HETATM   19  C9  UNL     1       3.708   2.751  21.568  1.00  0.00     0.152 C 
HETATM   20  C10 UNL     1       4.457   3.344  22.562  1.00  0.00     0.204 C 
HETATM   21  O5  UNL     1       5.349   4.131  22.144  1.00  0.00    -0.286 OA
HETATM   22  C11 UNL     1       4.355   3.190  23.914  1.00  0.00     0.059 C 
HETATM   23  C12 UNL     1       3.556   2.287  24.606  1.00  0.00     0.029 C 
BRANCH  19  24
HETATM   24  N4  UNL     1       4.007   3.103  20.236  1.00  0.00    -0.112 N 
HETATM   25  O3  UNL     1       5.154   2.952  19.804  1.00  0.00    -0.532 OA
HETATM   26  O4  UNL     1       3.040   3.610  19.421  1.00  0.00    -0.532 OA
ENDBRANCH  19  24
ENDBRANCH   1  16
TORSDOF 5
ENDMDL
