MODEL 1
REMARK VINA RESULT: -8.366847640      0.000      0.000
REMARK  7 active torsions:
REMARK  status: ('A' for Active; 'I' for Inactive)
REMARK    1  A    between atoms: N1_1  and  C1_5 
REMARK    2  A    between atoms: C1_5  and  C2_6 
REMARK    3  A    between atoms: C2_6  and  N2_7 
REMARK    4  A    between atoms: N2_7  and  C3_9 
REMARK    5  A    between atoms: C6_17  and  C7_18 
REMARK    6  A    between atoms: C7_18  and  N5_19 
REMARK    7  A    between atoms: C12_25  and  N6_26 
ROOT
HETATM    1  C3  UNL     1       3.359   2.408  23.302  1.00  0.00     0.119 A 
HETATM    2  N3  UNL     1       3.856   3.527  22.762  1.00  0.00    -0.338 N 
ATOM      3  H3  UNL     1       4.304   4.221  23.361  1.00  0.00     0.168 HD
HETATM    4  C4  UNL     1       3.769   3.744  21.444  1.00  0.00     0.184 A 
HETATM    5  N4  UNL     1       3.174   2.815  20.676  1.00  0.00    -0.332 N 
ATOM      6  H4  UNL     1       3.115   2.997  19.674  1.00  0.00     0.168 HD
HETATM    7  C5  UNL     1       2.650   1.665  21.132  1.00  0.00     0.165 A 
HETATM    8  O1  UNL     1       2.042   0.626  20.650  1.00  0.00    -0.293 OA
HETATM    9  C6  UNL     1       1.736  -0.241  21.578  1.00  0.00     0.111 A 
HETATM   10  C12 UNL     1       2.170   0.239  22.819  1.00  0.00     0.080 A 
HETATM   11  C17 UNL     1       2.750   1.454  22.516  1.00  0.00     0.088 A 
ENDROOT
BRANCH   1  12
HETATM   12  N2  UNL     1       3.424   2.155  24.576  1.00  0.00    -0.374 N 
ATOM     13  H2  UNL     1       3.103   1.266  24.961  1.00  0.00     0.161 HD
BRANCH  12  14
HETATM   14  C2  UNL     1       3.971   3.193  25.423  1.00  0.00     0.148 C 
BRANCH  14  15
HETATM   15  C1  UNL     1       3.348   3.159  26.811  1.00  0.00     0.249 C 
BRANCH  15  16
HETATM   16  N1  UNL     1       3.001   4.516  27.184  1.00  0.00    -0.078 N 
ATOM     17  H13 UNL     1       3.213   4.722  28.160  1.00  0.00     0.274 HD
ATOM     18  H12 UNL     1       3.616   5.210  26.760  1.00  0.00     0.274 HD
ATOM     19  H11 UNL     1       2.018   4.668  26.954  1.00  0.00     0.274 HD
ENDBRANCH  15  16
ENDBRANCH  14  15
ENDBRANCH  12  14
ENDBRANCH   1  12
BRANCH  10  20
HETATM   20  N6  UNL     1       2.051  -0.366  24.097  1.00  0.00    -0.378 N 
HETATM   21  C13 UNL     1       0.949  -0.045  25.003  1.00  0.00     0.123 C 
HETATM   22  C14 UNL     1       0.903  -1.201  25.970  1.00  0.00     0.021 C 
HETATM   23  C15 UNL     1       2.369  -1.551  26.097  1.00  0.00     0.021 C 
HETATM   24  C16 UNL     1       2.926  -1.341  24.723  1.00  0.00     0.123 C 
ENDBRANCH  10  20
BRANCH   9  25
HETATM   25  C7  UNL     1       1.050  -1.520  21.395  1.00  0.00     0.339 C 
BRANCH  25  26
HETATM   26  N5  UNL     1      -0.235  -1.642  21.990  1.00  0.00     0.098 N 
HETATM   27  C8  UNL     1      -0.518  -2.878  22.629  1.00  0.00     0.299 C 
HETATM   28  C9  UNL     1      -1.011  -3.934  21.662  1.00  0.00     0.198 C 
HETATM   29  O2  UNL     1      -2.037  -3.504  20.848  1.00  0.00    -0.388 OA
HETATM   30  C10 UNL     1      -1.522  -2.459  20.079  1.00  0.00     0.198 C 
HETATM   31  C11 UNL     1      -1.239  -1.322  21.003  1.00  0.00     0.299 C 
ENDBRANCH  25  26
ENDBRANCH   9  25
TORSDOF 7
ENDMDL
MODEL 2
REMARK VINA RESULT: -8.170514561      0.649      1.033
REMARK  7 active torsions:
REMARK  status: ('A' for Active; 'I' for Inactive)
REMARK    1  A    between atoms: N1_1  and  C1_5 
REMARK    2  A    between atoms: C1_5  and  C2_6 
REMARK    3  A    between atoms: C2_6  and  N2_7 
REMARK    4  A    between atoms: N2_7  and  C3_9 
REMARK    5  A    between atoms: C6_17  and  C7_18 
REMARK    6  A    between atoms: C7_18  and  N5_19 
REMARK    7  A    between atoms: C12_25  and  N6_26 
ROOT
HETATM    1  C3  UNL     1       3.009   1.902  23.227  1.00  0.00     0.119 A 
HETATM    2  N3  UNL     1       3.540   2.949  22.585  1.00  0.00    -0.338 N 
ATOM      3  H3  UNL     1       3.936   3.723  23.121  1.00  0.00     0.168 HD
HETATM    4  C4  UNL     1       3.557   2.990  21.248  1.00  0.00     0.184 A 
HETATM    5  N4  UNL     1       3.030   1.960  20.564  1.00  0.00    -0.332 N 
ATOM      6  H4  UNL     1       3.050   2.008  19.545  1.00  0.00     0.168 HD
HETATM    7  C5  UNL     1       2.479   0.871  21.126  1.00  0.00     0.165 A 
HETATM    8  O1  UNL     1       1.916  -0.232  20.739  1.00  0.00    -0.293 OA
HETATM    9  C6  UNL     1       1.542  -0.975  21.745  1.00  0.00     0.111 A 
HETATM   10  C12 UNL     1       1.873  -0.330  22.942  1.00  0.00     0.080 A 
HETATM   11  C17 UNL     1       2.469   0.844  22.529  1.00  0.00     0.088 A 
ENDROOT
BRANCH   1  12
HETATM   12  N2  UNL     1       2.973   1.819  24.525  1.00  0.00    -0.374 N 
ATOM     13  H2  UNL     1       2.474   1.066  24.998  1.00  0.00     0.161 HD
BRANCH  12  14
HETATM   14  C2  UNL     1       3.674   2.845  25.267  1.00  0.00     0.148 C 
BRANCH  14  15
HETATM   15  C1  UNL     1       3.162   2.941  26.697  1.00  0.00     0.249 C 
BRANCH  15  16
HETATM   16  N1  UNL     1       3.156   4.338  27.082  1.00  0.00    -0.078 N 
ATOM     17  H13 UNL     1       4.092   4.698  27.270  1.00  0.00     0.274 HD
ATOM     18  H12 UNL     1       2.924   4.959  26.308  1.00  0.00     0.274 HD
ATOM     19  H11 UNL     1       2.526   4.446  27.877  1.00  0.00     0.274 HD
ENDBRANCH  15  16
ENDBRANCH  14  15
ENDBRANCH  12  14
ENDBRANCH   1  12
BRANCH  10  20
HETATM   20  N6  UNL     1       1.658  -0.764  24.276  1.00  0.00    -0.378 N 
HETATM   21  C13 UNL     1       2.651  -1.557  24.999  1.00  0.00     0.123 C 
HETATM   22  C14 UNL     1       2.292  -1.383  26.453  1.00  0.00     0.021 C 
HETATM   23  C15 UNL     1       0.783  -1.299  26.387  1.00  0.00     0.021 C 
HETATM   24  C16 UNL     1       0.504  -0.538  25.127  1.00  0.00     0.123 C 
ENDBRANCH  10  20
BRANCH   9  25
HETATM   25  C7  UNL     1       0.880  -2.278  21.680  1.00  0.00     0.339 C 
BRANCH  25  26
HETATM   26  N5  UNL     1      -0.494  -2.311  22.041  1.00  0.00     0.098 N 
HETATM   27  C8  UNL     1      -1.062  -3.597  22.239  1.00  0.00     0.299 C 
HETATM   28  C9  UNL     1      -1.523  -4.235  20.945  1.00  0.00     0.198 C 
HETATM   29  O2  UNL     1      -2.315  -3.412  20.173  1.00  0.00    -0.388 OA
HETATM   30  C10 UNL     1      -1.525  -2.315  19.824  1.00  0.00     0.198 C 
HETATM   31  C11 UNL     1      -1.249  -1.549  21.075  1.00  0.00     0.299 C 
ENDBRANCH  25  26
ENDBRANCH   9  25
TORSDOF 7
ENDMDL
MODEL 3
REMARK VINA RESULT: -7.982879360      0.688      1.107
REMARK  7 active torsions:
REMARK  status: ('A' for Active; 'I' for Inactive)
REMARK    1  A    between atoms: N1_1  and  C1_5 
REMARK    2  A    between atoms: C1_5  and  C2_6 
REMARK    3  A    between atoms: C2_6  and  N2_7 
REMARK    4  A    between atoms: N2_7  and  C3_9 
REMARK    5  A    between atoms: C6_17  and  C7_18 
REMARK    6  A    between atoms: C7_18  and  N5_19 
REMARK    7  A    between atoms: C12_25  and  N6_26 
ROOT
HETATM    1  C3  UNL     1       3.336   2.285  23.131  1.00  0.00     0.119 A 
HETATM    2  N3  UNL     1       3.775   3.410  22.556  1.00  0.00    -0.338 N 
ATOM      3  H3  UNL     1       4.156   4.159  23.135  1.00  0.00     0.168 HD
HETATM    4  C4  UNL     1       3.719   3.562  21.227  1.00  0.00     0.184 A 
HETATM    5  N4  UNL     1       3.213   2.562  20.484  1.00  0.00    -0.332 N 
ATOM      6  H4  UNL     1       3.176   2.695  19.474  1.00  0.00     0.168 HD
HETATM    7  C5  UNL     1       2.751   1.400  20.978  1.00  0.00     0.165 A 
HETATM    8  O1  UNL     1       2.230   0.302  20.526  1.00  0.00    -0.293 OA
HETATM    9  C6  UNL     1       1.950  -0.541  21.483  1.00  0.00     0.111 A 
HETATM   10  C12 UNL     1       2.309   0.022  22.713  1.00  0.00     0.080 A 
HETATM   11  C17 UNL     1       2.818   1.258  22.372  1.00  0.00     0.088 A 
ENDROOT
BRANCH   1  12
HETATM   12  N2  UNL     1       3.374   2.094  24.418  1.00  0.00    -0.374 N 
ATOM     13  H2  UNL     1       3.051   1.222  24.837  1.00  0.00     0.161 HD
BRANCH  12  14
HETATM   14  C2  UNL     1       3.895   3.176  25.226  1.00  0.00     0.148 C 
BRANCH  14  15
HETATM   15  C1  UNL     1       3.334   3.129  26.639  1.00  0.00     0.249 C 
BRANCH  15  16
HETATM   16  N1  UNL     1       3.188   4.490  27.113  1.00  0.00    -0.078 N 
ATOM     17  H13 UNL     1       3.848   5.132  26.675  1.00  0.00     0.274 HD
ATOM     18  H12 UNL     1       2.329   4.932  26.786  1.00  0.00     0.274 HD
ATOM     19  H11 UNL     1       3.264   4.483  28.131  1.00  0.00     0.274 HD
ENDBRANCH  15  16
ENDBRANCH  14  15
ENDBRANCH  12  14
ENDBRANCH   1  12
BRANCH  10  20
HETATM   20  N6  UNL     1       2.188  -0.532  24.013  1.00  0.00    -0.378 N 
HETATM   21  C13 UNL     1       1.106  -0.145  24.919  1.00  0.00     0.123 C 
HETATM   22  C14 UNL     1       1.037  -1.263  25.929  1.00  0.00     0.021 C 
HETATM   23  C15 UNL     1       2.493  -1.654  26.052  1.00  0.00     0.021 C 
HETATM   24  C16 UNL     1       3.040  -1.511  24.665  1.00  0.00     0.123 C 
ENDBRANCH  10  20
BRANCH   9  25
HETATM   25  C7  UNL     1       1.357  -1.871  21.339  1.00  0.00     0.339 C 
BRANCH  25  26
HETATM   26  N5  UNL     1      -0.003  -1.918  20.927  1.00  0.00     0.098 N 
HETATM   27  C8  UNL     1      -0.889  -1.022  21.581  1.00  0.00     0.299 C 
HETATM   28  C9  UNL     1      -1.405  -1.571  22.895  1.00  0.00     0.198 C 
HETATM   29  O2  UNL     1      -1.908  -2.852  22.802  1.00  0.00    -0.388 OA
HETATM   30  C10 UNL     1      -0.845  -3.668  22.412  1.00  0.00     0.198 C 
HETATM   31  C11 UNL     1      -0.472  -3.280  21.020  1.00  0.00     0.299 C 
ENDBRANCH  25  26
ENDBRANCH   9  25
TORSDOF 7
ENDMDL
MODEL 4
REMARK VINA RESULT: -7.866430821      0.852      1.189
REMARK  7 active torsions:
REMARK  status: ('A' for Active; 'I' for Inactive)
REMARK    1  A    between atoms: N1_1  and  C1_5 
REMARK    2  A    between atoms: C1_5  and  C2_6 
REMARK    3  A    between atoms: C2_6  and  N2_7 
REMARK    4  A    between atoms: N2_7  and  C3_9 
REMARK    5  A    between atoms: C6_17  and  C7_18 
REMARK    6  A    between atoms: C7_18  and  N5_19 
REMARK    7  A    between atoms: C12_25  and  N6_26 
ROOT
HETATM    1  C3  UNL     1       3.786   2.304  23.185  1.00  0.00     0.119 A 
HETATM    2  N3  UNL     1       4.481   3.209  22.487  1.00  0.00    -0.338 N 
ATOM      3  H3  UNL     1       5.177   3.786  22.959  1.00  0.00     0.168 HD
HETATM    4  C4  UNL     1       4.269   3.365  21.174  1.00  0.00     0.184 A 
HETATM    5  N4  UNL     1       3.346   2.595  20.574  1.00  0.00    -0.332 N 
ATOM      6  H4  UNL     1       3.196   2.728  19.573  1.00  0.00     0.168 HD
HETATM    7  C5  UNL     1       2.605   1.662  21.196  1.00  0.00     0.165 A 
HETATM    8  O1  UNL     1       1.681   0.805  20.891  1.00  0.00    -0.293 OA
HETATM    9  C6  UNL     1       1.289   0.111  21.926  1.00  0.00     0.111 A 
HETATM   10  C12 UNL     1       2.006   0.523  23.055  1.00  0.00     0.080 A 
HETATM   11  C17 UNL     1       2.840   1.511  22.572  1.00  0.00     0.088 A 
ENDROOT
BRANCH   1  12
HETATM   12  N2  UNL     1       3.961   2.117  24.461  1.00  0.00    -0.374 N 
ATOM     13  H2  UNL     1       4.040   1.180  24.856  1.00  0.00     0.161 HD
BRANCH  12  14
HETATM   14  C2  UNL     1       4.038   3.299  25.292  1.00  0.00     0.148 C 
BRANCH  14  15
HETATM   15  C1  UNL     1       3.327   3.087  26.621  1.00  0.00     0.249 C 
BRANCH  15  16
HETATM   16  N1  UNL     1       2.988   4.386  27.164  1.00  0.00    -0.078 N 
ATOM     17  H13 UNL     1       3.434   4.565  28.063  1.00  0.00     0.274 HD
ATOM     18  H12 UNL     1       3.414   5.154  26.645  1.00  0.00     0.274 HD
ATOM     19  H11 UNL     1       1.971   4.458  27.208  1.00  0.00     0.274 HD
ENDBRANCH  15  16
ENDBRANCH  14  15
ENDBRANCH  12  14
ENDBRANCH   1  12
BRANCH  10  20
HETATM   20  N6  UNL     1       1.914   0.050  24.389  1.00  0.00    -0.378 N 
HETATM   21  C13 UNL     1       0.869   0.514  25.301  1.00  0.00     0.123 C 
HETATM   22  C14 UNL     1       0.808  -0.541  26.377  1.00  0.00     0.021 C 
HETATM   23  C15 UNL     1       2.259  -0.957  26.480  1.00  0.00     0.021 C 
HETATM   24  C16 UNL     1       2.765  -0.908  25.071  1.00  0.00     0.123 C 
ENDBRANCH  10  20
BRANCH   9  25
HETATM   25  C7  UNL     1       0.269  -0.937  21.948  1.00  0.00     0.339 C 
BRANCH  25  26
HETATM   26  N5  UNL     1       0.737  -2.277  22.031  1.00  0.00     0.098 N 
HETATM   27  C8  UNL     1       0.439  -3.117  20.926  1.00  0.00     0.299 C 
HETATM   28  C9  UNL     1      -0.942  -3.733  21.019  1.00  0.00     0.198 C 
HETATM   29  O2  UNL     1      -1.200  -4.332  22.235  1.00  0.00    -0.388 OA
HETATM   30  C10 UNL     1      -1.142  -3.321  23.196  1.00  0.00     0.198 C 
HETATM   31  C11 UNL     1       0.275  -2.857  23.269  1.00  0.00     0.299 C 
ENDBRANCH  25  26
ENDBRANCH   9  25
TORSDOF 7
ENDMDL
MODEL 5
REMARK VINA RESULT: -7.830114874      1.425      1.743
REMARK  7 active torsions:
REMARK  status: ('A' for Active; 'I' for Inactive)
REMARK    1  A    between atoms: N1_1  and  C1_5 
REMARK    2  A    between atoms: C1_5  and  C2_6 
REMARK    3  A    between atoms: C2_6  and  N2_7 
REMARK    4  A    between atoms: N2_7  and  C3_9 
REMARK    5  A    between atoms: C6_17  and  C7_18 
REMARK    6  A    between atoms: C7_18  and  N5_19 
REMARK    7  A    between atoms: C12_25  and  N6_26 
ROOT
HETATM    1  C3  UNL     1       2.682   0.807  23.772  1.00  0.00     0.119 A 
HETATM    2  N3  UNL     1       3.247   1.968  23.423  1.00  0.00    -0.338 N 
ATOM      3  H3  UNL     1       3.656   2.567  24.140  1.00  0.00     0.168 HD
HETATM    4  C4  UNL     1       3.281   2.350  22.140  1.00  0.00     0.184 A 
HETATM    5  N4  UNL     1       2.735   1.545  21.213  1.00  0.00    -0.332 N 
ATOM      6  H4  UNL     1       2.768   1.853  20.241  1.00  0.00     0.168 HD
HETATM    7  C5  UNL     1       2.149   0.364  21.473  1.00  0.00     0.165 A 
HETATM    8  O1  UNL     1       1.563  -0.586  20.814  1.00  0.00    -0.293 OA
HETATM    9  C6  UNL     1       1.159  -1.552  21.594  1.00  0.00     0.111 A 
HETATM   10  C12 UNL     1       1.493  -1.245  22.918  1.00  0.00     0.080 A 
HETATM   11  C17 UNL     1       2.123  -0.022  22.823  1.00  0.00     0.088 A 
ENDROOT
BRANCH   1  12
HETATM   12  N2  UNL     1       2.629   0.395  25.005  1.00  0.00    -0.374 N 
ATOM     13  H2  UNL     1       3.141  -0.432  25.313  1.00  0.00     0.161 HD
BRANCH  12  14
HETATM   14  C2  UNL     1       1.812   1.163  25.919  1.00  0.00     0.148 C 
BRANCH  14  15
HETATM   15  C1  UNL     1       2.655   1.796  27.016  1.00  0.00     0.249 C 
BRANCH  15  16
HETATM   16  N1  UNL     1       2.849   3.193  26.688  1.00  0.00    -0.078 N 
ATOM     17  H13 UNL     1       2.915   3.356  25.683  1.00  0.00     0.274 HD
ATOM     18  H12 UNL     1       2.018   3.758  26.864  1.00  0.00     0.274 HD
ATOM     19  H11 UNL     1       3.668   3.529  27.195  1.00  0.00     0.274 HD
ENDBRANCH  15  16
ENDBRANCH  14  15
ENDBRANCH  12  14
ENDBRANCH   1  12
BRANCH  10  20
HETATM   20  N6  UNL     1       1.250  -2.001  24.094  1.00  0.00    -0.378 N 
HETATM   21  C13 UNL     1      -0.012  -1.903  24.827  1.00  0.00     0.123 C 
HETATM   22  C14 UNL     1      -0.067  -3.160  25.659  1.00  0.00     0.021 C 
HETATM   23  C15 UNL     1       1.393  -3.366  25.997  1.00  0.00     0.021 C 
HETATM   24  C16 UNL     1       2.129  -2.943  24.763  1.00  0.00     0.123 C 
ENDBRANCH  10  20
BRANCH   9  25
HETATM   25  C7  UNL     1       0.464  -2.776  21.193  1.00  0.00     0.339 C 
BRANCH  25  26
HETATM   26  N5  UNL     1      -0.939  -2.812  21.417  1.00  0.00     0.098 N 
HETATM   27  C8  UNL     1      -1.528  -4.100  21.513  1.00  0.00     0.299 C 
HETATM   28  C9  UNL     1      -1.862  -4.689  20.159  1.00  0.00     0.198 C 
HETATM   29  O2  UNL     1      -2.572  -3.834  19.342  1.00  0.00    -0.388 OA
HETATM   30  C10 UNL     1      -1.748  -2.730  19.112  1.00  0.00     0.198 C 
HETATM   31  C11 UNL     1      -1.593  -2.011  20.410  1.00  0.00     0.299 C 
ENDBRANCH  25  26
ENDBRANCH   9  25
TORSDOF 7
ENDMDL
