MODEL 1
REMARK VINA RESULT: -6.797032185      0.000      0.000
REMARK  13 active torsions:
REMARK  status: ('A' for Active; 'I' for Inactive)
REMARK    1  A    between atoms: O1_2  and  C2_3 
REMARK    2  A    between atoms: C2_3  and  C3_5 
REMARK    3  A    between atoms: C4_6  and  C5_7 
REMARK    4  A    between atoms: N2_9  and  O3_11 
REMARK    5  A    between atoms: C6_15  and  N4_16 
REMARK    6  A    between atoms: N5_19  and  C7_20 
REMARK    7  A    between atoms: C7_20  and  O4_21 
REMARK    8  A    between atoms: O4_21  and  C8_22 
REMARK    9  A    between atoms: C8_22  and  C9_24 
REMARK   10  A    between atoms: C10_27  and  O6_28 
REMARK   11  A    between atoms: C11_30  and  C12_31 
REMARK   12  A    between atoms: C12_31  and  N7_32 
REMARK   13  A    between atoms: C12_31  and  O7_36 
ROOT
HETATM    1  C3  UNL     1       8.787 -14.508  22.904  1.00  0.00     0.138 A 
HETATM    2  C4  UNL     1       8.481 -15.231  21.780  1.00  0.00     0.114 A 
HETATM    3  N3  UNL     1       7.778 -14.626  20.779  1.00  0.00    -0.187 N 
ATOM      4  H3  UNL     1       7.552 -15.166  19.944  1.00  0.00     0.184 HD
HETATM    5  C6  UNL     1       7.369 -13.336  20.850  1.00  0.00     0.683 A 
HETATM    6  N5  UNL     1       7.668 -12.631  21.947  1.00  0.00    -0.124 N 
HETATM    7  C13 UNL     1       8.358 -13.175  22.967  1.00  0.00     0.282 A 
HETATM    8  O8  UNL     1       8.636 -12.516  23.990  1.00  0.00    -0.266 OA
ENDROOT
BRANCH   6   9
HETATM    9  C7  UNL     1       7.227 -11.243  22.029  1.00  0.00     0.332 C 
BRANCH   9  10
HETATM   10  O4  UNL     1       5.819 -11.165  21.918  1.00  0.00    -0.295 OA
BRANCH  10  11
HETATM   11  C8  UNL     1       5.066 -11.368  23.066  1.00  0.00     0.319 C 
HETATM   12  O5  UNL     1       4.010 -12.012  23.131  1.00  0.00    -0.257 OA
BRANCH  11  13
HETATM   13  C9  UNL     1       5.574 -10.759  24.318  1.00  0.00     0.153 A 
HETATM   14  N6  UNL     1       6.221 -11.348  25.313  1.00  0.00    -0.325 N 
HETATM   15  C10 UNL     1       6.592 -10.651  26.339  1.00  0.00     0.158 A 
ATOM     16  H6  UNL     1       6.426 -12.346  25.271  1.00  0.00     0.168 HD
HETATM   17  C11 UNL     1       6.292  -9.315  26.345  1.00  0.00     0.091 A 
HETATM   18  S1  UNL     1       5.483  -9.138  24.853  1.00  0.00    -0.062 SA
BRANCH  15  19
HETATM   19  O6  UNL     1       7.287 -11.233  27.430  1.00  0.00    -0.345 OA
ATOM     20  H6  UNL     1       7.921 -11.931  27.309  1.00  0.00     0.219 HD
ENDBRANCH  15  19
BRANCH  17  21
HETATM   21  C12 UNL     1       6.570  -8.248  27.352  1.00  0.00     0.362 C 
BRANCH  21  22
HETATM   22  N7  UNL     1       8.020  -8.201  27.499  1.00  0.00    -0.048 N 
ATOM     23  H73 UNL     1       8.512  -8.853  26.888  1.00  0.00     0.277 HD
ATOM     24  H72 UNL     1       8.439  -7.347  27.133  1.00  0.00     0.277 HD
ATOM     25  H71 UNL     1       8.207  -8.353  28.490  1.00  0.00     0.277 HD
ENDBRANCH  21  22
BRANCH  21  26
HETATM   26  O7  UNL     1       6.171  -7.003  26.895  1.00  0.00    -0.366 OA
ATOM     27  H7  UNL     1       6.777  -6.659  26.249  1.00  0.00     0.212 HD
ENDBRANCH  21  26
ENDBRANCH  17  21
ENDBRANCH  11  13
ENDBRANCH  10  11
ENDBRANCH   9  10
ENDBRANCH   6   9
BRANCH   5  28
HETATM   28  N4  UNL     1       6.711 -12.837  19.862  1.00  0.00    -0.234 N 
ATOM     29  H42 UNL     1       7.159 -12.543  18.995  1.00  0.00     0.174 HD
ATOM     30  H41 UNL     1       5.700 -12.731  19.948  1.00  0.00     0.174 HD
ENDBRANCH   5  28
BRANCH   1  31
HETATM   31  C2  UNL     1       9.531 -15.020  24.032  1.00  0.00     0.300 C 
HETATM   32  O2  UNL     1      10.682 -15.558  23.892  1.00  0.00    -0.259 OA
BRANCH  31  33
HETATM   33  O1  UNL     1       9.070 -14.977  25.344  1.00  0.00    -0.322 OA
HETATM   34  C1  UNL     1       8.337 -16.023  25.913  1.00  0.00     0.213 C 
ENDBRANCH  31  33
ENDBRANCH   1  31
BRANCH   2  35
HETATM   35  C5  UNL     1       8.878 -16.626  21.631  1.00  0.00     0.164 C 
HETATM   36  N1  UNL     1       7.981 -17.721  21.959  1.00  0.00    -0.078 NA
HETATM   37  N2  UNL     1       9.994 -17.012  21.212  1.00  0.00    -0.253 N 
ATOM     38  H2  UNL     1      10.021 -18.032  21.202  1.00  0.00     0.195 HD
BRANCH  37  39
HETATM   39  O3  UNL     1      11.129 -16.542  20.787  1.00  0.00    -0.288 OA
ATOM     40  H3  UNL     1      12.058 -16.573  20.982  1.00  0.00     0.244 HD
ENDBRANCH  37  39
ENDBRANCH   2  35
TORSDOF 13
ENDMDL
MODEL 2
REMARK VINA RESULT: -6.522656203      3.017      8.191
REMARK  13 active torsions:
REMARK  status: ('A' for Active; 'I' for Inactive)
REMARK    1  A    between atoms: O1_2  and  C2_3 
REMARK    2  A    between atoms: C2_3  and  C3_5 
REMARK    3  A    between atoms: C4_6  and  C5_7 
REMARK    4  A    between atoms: N2_9  and  O3_11 
REMARK    5  A    between atoms: C6_15  and  N4_16 
REMARK    6  A    between atoms: N5_19  and  C7_20 
REMARK    7  A    between atoms: C7_20  and  O4_21 
REMARK    8  A    between atoms: O4_21  and  C8_22 
REMARK    9  A    between atoms: C8_22  and  C9_24 
REMARK   10  A    between atoms: C10_27  and  O6_28 
REMARK   11  A    between atoms: C11_30  and  C12_31 
REMARK   12  A    between atoms: C12_31  and  N7_32 
REMARK   13  A    between atoms: C12_31  and  O7_36 
ROOT
HETATM    1  C3  UNL     1       4.409  -9.583  27.078  1.00  0.00     0.138 A 
HETATM    2  C4  UNL     1       3.222 -10.024  26.558  1.00  0.00     0.114 A 
HETATM    3  N3  UNL     1       3.188 -10.453  25.262  1.00  0.00    -0.187 N 
ATOM      4  H3  UNL     1       2.302 -10.781  24.877  1.00  0.00     0.184 HD
HETATM    5  C6  UNL     1       4.286 -10.461  24.468  1.00  0.00     0.683 A 
HETATM    6  N5  UNL     1       5.445 -10.030  24.976  1.00  0.00    -0.124 N 
HETATM    7  C13 UNL     1       5.538  -9.594  26.247  1.00  0.00     0.282 A 
HETATM    8  O8  UNL     1       6.621  -9.193  26.719  1.00  0.00    -0.266 OA
ENDROOT
BRANCH   6   9
HETATM    9  C7  UNL     1       6.629 -10.033  24.123  1.00  0.00     0.332 C 
BRANCH   9  10
HETATM   10  O4  UNL     1       6.898 -11.342  23.658  1.00  0.00    -0.295 OA
BRANCH  10  11
HETATM   11  C8  UNL     1       7.875 -12.075  24.317  1.00  0.00     0.319 C 
HETATM   12  O5  UNL     1       8.249 -11.891  25.483  1.00  0.00    -0.257 OA
BRANCH  11  13
HETATM   13  C9  UNL     1       8.521 -13.169  23.555  1.00  0.00     0.153 A 
HETATM   14  N6  UNL     1       8.770 -13.228  22.255  1.00  0.00    -0.325 N 
HETATM   15  C10 UNL     1       9.348 -14.274  21.757  1.00  0.00     0.158 A 
ATOM     16  H6  UNL     1       8.509 -12.451  21.648  1.00  0.00     0.168 HD
HETATM   17  C11 UNL     1       9.679 -15.287  22.617  1.00  0.00     0.091 A 
HETATM   18  S1  UNL     1       9.132 -14.666  24.109  1.00  0.00    -0.062 SA
BRANCH  15  19
HETATM   19  O6  UNL     1       9.637 -14.386  20.374  1.00  0.00    -0.345 OA
ATOM     20  H6  UNL     1      10.306 -13.857  19.955  1.00  0.00     0.219 HD
ENDBRANCH  15  19
BRANCH  17  21
HETATM   21  C12 UNL     1      10.341 -16.605  22.377  1.00  0.00     0.362 C 
BRANCH  21  22
HETATM   22  N7  UNL     1       9.460 -17.340  21.477  1.00  0.00    -0.048 N 
ATOM     23  H73 UNL     1       9.225 -18.274  21.811  1.00  0.00     0.277 HD
ATOM     24  H72 UNL     1       8.508 -16.974  21.451  1.00  0.00     0.277 HD
ATOM     25  H71 UNL     1       9.921 -17.336  20.567  1.00  0.00     0.277 HD
ENDBRANCH  21  22
BRANCH  21  26
HETATM   26  O7  UNL     1      11.551 -16.453  21.722  1.00  0.00    -0.366 OA
ATOM     27  H7  UNL     1      11.499 -16.751  20.822  1.00  0.00     0.212 HD
ENDBRANCH  21  26
ENDBRANCH  17  21
ENDBRANCH  11  13
ENDBRANCH  10  11
ENDBRANCH   9  10
ENDBRANCH   6   9
BRANCH   5  28
HETATM   28  N4  UNL     1       4.173 -10.882  23.256  1.00  0.00    -0.234 N 
ATOM     29  H42 UNL     1       3.957 -11.852  23.029  1.00  0.00     0.174 HD
ATOM     30  H41 UNL     1       4.303 -10.221  22.491  1.00  0.00     0.174 HD
ENDBRANCH   5  28
BRANCH   1  31
HETATM   31  C2  UNL     1       4.589  -9.111  28.432  1.00  0.00     0.300 C 
HETATM   32  O2  UNL     1       4.234  -7.935  28.787  1.00  0.00    -0.259 OA
BRANCH  31  33
HETATM   33  O1  UNL     1       5.154  -9.875  29.448  1.00  0.00    -0.322 OA
HETATM   34  C1  UNL     1       4.682 -11.150  29.775  1.00  0.00     0.213 C 
ENDBRANCH  31  33
ENDBRANCH   1  31
BRANCH   2  35
HETATM   35  C5  UNL     1       1.995 -10.040  27.345  1.00  0.00     0.164 C 
HETATM   36  N1  UNL     1       1.400 -11.277  27.820  1.00  0.00    -0.078 NA
HETATM   37  N2  UNL     1       1.351  -9.021  27.689  1.00  0.00    -0.253 N 
ATOM     38  H2  UNL     1       0.534  -9.300  28.232  1.00  0.00     0.195 HD
BRANCH  37  39
HETATM   39  O3  UNL     1       1.381  -7.726  27.581  1.00  0.00    -0.288 OA
ATOM     40  H3  UNL     1       0.984  -6.947  27.952  1.00  0.00     0.244 HD
ENDBRANCH  37  39
ENDBRANCH   2  35
TORSDOF 13
ENDMDL
MODEL 3
REMARK VINA RESULT: -6.438456048      2.196      2.460
REMARK  13 active torsions:
REMARK  status: ('A' for Active; 'I' for Inactive)
REMARK    1  A    between atoms: O1_2  and  C2_3 
REMARK    2  A    between atoms: C2_3  and  C3_5 
REMARK    3  A    between atoms: C4_6  and  C5_7 
REMARK    4  A    between atoms: N2_9  and  O3_11 
REMARK    5  A    between atoms: C6_15  and  N4_16 
REMARK    6  A    between atoms: N5_19  and  C7_20 
REMARK    7  A    between atoms: C7_20  and  O4_21 
REMARK    8  A    between atoms: O4_21  and  C8_22 
REMARK    9  A    between atoms: C8_22  and  C9_24 
REMARK   10  A    between atoms: C10_27  and  O6_28 
REMARK   11  A    between atoms: C11_30  and  C12_31 
REMARK   12  A    between atoms: C12_31  and  N7_32 
REMARK   13  A    between atoms: C12_31  and  O7_36 
ROOT
HETATM    1  C3  UNL     1       8.857 -14.543  22.929  1.00  0.00     0.138 A 
HETATM    2  C4  UNL     1       8.480 -15.249  21.817  1.00  0.00     0.114 A 
HETATM    3  N3  UNL     1       7.736 -14.624  20.859  1.00  0.00    -0.187 N 
ATOM      4  H3  UNL     1       7.457 -15.152  20.033  1.00  0.00     0.184 HD
HETATM    5  C6  UNL     1       7.354 -13.328  20.963  1.00  0.00     0.683 A 
HETATM    6  N5  UNL     1       7.721 -12.639  22.049  1.00  0.00    -0.124 N 
HETATM    7  C13 UNL     1       8.455 -13.204  23.027  1.00  0.00     0.282 A 
HETATM    8  O8  UNL     1       8.797 -12.559  24.038  1.00  0.00    -0.266 OA
ENDROOT
BRANCH   6   9
HETATM    9  C7  UNL     1       7.309 -11.244  22.166  1.00  0.00     0.332 C 
BRANCH   9  10
HETATM   10  O4  UNL     1       6.086 -11.149  22.872  1.00  0.00    -0.295 OA
BRANCH  10  11
HETATM   11  C8  UNL     1       5.900 -10.052  23.701  1.00  0.00     0.319 C 
HETATM   12  O5  UNL     1       6.541  -8.993  23.649  1.00  0.00    -0.257 OA
BRANCH  11  13
HETATM   13  C9  UNL     1       4.844 -10.162  24.733  1.00  0.00     0.153 A 
HETATM   14  N6  UNL     1       4.331 -11.262  25.268  1.00  0.00    -0.325 N 
HETATM   15  C10 UNL     1       3.404 -11.167  26.167  1.00  0.00     0.158 A 
ATOM     16  H6  UNL     1       4.666 -12.179  24.974  1.00  0.00     0.168 HD
HETATM   17  C11 UNL     1       2.993  -9.911  26.527  1.00  0.00     0.091 A 
HETATM   18  S1  UNL     1       3.977  -8.929  25.537  1.00  0.00    -0.062 SA
BRANCH  15  19
HETATM   19  O6  UNL     1       2.823 -12.311  26.771  1.00  0.00    -0.345 OA
ATOM     20  H6  UNL     1       2.151 -12.241  27.439  1.00  0.00     0.219 HD
ENDBRANCH  15  19
BRANCH  17  21
HETATM   21  C12 UNL     1       1.966  -9.457  27.512  1.00  0.00     0.362 C 
BRANCH  21  22
HETATM   22  N7  UNL     1       1.488  -8.166  27.028  1.00  0.00    -0.048 N 
ATOM     23  H73 UNL     1       1.702  -7.995  26.046  1.00  0.00     0.277 HD
ATOM     24  H72 UNL     1       0.472  -8.114  26.945  1.00  0.00     0.277 HD
ATOM     25  H71 UNL     1       1.880  -7.467  27.659  1.00  0.00     0.277 HD
ENDBRANCH  21  22
BRANCH  21  26
HETATM   26  O7  UNL     1       0.873 -10.308  27.535  1.00  0.00    -0.366 OA
ATOM     27  H7  UNL     1       1.117 -11.179  27.824  1.00  0.00     0.212 HD
ENDBRANCH  21  26
ENDBRANCH  17  21
ENDBRANCH  11  13
ENDBRANCH  10  11
ENDBRANCH   9  10
ENDBRANCH   6   9
BRANCH   5  28
HETATM   28  N4  UNL     1       6.653 -12.809  20.016  1.00  0.00    -0.234 N 
ATOM     29  H42 UNL     1       5.826 -12.239  20.192  1.00  0.00     0.174 HD
ATOM     30  H41 UNL     1       6.934 -12.972  19.049  1.00  0.00     0.174 HD
ENDBRANCH   5  28
BRANCH   1  31
HETATM   31  C2  UNL     1       9.650 -15.078  24.012  1.00  0.00     0.300 C 
HETATM   32  O2  UNL     1      10.801 -15.598  23.812  1.00  0.00    -0.259 OA
BRANCH  31  33
HETATM   33  O1  UNL     1       9.241 -15.078  25.342  1.00  0.00    -0.322 OA
HETATM   34  C1  UNL     1       8.326 -16.009  25.842  1.00  0.00     0.213 C 
ENDBRANCH  31  33
ENDBRANCH   1  31
BRANCH   2  35
HETATM   35  C5  UNL     1       8.845 -16.649  21.635  1.00  0.00     0.164 C 
HETATM   36  N1  UNL     1       7.932 -17.732  21.962  1.00  0.00    -0.078 NA
HETATM   37  N2  UNL     1       9.943 -17.051  21.186  1.00  0.00    -0.253 N 
ATOM     38  H2  UNL     1       9.949 -18.071  21.157  1.00  0.00     0.195 HD
BRANCH  37  39
HETATM   39  O3  UNL     1      11.079 -16.597  20.745  1.00  0.00    -0.288 OA
ATOM     40  H3  UNL     1      11.998 -16.833  20.698  1.00  0.00     0.244 HD
ENDBRANCH  37  39
ENDBRANCH   2  35
TORSDOF 13
ENDMDL
MODEL 4
REMARK VINA RESULT: -6.435215536      0.984      1.280
REMARK  13 active torsions:
REMARK  status: ('A' for Active; 'I' for Inactive)
REMARK    1  A    between atoms: O1_2  and  C2_3 
REMARK    2  A    between atoms: C2_3  and  C3_5 
REMARK    3  A    between atoms: C4_6  and  C5_7 
REMARK    4  A    between atoms: N2_9  and  O3_11 
REMARK    5  A    between atoms: C6_15  and  N4_16 
REMARK    6  A    between atoms: N5_19  and  C7_20 
REMARK    7  A    between atoms: C7_20  and  O4_21 
REMARK    8  A    between atoms: O4_21  and  C8_22 
REMARK    9  A    between atoms: C8_22  and  C9_24 
REMARK   10  A    between atoms: C10_27  and  O6_28 
REMARK   11  A    between atoms: C11_30  and  C12_31 
REMARK   12  A    between atoms: C12_31  and  N7_32 
REMARK   13  A    between atoms: C12_31  and  O7_36 
ROOT
HETATM    1  C3  UNL     1       8.790 -14.501  22.950  1.00  0.00     0.138 A 
HETATM    2  C4  UNL     1       8.481 -15.187  21.806  1.00  0.00     0.114 A 
HETATM    3  N3  UNL     1       7.772 -14.553  20.827  1.00  0.00    -0.187 N 
ATOM      4  H3  UNL     1       7.544 -15.067  19.976  1.00  0.00     0.184 HD
HETATM    5  C6  UNL     1       7.361 -13.267  20.941  1.00  0.00     0.683 A 
HETATM    6  N5  UNL     1       7.662 -12.597  22.059  1.00  0.00    -0.124 N 
HETATM    7  C13 UNL     1       8.358 -13.171  23.058  1.00  0.00     0.282 A 
HETATM    8  O8  UNL     1       8.638 -12.544  24.100  1.00  0.00    -0.266 OA
ENDROOT
BRANCH   6   9
HETATM    9  C7  UNL     1       7.218 -11.213  22.187  1.00  0.00     0.332 C 
BRANCH   9  10
HETATM   10  O4  UNL     1       5.823 -11.120  21.972  1.00  0.00    -0.295 OA
BRANCH  10  11
HETATM   11  C8  UNL     1       4.984 -11.366  23.050  1.00  0.00     0.319 C 
HETATM   12  O5  UNL     1       3.988 -12.101  23.034  1.00  0.00    -0.257 OA
BRANCH  11  13
HETATM   13  C9  UNL     1       5.314 -10.688  24.325  1.00  0.00     0.153 A 
HETATM   14  N6  UNL     1       5.260  -9.393  24.604  1.00  0.00    -0.325 N 
HETATM   15  C10 UNL     1       5.589  -8.976  25.785  1.00  0.00     0.158 A 
ATOM     16  H6  UNL     1       4.960  -8.728  23.892  1.00  0.00     0.168 HD
HETATM   17  C11 UNL     1       5.984  -9.912  26.704  1.00  0.00     0.091 A 
HETATM   18  S1  UNL     1       5.856 -11.355  25.802  1.00  0.00    -0.062 SA
BRANCH  15  19
HETATM   19  O6  UNL     1       5.549  -7.602  26.135  1.00  0.00    -0.345 OA
ATOM     20  H6  UNL     1       6.014  -7.261  26.890  1.00  0.00     0.219 HD
ENDBRANCH  15  19
BRANCH  17  21
HETATM   21  C12 UNL     1       6.419  -9.773  28.125  1.00  0.00     0.362 C 
BRANCH  21  22
HETATM   22  N7  UNL     1       7.525  -8.822  28.116  1.00  0.00    -0.048 N 
ATOM     23  H73 UNL     1       7.906  -8.651  27.185  1.00  0.00     0.277 HD
ATOM     24  H72 UNL     1       7.238  -7.862  28.311  1.00  0.00     0.277 HD
ATOM     25  H71 UNL     1       8.212  -9.183  28.777  1.00  0.00     0.277 HD
ENDBRANCH  21  22
BRANCH  21  26
HETATM   26  O7  UNL     1       5.421  -9.221  28.911  1.00  0.00    -0.366 OA
ATOM     27  H7  UNL     1       5.441  -9.569  29.794  1.00  0.00     0.212 HD
ENDBRANCH  21  26
ENDBRANCH  17  21
ENDBRANCH  11  13
ENDBRANCH  10  11
ENDBRANCH   9  10
ENDBRANCH   6   9
BRANCH   5  28
HETATM   28  N4  UNL     1       6.697 -12.738  19.972  1.00  0.00    -0.234 N 
ATOM     29  H42 UNL     1       5.687 -12.839  19.878  1.00  0.00     0.174 HD
ATOM     30  H41 UNL     1       7.200 -12.197  19.269  1.00  0.00     0.174 HD
ENDBRANCH   5  28
BRANCH   1  31
HETATM   31  C2  UNL     1       9.539 -15.046  24.059  1.00  0.00     0.300 C 
HETATM   32  O2  UNL     1      10.690 -15.577  23.897  1.00  0.00    -0.259 OA
BRANCH  31  33
HETATM   33  O1  UNL     1       9.083 -15.046  25.373  1.00  0.00    -0.322 OA
HETATM   34  C1  UNL     1       8.308 -16.085  25.896  1.00  0.00     0.213 C 
ENDBRANCH  31  33
ENDBRANCH   1  31
BRANCH   2  35
HETATM   35  C5  UNL     1       8.880 -16.576  21.610  1.00  0.00     0.164 C 
HETATM   36  N1  UNL     1       7.988 -17.683  21.911  1.00  0.00    -0.078 NA
HETATM   37  N2  UNL     1       9.993 -16.947  21.172  1.00  0.00    -0.253 N 
ATOM     38  H2  UNL     1      10.023 -17.965  21.130  1.00  0.00     0.195 HD
BRANCH  37  39
HETATM   39  O3  UNL     1      11.124 -16.460  20.754  1.00  0.00    -0.288 OA
ATOM     40  H3  UNL     1      11.949 -16.123  21.085  1.00  0.00     0.244 HD
ENDBRANCH  37  39
ENDBRANCH   2  35
TORSDOF 13
ENDMDL
MODEL 5
REMARK VINA RESULT: -6.356014257      5.074     11.636
REMARK  13 active torsions:
REMARK  status: ('A' for Active; 'I' for Inactive)
REMARK    1  A    between atoms: O1_2  and  C2_3 
REMARK    2  A    between atoms: C2_3  and  C3_5 
REMARK    3  A    between atoms: C4_6  and  C5_7 
REMARK    4  A    between atoms: N2_9  and  O3_11 
REMARK    5  A    between atoms: C6_15  and  N4_16 
REMARK    6  A    between atoms: N5_19  and  C7_20 
REMARK    7  A    between atoms: C7_20  and  O4_21 
REMARK    8  A    between atoms: O4_21  and  C8_22 
REMARK    9  A    between atoms: C8_22  and  C9_24 
REMARK   10  A    between atoms: C10_27  and  O6_28 
REMARK   11  A    between atoms: C11_30  and  C12_31 
REMARK   12  A    between atoms: C12_31  and  N7_32 
REMARK   13  A    between atoms: C12_31  and  O7_36 
ROOT
HETATM    1  C3  UNL     1       6.272  -2.054  27.795  1.00  0.00     0.138 A 
HETATM    2  C4  UNL     1       7.485  -1.693  27.271  1.00  0.00     0.114 A 
HETATM    3  N3  UNL     1       8.462  -2.639  27.157  1.00  0.00    -0.187 N 
ATOM      4  H3  UNL     1       9.364  -2.368  26.767  1.00  0.00     0.184 HD
HETATM    5  C6  UNL     1       8.280  -3.926  27.542  1.00  0.00     0.683 A 
HETATM    6  N5  UNL     1       7.095  -4.278  28.055  1.00  0.00    -0.124 N 
HETATM    7  C13 UNL     1       6.095  -3.387  28.192  1.00  0.00     0.282 A 
HETATM    8  O8  UNL     1       4.990  -3.717  28.669  1.00  0.00    -0.266 OA
ENDROOT
BRANCH   6   9
HETATM    9  C7  UNL     1       6.896  -5.661  28.473  1.00  0.00     0.332 C 
BRANCH   9  10
HETATM   10  O4  UNL     1       6.194  -6.382  27.478  1.00  0.00    -0.295 OA
BRANCH  10  11
HETATM   11  C8  UNL     1       6.858  -7.420  26.840  1.00  0.00     0.319 C 
HETATM   12  O5  UNL     1       8.070  -7.657  26.922  1.00  0.00    -0.257 OA
BRANCH  11  13
HETATM   13  C9  UNL     1       6.041  -8.317  25.991  1.00  0.00     0.153 A 
HETATM   14  N6  UNL     1       4.755  -8.615  26.111  1.00  0.00    -0.325 N 
HETATM   15  C10 UNL     1       4.202  -9.427  25.269  1.00  0.00     0.158 A 
ATOM     16  H6  UNL     1       4.203  -8.207  26.865  1.00  0.00     0.168 HD
HETATM   17  C11 UNL     1       4.989  -9.947  24.275  1.00  0.00     0.091 A 
HETATM   18  S1  UNL     1       6.497  -9.226  24.617  1.00  0.00    -0.062 SA
BRANCH  15  19
HETATM   19  O6  UNL     1       2.831  -9.779  25.353  1.00  0.00    -0.345 OA
ATOM     20  H6  UNL     1       2.240  -9.686  24.615  1.00  0.00     0.219 HD
ENDBRANCH  15  19
BRANCH  17  21
HETATM   21  C12 UNL     1       4.673 -10.892  23.163  1.00  0.00     0.362 C 
BRANCH  21  22
HETATM   22  N7  UNL     1       5.902 -11.634  22.903  1.00  0.00    -0.048 N 
ATOM     23  H73 UNL     1       5.814 -12.314  22.149  1.00  0.00     0.277 HD
ATOM     24  H72 UNL     1       6.635 -11.068  22.476  1.00  0.00     0.277 HD
ATOM     25  H71 UNL     1       6.174 -12.047  23.795  1.00  0.00     0.277 HD
ENDBRANCH  21  22
BRANCH  21  26
HETATM   26  O7  UNL     1       3.715 -11.818  23.540  1.00  0.00    -0.366 OA
ATOM     27  H7  UNL     1       3.624 -12.508  22.894  1.00  0.00     0.212 HD
ENDBRANCH  21  26
ENDBRANCH  17  21
ENDBRANCH  11  13
ENDBRANCH  10  11
ENDBRANCH   9  10
ENDBRANCH   6   9
BRANCH   5  28
HETATM   28  N4  UNL     1       9.250  -4.761  27.401  1.00  0.00    -0.234 N 
ATOM     29  H42 UNL     1       9.970  -4.892  28.111  1.00  0.00     0.174 HD
ATOM     30  H41 UNL     1       9.303  -5.313  26.546  1.00  0.00     0.174 HD
ENDBRANCH   5  28
BRANCH   1  31
HETATM   31  C2  UNL     1       5.150  -1.158  27.965  1.00  0.00     0.300 C 
HETATM   32  O2  UNL     1       5.065  -0.369  28.967  1.00  0.00    -0.259 OA
BRANCH  31  33
HETATM   33  O1  UNL     1       4.084  -1.078  27.075  1.00  0.00    -0.322 OA
HETATM   34  C1  UNL     1       2.753  -1.069  27.503  1.00  0.00     0.213 C 
ENDBRANCH  31  33
ENDBRANCH   1  31
BRANCH   2  35
HETATM   35  C5  UNL     1       7.762  -0.328  26.842  1.00  0.00     0.164 C 
HETATM   36  N1  UNL     1       7.913   0.023  25.440  1.00  0.00    -0.078 NA
HETATM   37  N2  UNL     1       7.888   0.654  27.610  1.00  0.00    -0.253 N 
ATOM     38  H2  UNL     1       8.078   1.494  27.064  1.00  0.00     0.195 HD
BRANCH  37  39
HETATM   39  O3  UNL     1       7.857   0.954  28.875  1.00  0.00    -0.288 OA
ATOM     40  H3  UNL     1       7.614   1.664  29.457  1.00  0.00     0.244 HD
ENDBRANCH  37  39
ENDBRANCH   2  35
TORSDOF 13
ENDMDL
