MODEL 1
REMARK VINA RESULT: -7.389322283      0.000      0.000
REMARK  11 active torsions:
REMARK  status: ('A' for Active; 'I' for Inactive)
REMARK    1  A    between atoms: C4_6  and  N2_7 
REMARK    2  A    between atoms: N2_7  and  N3_8 
REMARK    3  A    between atoms: N2_7  and  O1_12 
REMARK    4  A    between atoms: N3_8  and  N4_9 
REMARK    5  A    between atoms: O1_12  and  C5_13 
REMARK    6  A    between atoms: N7_19  and  N8_20 
REMARK       I    between atoms: N8_20  and  C6_22 
REMARK    7  A    between atoms: N10_24  and  C7_26 
REMARK    8  A    between atoms: C7_26  and  C8_27 
REMARK    9  A    between atoms: C10_29  and  O4_30 
REMARK   10  A    between atoms: C11_32  and  O5_33 
REMARK   11  A    between atoms: C12_35  and  N11_36 
ROOT
HETATM    1  N8  UNL     1       5.981  -7.289  27.811  1.00  0.00    -0.256 N 
ATOM      2  H8  UNL     1       5.352  -7.171  28.606  1.00  0.00     0.191 HD
HETATM    3  C6  UNL     1       7.047  -6.367  27.625  1.00  0.00     0.204 C 
HETATM    4  N9  UNL     1       8.228  -6.708  26.904  1.00  0.00    -0.062 NA
HETATM    5  N10 UNL     1       6.955  -5.166  28.126  1.00  0.00    -0.358 N 
ATOM      6  H10 UNL     1       6.114  -4.912  28.644  1.00  0.00     0.162 HD
ENDROOT
BRANCH   1   7
HETATM    7  N7  UNL     1       5.782  -8.310  26.964  1.00  0.00    -0.185 N 
HETATM    8  C2  UNL     1       5.891  -9.633  27.433  1.00  0.00     0.149 C 
HETATM    9  C1  UNL     1       4.535 -10.172  27.827  1.00  0.00     0.066 C 
HETATM   10  C3  UNL     1       6.808  -9.703  28.632  1.00  0.00     0.066 C 
HETATM   11  N1  UNL     1       6.459 -10.492  26.408  1.00  0.00    -0.193 N 
HETATM   12  C4  UNL     1       6.482 -10.155  25.162  1.00  0.00     0.734 C 
ATOM     13  H1  UNL     1       6.852 -11.392  26.683  1.00  0.00     0.180 HD
HETATM   14  N5  UNL     1       5.929  -8.897  24.798  1.00  0.00    -0.111 N 
HETATM   15  N6  UNL     1       5.278  -8.088  25.736  1.00  0.00     0.013 NA
ATOM     16  H5  UNL     1       6.009  -8.578  23.831  1.00  0.00     0.203 HD
BRANCH  12  17
HETATM   17  N2  UNL     1       7.027 -10.968  24.134  1.00  0.00     0.045 N 
BRANCH  17  18
HETATM   18  N3  UNL     1       7.952 -11.961  24.483  1.00  0.00     0.016 NA
BRANCH  18  19
HETATM   19  N4  UNL     1       8.648 -12.435  23.363  1.00  0.00    -0.326 N 
ATOM     20  H42 UNL     1       8.377 -12.224  22.403  1.00  0.00     0.174 HD
ATOM     21  H41 UNL     1       9.447 -13.009  23.633  1.00  0.00     0.174 HD
ENDBRANCH  18  19
ENDBRANCH  17  18
BRANCH  17  22
HETATM   22  O1  UNL     1       6.711 -10.848  22.811  1.00  0.00    -0.136 OA
BRANCH  22  23
HETATM   23  C5  UNL     1       5.770 -11.696  22.244  1.00  0.00     0.357 C 
HETATM   24  O2  UNL     1       6.141 -12.393  21.266  1.00  0.00    -0.622 OA
HETATM   25  O3  UNL     1       4.487 -11.737  22.773  1.00  0.00    -0.622 OA
ENDBRANCH  22  23
ENDBRANCH  17  22
ENDBRANCH  12  17
ENDBRANCH   1   7
BRANCH   5  26
HETATM   26  C7  UNL     1       7.995  -4.186  27.976  1.00  0.00     0.179 C 
BRANCH  26  27
HETATM   27  C8  UNL     1       7.376  -2.928  27.482  1.00  0.00     0.031 A 
HETATM   28  C9  UNL     1       8.019  -2.073  26.601  1.00  0.00     0.066 A 
HETATM   29  C10 UNL     1       7.445  -0.910  26.146  1.00  0.00     0.104 A 
HETATM   30  C11 UNL     1       6.179  -0.569  26.575  1.00  0.00     0.149 A 
HETATM   31  C12 UNL     1       5.548  -1.417  27.447  1.00  0.00     0.210 A 
HETATM   32  N12 UNL     1       6.127  -2.550  27.880  1.00  0.00    -0.337 N 
ATOM     33  H12 UNL     1       5.615  -3.148  28.527  1.00  0.00     0.167 HD
BRANCH  29  34
HETATM   34  O4  UNL     1       8.097  -0.052  25.258  1.00  0.00    -0.358 OA
ATOM     35  H4  UNL     1       7.633   0.599  24.746  1.00  0.00     0.217 HD
ENDBRANCH  29  34
BRANCH  30  36
HETATM   36  O5  UNL     1       5.568   0.588  26.143  1.00  0.00    -0.355 OA
ATOM     37  H5  UNL     1       4.817   0.558  25.562  1.00  0.00     0.218 HD
ENDBRANCH  30  36
BRANCH  31  38
HETATM   38  N11 UNL     1       4.240  -1.078  27.900  1.00  0.00    -0.095 N 
HETATM   39  O6  UNL     1       3.971  -0.750  29.055  1.00  0.00    -0.530 OA
HETATM   40  O7  UNL     1       3.230  -1.127  26.969  1.00  0.00    -0.530 OA
ENDBRANCH  31  38
ENDBRANCH  26  27
ENDBRANCH   5  26
TORSDOF 11
ENDMDL
MODEL 2
REMARK VINA RESULT: -7.156108934      1.542      2.062
REMARK  11 active torsions:
REMARK  status: ('A' for Active; 'I' for Inactive)
REMARK    1  A    between atoms: C4_6  and  N2_7 
REMARK    2  A    between atoms: N2_7  and  N3_8 
REMARK    3  A    between atoms: N2_7  and  O1_12 
REMARK    4  A    between atoms: N3_8  and  N4_9 
REMARK    5  A    between atoms: O1_12  and  C5_13 
REMARK    6  A    between atoms: N7_19  and  N8_20 
REMARK       I    between atoms: N8_20  and  C6_22 
REMARK    7  A    between atoms: N10_24  and  C7_26 
REMARK    8  A    between atoms: C7_26  and  C8_27 
REMARK    9  A    between atoms: C10_29  and  O4_30 
REMARK   10  A    between atoms: C11_32  and  O5_33 
REMARK   11  A    between atoms: C12_35  and  N11_36 
ROOT
HETATM    1  N8  UNL     1       6.282  -7.002  27.774  1.00  0.00    -0.256 N 
ATOM      2  H8  UNL     1       5.623  -6.734  28.504  1.00  0.00     0.191 HD
HETATM    3  C6  UNL     1       7.494  -6.274  27.628  1.00  0.00     0.204 C 
HETATM    4  N9  UNL     1       8.655  -6.843  27.030  1.00  0.00    -0.062 NA
HETATM    5  N10 UNL     1       7.560  -5.041  28.052  1.00  0.00    -0.358 N 
ATOM      6  H10 UNL     1       6.734  -4.625  28.481  1.00  0.00     0.162 HD
ENDROOT
BRANCH   1   7
HETATM    7  N7  UNL     1       5.986  -8.036  26.971  1.00  0.00    -0.185 N 
HETATM    8  C2  UNL     1       5.983  -9.343  27.493  1.00  0.00     0.149 C 
HETATM    9  C1  UNL     1       4.589  -9.744  27.918  1.00  0.00     0.066 C 
HETATM   10  C3  UNL     1       6.903  -9.445  28.688  1.00  0.00     0.066 C 
HETATM   11  N1  UNL     1       6.463 -10.290  26.501  1.00  0.00    -0.193 N 
HETATM   12  C4  UNL     1       6.502 -10.007  25.242  1.00  0.00     0.734 C 
ATOM     13  H1  UNL     1       6.778 -11.209  26.810  1.00  0.00     0.180 HD
HETATM   14  N5  UNL     1       6.059  -8.721  24.829  1.00  0.00    -0.111 N 
HETATM   15  N6  UNL     1       5.491  -7.820  25.738  1.00  0.00     0.013 NA
ATOM     16  H5  UNL     1       6.157  -8.449  23.850  1.00  0.00     0.203 HD
BRANCH  12  17
HETATM   17  N2  UNL     1       6.964 -10.906  24.245  1.00  0.00     0.045 N 
BRANCH  17  18
HETATM   18  N3  UNL     1       7.782 -11.976  24.632  1.00  0.00     0.016 NA
BRANCH  18  19
HETATM   19  N4  UNL     1       8.632 -12.378  23.594  1.00  0.00    -0.326 N 
ATOM     20  H42 UNL     1       8.312 -12.547  22.640  1.00  0.00     0.174 HD
ATOM     21  H41 UNL     1       9.596 -12.476  23.915  1.00  0.00     0.174 HD
ENDBRANCH  18  19
ENDBRANCH  17  18
BRANCH  17  22
HETATM   22  O1  UNL     1       6.664 -10.799  22.917  1.00  0.00    -0.136 OA
BRANCH  22  23
HETATM   23  C5  UNL     1       5.730 -11.653  22.347  1.00  0.00     0.357 C 
HETATM   24  O2  UNL     1       6.115 -12.366  21.386  1.00  0.00    -0.622 OA
HETATM   25  O3  UNL     1       4.437 -11.682  22.855  1.00  0.00    -0.622 OA
ENDBRANCH  22  23
ENDBRANCH  17  22
ENDBRANCH  12  17
ENDBRANCH   1   7
BRANCH   5  26
HETATM   26  C7  UNL     1       8.752  -4.248  27.936  1.00  0.00     0.179 C 
BRANCH  26  27
HETATM   27  C8  UNL     1       8.386  -2.826  28.171  1.00  0.00     0.031 A 
HETATM   28  C9  UNL     1       8.539  -2.207  29.401  1.00  0.00     0.066 A 
HETATM   29  C10 UNL     1       8.200  -0.892  29.614  1.00  0.00     0.104 A 
HETATM   30  C11 UNL     1       7.686  -0.149  28.572  1.00  0.00     0.149 A 
HETATM   31  C12 UNL     1       7.535  -0.766  27.359  1.00  0.00     0.210 A 
HETATM   32  N12 UNL     1       7.873  -2.054  27.170  1.00  0.00    -0.337 N 
ATOM     33  H12 UNL     1       7.743  -2.467  26.247  1.00  0.00     0.167 HD
BRANCH  29  34
HETATM   34  O4  UNL     1       8.358  -0.272  30.856  1.00  0.00    -0.358 OA
ATOM     35  H4  UNL     1       8.954   0.455  30.989  1.00  0.00     0.217 HD
ENDBRANCH  29  34
BRANCH  30  36
HETATM   36  O5  UNL     1       7.334   1.172  28.745  1.00  0.00    -0.355 OA
ATOM     37  H5  UNL     1       7.965   1.869  28.612  1.00  0.00     0.218 HD
ENDBRANCH  30  36
BRANCH  31  38
HETATM   38  N11 UNL     1       7.004  -0.012  26.272  1.00  0.00    -0.095 N 
HETATM   39  O6  UNL     1       5.840   0.380  26.206  1.00  0.00    -0.530 OA
HETATM   40  O7  UNL     1       7.867   0.284  25.244  1.00  0.00    -0.530 OA
ENDBRANCH  31  38
ENDBRANCH  26  27
ENDBRANCH   5  26
TORSDOF 11
ENDMDL
MODEL 3
REMARK VINA RESULT: -7.142274719      1.989      2.791
REMARK  11 active torsions:
REMARK  status: ('A' for Active; 'I' for Inactive)
REMARK    1  A    between atoms: C4_6  and  N2_7 
REMARK    2  A    between atoms: N2_7  and  N3_8 
REMARK    3  A    between atoms: N2_7  and  O1_12 
REMARK    4  A    between atoms: N3_8  and  N4_9 
REMARK    5  A    between atoms: O1_12  and  C5_13 
REMARK    6  A    between atoms: N7_19  and  N8_20 
REMARK       I    between atoms: N8_20  and  C6_22 
REMARK    7  A    between atoms: N10_24  and  C7_26 
REMARK    8  A    between atoms: C7_26  and  C8_27 
REMARK    9  A    between atoms: C10_29  and  O4_30 
REMARK   10  A    between atoms: C11_32  and  O5_33 
REMARK   11  A    between atoms: C12_35  and  N11_36 
ROOT
HETATM    1  N8  UNL     1       5.699  -8.090  27.053  1.00  0.00    -0.256 N 
ATOM      2  H8  UNL     1       4.881  -7.838  27.607  1.00  0.00     0.191 HD
HETATM    3  C6  UNL     1       6.994  -7.755  27.534  1.00  0.00     0.204 C 
HETATM    4  N9  UNL     1       8.160  -8.472  27.136  1.00  0.00    -0.062 NA
HETATM    5  N10 UNL     1       7.135  -6.762  28.369  1.00  0.00    -0.358 N 
ATOM      6  H10 UNL     1       6.307  -6.244  28.660  1.00  0.00     0.162 HD
ENDROOT
BRANCH   1   7
HETATM    7  N7  UNL     1       5.529  -8.729  25.886  1.00  0.00    -0.185 N 
HETATM    8  C2  UNL     1       4.780  -9.921  25.848  1.00  0.00     0.149 C 
HETATM    9  C1  UNL     1       3.342  -9.634  25.484  1.00  0.00     0.066 C 
HETATM   10  C3  UNL     1       4.812 -10.616  27.190  1.00  0.00     0.066 C 
HETATM   11  N1  UNL     1       5.337 -10.843  24.874  1.00  0.00    -0.193 N 
HETATM   12  C4  UNL     1       6.139 -10.456  23.939  1.00  0.00     0.734 C 
ATOM     13  H1  UNL     1       5.085 -11.829  24.930  1.00  0.00     0.180 HD
HETATM   14  N5  UNL     1       6.480  -9.078  23.877  1.00  0.00    -0.111 N 
HETATM   15  N6  UNL     1       5.884  -8.140  24.729  1.00  0.00     0.013 NA
ATOM     16  H5  UNL     1       7.174  -8.765  23.197  1.00  0.00     0.203 HD
BRANCH  12  17
HETATM   17  N2  UNL     1       6.702 -11.328  22.970  1.00  0.00     0.045 N 
BRANCH  17  18
HETATM   18  N3  UNL     1       7.538 -12.365  23.406  1.00  0.00     0.016 NA
BRANCH  18  19
HETATM   19  N4  UNL     1       8.498 -11.905  24.318  1.00  0.00    -0.326 N 
ATOM     20  H42 UNL     1       9.103 -11.104  24.139  1.00  0.00     0.174 HD
ATOM     21  H41 UNL     1       8.508 -12.469  25.168  1.00  0.00     0.174 HD
ENDBRANCH  18  19
ENDBRANCH  17  18
BRANCH  17  22
HETATM   22  O1  UNL     1       6.484 -11.225  21.626  1.00  0.00    -0.136 OA
BRANCH  22  23
HETATM   23  C5  UNL     1       7.233 -11.989  20.743  1.00  0.00     0.357 C 
HETATM   24  O2  UNL     1       8.290 -11.477  20.294  1.00  0.00    -0.622 OA
HETATM   25  O3  UNL     1       6.791 -13.260  20.401  1.00  0.00    -0.622 OA
ENDBRANCH  22  23
ENDBRANCH  17  22
ENDBRANCH  12  17
ENDBRANCH   1   7
BRANCH   5  26
HETATM   26  C7  UNL     1       8.414  -6.371  28.893  1.00  0.00     0.179 C 
BRANCH  26  27
HETATM   27  C8  UNL     1       8.543  -4.898  28.745  1.00  0.00     0.031 A 
HETATM   28  C9  UNL     1       9.317  -4.125  29.596  1.00  0.00     0.066 A 
HETATM   29  C10 UNL     1       9.435  -2.763  29.456  1.00  0.00     0.104 A 
HETATM   30  C11 UNL     1       8.762  -2.128  28.433  1.00  0.00     0.149 A 
HETATM   31  C12 UNL     1       7.998  -2.896  27.595  1.00  0.00     0.210 A 
HETATM   32  N12 UNL     1       7.896  -4.228  27.749  1.00  0.00    -0.337 N 
ATOM     33  H12 UNL     1       7.315  -4.755  27.098  1.00  0.00     0.167 HD
BRANCH  29  34
HETATM   34  O4  UNL     1      10.217  -1.989  30.317  1.00  0.00    -0.358 OA
ATOM     35  H4  UNL     1      10.137  -1.043  30.363  1.00  0.00     0.217 HD
ENDBRANCH  29  34
BRANCH  30  36
HETATM   36  O5  UNL     1       8.855  -0.764  28.259  1.00  0.00    -0.355 OA
ATOM     37  H5  UNL     1       8.553  -0.162  28.929  1.00  0.00     0.218 HD
ENDBRANCH  30  36
BRANCH  31  38
HETATM   38  N11 UNL     1       7.296  -2.255  26.533  1.00  0.00    -0.095 N 
HETATM   39  O6  UNL     1       6.070  -2.214  26.440  1.00  0.00    -0.530 OA
HETATM   40  O7  UNL     1       8.059  -1.649  25.564  1.00  0.00    -0.530 OA
ENDBRANCH  31  38
ENDBRANCH  26  27
ENDBRANCH   5  26
TORSDOF 11
ENDMDL
MODEL 4
REMARK VINA RESULT: -7.103049929      2.538      3.080
REMARK  11 active torsions:
REMARK  status: ('A' for Active; 'I' for Inactive)
REMARK    1  A    between atoms: C4_6  and  N2_7 
REMARK    2  A    between atoms: N2_7  and  N3_8 
REMARK    3  A    between atoms: N2_7  and  O1_12 
REMARK    4  A    between atoms: N3_8  and  N4_9 
REMARK    5  A    between atoms: O1_12  and  C5_13 
REMARK    6  A    between atoms: N7_19  and  N8_20 
REMARK       I    between atoms: N8_20  and  C6_22 
REMARK    7  A    between atoms: N10_24  and  C7_26 
REMARK    8  A    between atoms: C7_26  and  C8_27 
REMARK    9  A    between atoms: C10_29  and  O4_30 
REMARK   10  A    between atoms: C11_32  and  O5_33 
REMARK   11  A    between atoms: C12_35  and  N11_36 
ROOT
HETATM    1  N8  UNL     1       5.732  -7.491  28.048  1.00  0.00    -0.256 N 
ATOM      2  H8  UNL     1       5.060  -7.487  28.815  1.00  0.00     0.191 HD
HETATM    3  C6  UNL     1       6.846  -6.609  28.096  1.00  0.00     0.204 C 
HETATM    4  N9  UNL     1       8.055  -6.874  27.390  1.00  0.00    -0.062 NA
HETATM    5  N10 UNL     1       6.773  -5.515  28.804  1.00  0.00    -0.358 N 
ATOM      6  H10 UNL     1       5.912  -5.317  29.313  1.00  0.00     0.162 HD
ENDROOT
BRANCH   1   7
HETATM    7  N7  UNL     1       5.546  -8.329  27.017  1.00  0.00    -0.185 N 
HETATM    8  C2  UNL     1       5.246  -9.681  27.267  1.00  0.00     0.149 C 
HETATM    9  C1  UNL     1       3.751  -9.907  27.249  1.00  0.00     0.066 C 
HETATM   10  C3  UNL     1       5.786 -10.112  28.611  1.00  0.00     0.066 C 
HETATM   11  N1  UNL     1       5.862 -10.534  26.265  1.00  0.00    -0.193 N 
HETATM   12  C4  UNL     1       6.277 -10.075  25.131  1.00  0.00     0.734 C 
ATOM     13  H1  UNL     1       5.970 -11.528  26.463  1.00  0.00     0.180 HD
HETATM   14  N5  UNL     1       6.119  -8.687  24.871  1.00  0.00    -0.111 N 
HETATM   15  N6  UNL     1       5.436  -7.852  25.764  1.00  0.00     0.013 NA
ATOM     16  H5  UNL     1       6.511  -8.291  24.017  1.00  0.00     0.203 HD
BRANCH  12  17
HETATM   17  N2  UNL     1       6.883 -10.877  24.128  1.00  0.00     0.045 N 
BRANCH  17  18
HETATM   18  N3  UNL     1       7.829 -11.834  24.517  1.00  0.00     0.016 NA
BRANCH  18  19
HETATM   19  N4  UNL     1       8.521 -12.353  23.414  1.00  0.00    -0.326 N 
ATOM     20  H42 UNL     1       8.464 -11.953  22.477  1.00  0.00     0.174 HD
ATOM     21  H41 UNL     1       9.079 -13.168  23.670  1.00  0.00     0.174 HD
ENDBRANCH  18  19
ENDBRANCH  17  18
BRANCH  17  22
HETATM   22  O1  UNL     1       6.605 -10.779  22.795  1.00  0.00    -0.136 OA
BRANCH  22  23
HETATM   23  C5  UNL     1       5.690 -11.645  22.213  1.00  0.00     0.357 C 
HETATM   24  O2  UNL     1       6.086 -12.324  21.232  1.00  0.00    -0.622 OA
HETATM   25  O3  UNL     1       4.403 -11.721  22.730  1.00  0.00    -0.622 OA
ENDBRANCH  22  23
ENDBRANCH  17  22
ENDBRANCH  12  17
ENDBRANCH   1   7
BRANCH   5  26
HETATM   26  C7  UNL     1       7.859  -4.581  28.896  1.00  0.00     0.179 C 
BRANCH  26  27
HETATM   27  C8  UNL     1       7.457  -3.493  29.825  1.00  0.00     0.031 A 
HETATM   28  C9  UNL     1       7.647  -2.151  29.534  1.00  0.00     0.066 A 
HETATM   29  C10 UNL     1       7.273  -1.147  30.395  1.00  0.00     0.104 A 
HETATM   30  C11 UNL     1       6.685  -1.474  31.599  1.00  0.00     0.149 A 
HETATM   31  C12 UNL     1       6.501  -2.801  31.883  1.00  0.00     0.210 A 
HETATM   32  N12 UNL     1       6.873  -3.769  31.026  1.00  0.00    -0.337 N 
ATOM     33  H12 UNL     1       6.713  -4.742  31.283  1.00  0.00     0.167 HD
BRANCH  29  34
HETATM   34  O4  UNL     1       7.466   0.203  30.096  1.00  0.00    -0.358 OA
ATOM     35  H4  UNL     1       7.147   0.899  30.659  1.00  0.00     0.217 HD
ENDBRANCH  29  34
BRANCH  30  36
HETATM   36  O5  UNL     1       6.296  -0.497  32.490  1.00  0.00    -0.355 OA
ATOM     37  H5  UNL     1       5.379  -0.288  32.619  1.00  0.00     0.218 HD
ENDBRANCH  30  36
BRANCH  31  38
HETATM   38  N11 UNL     1       5.895  -3.156  33.124  1.00  0.00    -0.095 N 
HETATM   39  O6  UNL     1       4.756  -3.605  33.234  1.00  0.00    -0.530 OA
HETATM   40  O7  UNL     1       6.653  -2.976  34.256  1.00  0.00    -0.530 OA
ENDBRANCH  31  38
ENDBRANCH  26  27
ENDBRANCH   5  26
TORSDOF 11
ENDMDL
MODEL 5
REMARK VINA RESULT: -7.021233142      1.394      1.627
REMARK  11 active torsions:
REMARK  status: ('A' for Active; 'I' for Inactive)
REMARK    1  A    between atoms: C4_6  and  N2_7 
REMARK    2  A    between atoms: N2_7  and  N3_8 
REMARK    3  A    between atoms: N2_7  and  O1_12 
REMARK    4  A    between atoms: N3_8  and  N4_9 
REMARK    5  A    between atoms: O1_12  and  C5_13 
REMARK    6  A    between atoms: N7_19  and  N8_20 
REMARK       I    between atoms: N8_20  and  C6_22 
REMARK    7  A    between atoms: N10_24  and  C7_26 
REMARK    8  A    between atoms: C7_26  and  C8_27 
REMARK    9  A    between atoms: C10_29  and  O4_30 
REMARK   10  A    between atoms: C11_32  and  O5_33 
REMARK   11  A    between atoms: C12_35  and  N11_36 
ROOT
HETATM    1  N8  UNL     1       5.983  -7.238  27.799  1.00  0.00    -0.256 N 
ATOM      2  H8  UNL     1       5.310  -7.063  28.545  1.00  0.00     0.191 HD
HETATM    3  C6  UNL     1       7.062  -6.332  27.609  1.00  0.00     0.204 C 
HETATM    4  N9  UNL     1       8.281  -6.724  26.984  1.00  0.00    -0.062 NA
HETATM    5  N10 UNL     1       6.946  -5.097  28.016  1.00  0.00    -0.358 N 
ATOM      6  H10 UNL     1       6.077  -4.808  28.464  1.00  0.00     0.162 HD
ENDROOT
BRANCH   1   7
HETATM    7  N7  UNL     1       5.830  -8.318  27.018  1.00  0.00    -0.185 N 
HETATM    8  C2  UNL     1       5.915  -9.604  27.585  1.00  0.00     0.149 C 
HETATM    9  C1  UNL     1       4.540 -10.119  27.944  1.00  0.00     0.066 C 
HETATM   10  C3  UNL     1       6.767  -9.584  28.832  1.00  0.00     0.066 C 
HETATM   11  N1  UNL     1       6.536 -10.531  26.656  1.00  0.00    -0.193 N 
HETATM   12  C4  UNL     1       6.625 -10.284  25.391  1.00  0.00     0.734 C 
ATOM     13  H1  UNL     1       6.915 -11.407  27.014  1.00  0.00     0.180 HD
HETATM   14  N5  UNL     1       6.092  -9.058  24.909  1.00  0.00    -0.111 N 
HETATM   15  N6  UNL     1       5.392  -8.186  25.752  1.00  0.00     0.013 NA
ATOM     16  H5  UNL     1       6.222  -8.808  23.929  1.00  0.00     0.203 HD
BRANCH  12  17
HETATM   17  N2  UNL     1       7.224 -11.166  24.454  1.00  0.00     0.045 N 
BRANCH  17  18
HETATM   18  N3  UNL     1       6.556 -11.417  23.248  1.00  0.00     0.016 NA
BRANCH  18  19
HETATM   19  N4  UNL     1       7.402 -11.243  22.144  1.00  0.00    -0.326 N 
ATOM     20  H42 UNL     1       8.415 -11.356  22.190  1.00  0.00     0.174 HD
ATOM     21  H41 UNL     1       6.878 -10.992  21.306  1.00  0.00     0.174 HD
ENDBRANCH  18  19
ENDBRANCH  17  18
BRANCH  17  22
HETATM   22  O1  UNL     1       8.420 -11.795  24.648  1.00  0.00    -0.136 OA
BRANCH  22  23
HETATM   23  C5  UNL     1       8.476 -13.181  24.683  1.00  0.00     0.357 C 
HETATM   24  O2  UNL     1       8.173 -13.742  25.766  1.00  0.00    -0.622 OA
HETATM   25  O3  UNL     1       8.856 -13.874  23.541  1.00  0.00    -0.622 OA
ENDBRANCH  22  23
ENDBRANCH  17  22
ENDBRANCH  12  17
ENDBRANCH   1   7
BRANCH   5  26
HETATM   26  C7  UNL     1       7.996  -4.130  27.855  1.00  0.00     0.179 C 
BRANCH  26  27
HETATM   27  C8  UNL     1       7.385  -2.858  27.388  1.00  0.00     0.031 A 
HETATM   28  C9  UNL     1       8.029  -1.995  26.515  1.00  0.00     0.066 A 
HETATM   29  C10 UNL     1       7.462  -0.820  26.085  1.00  0.00     0.104 A 
HETATM   30  C11 UNL     1       6.204  -0.473  26.531  1.00  0.00     0.149 A 
HETATM   31  C12 UNL     1       5.572  -1.329  27.395  1.00  0.00     0.210 A 
HETATM   32  N12 UNL     1       6.144  -2.475  27.804  1.00  0.00    -0.337 N 
ATOM     33  H12 UNL     1       5.632  -3.078  28.446  1.00  0.00     0.167 HD
BRANCH  29  34
HETATM   34  O4  UNL     1       8.115   0.046  25.204  1.00  0.00    -0.358 OA
ATOM     35  H4  UNL     1       7.994   0.000  24.263  1.00  0.00     0.217 HD
ENDBRANCH  29  34
BRANCH  30  36
HETATM   36  O5  UNL     1       5.601   0.697  26.123  1.00  0.00    -0.355 OA
ATOM     37  H5  UNL     1       4.688   0.872  26.318  1.00  0.00     0.218 HD
ENDBRANCH  30  36
BRANCH  31  38
HETATM   38  N11 UNL     1       4.272  -0.984  27.866  1.00  0.00    -0.095 N 
HETATM   39  O6  UNL     1       4.030  -0.602  29.010  1.00  0.00    -0.530 OA
HETATM   40  O7  UNL     1       3.239  -1.093  26.966  1.00  0.00    -0.530 OA
ENDBRANCH  31  38
ENDBRANCH  26  27
ENDBRANCH   5  26
TORSDOF 11
ENDMDL
