MODEL 1
REMARK VINA RESULT: -8.141265264      0.000      0.000
REMARK  10 active torsions:
REMARK  status: ('A' for Active; 'I' for Inactive)
REMARK    1  A    between atoms: C2_2  and  O1_3 
REMARK    2  A    between atoms: O1_3  and  C3_4 
REMARK    3  A    between atoms: C3_4  and  C4_6 
REMARK    4  A    between atoms: C5_7  and  S1_8 
REMARK    5  A    between atoms: S1_8  and  C6_9 
REMARK    6  A    between atoms: C6_9  and  C7_10 
REMARK       I    between atoms: C7_10  and  N1_12 
REMARK       I    between atoms: N1_12  and  C8_13 
REMARK    7  A    between atoms: C11_24  and  N6_25 
REMARK    8  A    between atoms: C12_30  and  N8_31 
REMARK    9  A    between atoms: C13_36  and  C14_37 
REMARK   10  A    between atoms: C14_37  and  C15_39 
ROOT
HETATM    1  C4  UNL     1      25.398  14.558  10.790  1.00  0.00     0.115 C 
HETATM    2  C5  UNL     1      24.894  15.720  11.144  1.00  0.00     0.094 C 
HETATM    3  N4  UNL     1      24.309  16.035  12.385  1.00  0.00    -0.344 N 
ATOM      4  H4  UNL     1      23.964  16.987  12.507  1.00  0.00     0.167 HD
HETATM    5  C9  UNL     1      24.154  15.142  13.487  1.00  0.00     0.115 A 
HETATM    6  C10 UNL     1      24.603  13.826  13.415  1.00  0.00     0.122 A 
HETATM    7  N5  UNL     1      24.415  12.979  14.402  1.00  0.00    -0.183 N 
ATOM      8  H5  UNL     1      24.764  12.026  14.302  1.00  0.00     0.185 HD
HETATM    9  C11 UNL     1      23.795  13.310  15.513  1.00  0.00     0.678 A 
HETATM   10  N7  UNL     1      23.347  14.579  15.609  1.00  0.00    -0.173 N 
ATOM     11  H7  UNL     1      22.861  14.852  16.464  1.00  0.00     0.186 HD
HETATM   12  C12 UNL     1      23.502  15.522  14.630  1.00  0.00     0.175 A 
HETATM   13  S2  UNL     1      25.467  13.247  11.978  1.00  0.00    -0.061 SA
ENDROOT
BRANCH  12  14
HETATM   14  N8  UNL     1      22.979  16.842  14.839  1.00  0.00    -0.206 N 
HETATM   15  N9  UNL     1      23.480  18.005  14.482  1.00  0.00    -0.232 N 
HETATM   16  N10 UNL     1      22.744  19.026  14.806  1.00  0.00    -0.279 N 
ATOM     17  H9  UNL     1      24.370  18.097  13.993  1.00  0.00     0.209 HD
HETATM   18  C13 UNL     1      21.657  18.554  15.426  1.00  0.00     0.138 A 
ATOM     19  H10 UNL     1      22.956  20.006  14.621  1.00  0.00     0.189 HD
HETATM   20  C17 UNL     1      21.811  17.165  15.445  1.00  0.00     0.173 A 
HETATM   21  N11 UNL     1      20.873  16.310  16.019  1.00  0.00    -0.078 NA
BRANCH  18  22
HETATM   22  C14 UNL     1      20.510  19.311  15.926  1.00  0.00     0.180 C 
HETATM   23  O4  UNL     1      19.501  19.451  15.253  1.00  0.00    -0.291 OA
BRANCH  22  24
HETATM   24  C15 UNL     1      20.566  19.921  17.291  1.00  0.00     0.081 C 
HETATM   25  C16 UNL     1      20.919  21.370  17.267  1.00  0.00     0.013 C 
ENDBRANCH  22  24
ENDBRANCH  18  22
ENDBRANCH  12  14
BRANCH   9  26
HETATM   26  N6  UNL     1      23.587  12.506  16.494  1.00  0.00    -0.234 N 
ATOM     27  H62 UNL     1      24.140  11.651  16.553  1.00  0.00     0.174 HD
ATOM     28  H61 UNL     1      22.903  12.666  17.234  1.00  0.00     0.174 HD
ENDBRANCH   9  26
BRANCH   2  29
HETATM   29  S1  UNL     1      24.898  16.961   9.826  1.00  0.00    -0.100 SA
BRANCH  29  30
HETATM   30  C6  UNL     1      25.156  18.587  10.566  1.00  0.00     0.200 C 
BRANCH  30  31
HETATM   31  C7  UNL     1      26.653  18.666  10.943  1.00  0.00     0.304 C 
HETATM   32  O3  UNL     1      26.989  17.694  11.675  1.00  0.00    -0.256 OA
HETATM   33  N1  UNL     1      27.383  19.700  10.477  1.00  0.00    -0.337 NA
HETATM   34  C8  UNL     1      28.143  20.748  10.011  1.00  0.00     0.264 C 
HETATM   35  N2  UNL     1      27.585  21.623   9.312  1.00  0.00    -0.362 N 
HETATM   36  N3  UNL     1      29.544  20.982  10.282  1.00  0.00    -0.049 NA
ATOM     37  H22 UNL     1      26.596  21.458   9.120  1.00  0.00     0.159 HD
ATOM     38  H21 UNL     1      28.148  22.400   8.966  1.00  0.00     0.159 HD
ENDBRANCH  30  31
ENDBRANCH  29  30
ENDBRANCH   2  29
BRANCH   1  39
HETATM   39  C3  UNL     1      25.909  14.318   9.448  1.00  0.00     0.303 C 
HETATM   40  O2  UNL     1      25.163  13.778   8.564  1.00  0.00    -0.259 OA
BRANCH  39  41
HETATM   41  O1  UNL     1      27.183  14.652   9.121  1.00  0.00    -0.317 OA
BRANCH  41  42
HETATM   42  C2  UNL     1      28.345  13.959   9.455  1.00  0.00     0.174 C 
HETATM   43  C1  UNL     1      28.621  12.837   8.500  1.00  0.00     0.034 C 
ENDBRANCH  41  42
ENDBRANCH  39  41
ENDBRANCH   1  39
TORSDOF 10
ENDMDL
MODEL 2
REMARK VINA RESULT: -7.932447146      4.113      9.798
REMARK  10 active torsions:
REMARK  status: ('A' for Active; 'I' for Inactive)
REMARK    1  A    between atoms: C2_2  and  O1_3 
REMARK    2  A    between atoms: O1_3  and  C3_4 
REMARK    3  A    between atoms: C3_4  and  C4_6 
REMARK    4  A    between atoms: C5_7  and  S1_8 
REMARK    5  A    between atoms: S1_8  and  C6_9 
REMARK    6  A    between atoms: C6_9  and  C7_10 
REMARK       I    between atoms: C7_10  and  N1_12 
REMARK       I    between atoms: N1_12  and  C8_13 
REMARK    7  A    between atoms: C11_24  and  N6_25 
REMARK    8  A    between atoms: C12_30  and  N8_31 
REMARK    9  A    between atoms: C13_36  and  C14_37 
REMARK   10  A    between atoms: C14_37  and  C15_39 
ROOT
HETATM    1  C4  UNL     1      23.349  21.292  11.928  1.00  0.00     0.115 C 
HETATM    2  C5  UNL     1      24.500  20.728  11.632  1.00  0.00     0.094 C 
HETATM    3  N4  UNL     1      25.658  21.381  11.170  1.00  0.00    -0.344 N 
ATOM      4  H4  UNL     1      26.476  20.801  10.987  1.00  0.00     0.167 HD
HETATM    5  C9  UNL     1      25.790  22.782  10.934  1.00  0.00     0.115 A 
HETATM    6  C10 UNL     1      24.727  23.653  11.166  1.00  0.00     0.122 A 
HETATM    7  N5  UNL     1      24.819  24.936  10.898  1.00  0.00    -0.183 N 
ATOM      8  H5  UNL     1      24.014  25.534  11.087  1.00  0.00     0.185 HD
HETATM    9  C11 UNL     1      25.906  25.482  10.398  1.00  0.00     0.678 A 
HETATM   10  N7  UNL     1      26.949  24.660  10.161  1.00  0.00    -0.173 N 
ATOM     11  H7  UNL     1      27.800  25.067   9.771  1.00  0.00     0.186 HD
HETATM   12  C12 UNL     1      26.938  23.316  10.412  1.00  0.00     0.175 A 
HETATM   13  S2  UNL     1      23.205  23.054  11.851  1.00  0.00    -0.061 SA
ENDROOT
BRANCH  12  14
HETATM   14  N8  UNL     1      28.107  22.537  10.116  1.00  0.00    -0.206 N 
HETATM   15  N9  UNL     1      28.835  21.788  10.915  1.00  0.00    -0.232 N 
HETATM   16  N10 UNL     1      29.828  21.189  10.327  1.00  0.00    -0.279 N 
ATOM     17  H9  UNL     1      28.638  21.686  11.910  1.00  0.00     0.209 HD
HETATM   18  C13 UNL     1      29.795  21.534   9.035  1.00  0.00     0.138 A 
ATOM     19  H10 UNL     1      30.507  20.570  10.769  1.00  0.00     0.189 HD
HETATM   20  C17 UNL     1      28.699  22.392   8.906  1.00  0.00     0.173 A 
HETATM   21  N11 UNL     1      28.336  22.973   7.693  1.00  0.00    -0.078 NA
BRANCH  18  22
HETATM   22  C14 UNL     1      30.672  21.071   7.961  1.00  0.00     0.180 C 
HETATM   23  O4  UNL     1      30.567  19.946   7.498  1.00  0.00    -0.291 OA
BRANCH  22  24
HETATM   24  C15 UNL     1      31.713  21.993   7.409  1.00  0.00     0.081 C 
HETATM   25  C16 UNL     1      33.104  21.560   7.730  1.00  0.00     0.013 C 
ENDBRANCH  22  24
ENDBRANCH  18  22
ENDBRANCH  12  14
BRANCH   9  26
HETATM   26  N6  UNL     1      26.027  26.731  10.117  1.00  0.00    -0.234 N 
ATOM     27  H62 UNL     1      25.330  27.168   9.515  1.00  0.00     0.174 HD
ATOM     28  H61 UNL     1      26.777  27.328  10.465  1.00  0.00     0.174 HD
ENDBRANCH   9  26
BRANCH   2  29
HETATM   29  S1  UNL     1      24.494  18.922  11.763  1.00  0.00    -0.100 SA
BRANCH  29  30
HETATM   30  C6  UNL     1      25.103  18.230  10.211  1.00  0.00     0.200 C 
BRANCH  30  31
HETATM   31  C7  UNL     1      26.591  17.878  10.441  1.00  0.00     0.304 C 
HETATM   32  O3  UNL     1      27.294  18.921  10.548  1.00  0.00    -0.256 OA
HETATM   33  N1  UNL     1      26.946  16.578  10.496  1.00  0.00    -0.337 NA
HETATM   34  C8  UNL     1      27.327  15.256  10.555  1.00  0.00     0.264 C 
HETATM   35  N2  UNL     1      26.451  14.377  10.393  1.00  0.00    -0.362 N 
HETATM   36  N3  UNL     1      28.670  14.756  10.744  1.00  0.00    -0.049 NA
ATOM     37  H22 UNL     1      25.503  14.731  10.260  1.00  0.00     0.159 HD
ATOM     38  H21 UNL     1      26.733  13.398  10.437  1.00  0.00     0.159 HD
ENDBRANCH  30  31
ENDBRANCH  29  30
ENDBRANCH   2  29
BRANCH   1  39
HETATM   39  C3  UNL     1      22.187  20.508  12.322  1.00  0.00     0.303 C 
HETATM   40  O2  UNL     1      21.340  20.129  11.446  1.00  0.00    -0.259 OA
BRANCH  39  41
HETATM   41  O1  UNL     1      21.982  20.180  13.623  1.00  0.00    -0.317 OA
BRANCH  41  42
HETATM   42  C2  UNL     1      21.455  20.996  14.622  1.00  0.00     0.174 C 
HETATM   43  C1  UNL     1      22.504  21.433  15.599  1.00  0.00     0.034 C 
ENDBRANCH  41  42
ENDBRANCH  39  41
ENDBRANCH   1  39
TORSDOF 10
ENDMDL
MODEL 3
REMARK VINA RESULT: -7.921101724      1.412      1.828
REMARK  10 active torsions:
REMARK  status: ('A' for Active; 'I' for Inactive)
REMARK    1  A    between atoms: C2_2  and  O1_3 
REMARK    2  A    between atoms: O1_3  and  C3_4 
REMARK    3  A    between atoms: C3_4  and  C4_6 
REMARK    4  A    between atoms: C5_7  and  S1_8 
REMARK    5  A    between atoms: S1_8  and  C6_9 
REMARK    6  A    between atoms: C6_9  and  C7_10 
REMARK       I    between atoms: C7_10  and  N1_12 
REMARK       I    between atoms: N1_12  and  C8_13 
REMARK    7  A    between atoms: C11_24  and  N6_25 
REMARK    8  A    between atoms: C12_30  and  N8_31 
REMARK    9  A    between atoms: C13_36  and  C14_37 
REMARK   10  A    between atoms: C14_37  and  C15_39 
ROOT
HETATM    1  C4  UNL     1      25.340  14.674  10.925  1.00  0.00     0.115 C 
HETATM    2  C5  UNL     1      24.797  15.817  11.282  1.00  0.00     0.094 C 
HETATM    3  N4  UNL     1      24.200  16.108  12.523  1.00  0.00    -0.344 N 
ATOM      4  H4  UNL     1      23.825  17.048  12.649  1.00  0.00     0.167 HD
HETATM    5  C9  UNL     1      24.073  15.206  13.622  1.00  0.00     0.115 A 
HETATM    6  C10 UNL     1      24.565  13.905  13.545  1.00  0.00     0.122 A 
HETATM    7  N5  UNL     1      24.403  13.049  14.528  1.00  0.00    -0.183 N 
ATOM      8  H5  UNL     1      24.783  12.108  14.425  1.00  0.00     0.185 HD
HETATM    9  C11 UNL     1      23.771  13.355  15.640  1.00  0.00     0.678 A 
HETATM   10  N7  UNL     1      23.282  14.608  15.740  1.00  0.00    -0.173 N 
ATOM     11  H7  UNL     1      22.786  14.862  16.595  1.00  0.00     0.186 HD
HETATM   12  C12 UNL     1      23.408  15.560  14.766  1.00  0.00     0.175 A 
HETATM   13  S2  UNL     1      25.449  13.361  12.107  1.00  0.00    -0.061 SA
ENDROOT
BRANCH  12  14
HETATM   14  N8  UNL     1      22.842  16.862  14.979  1.00  0.00    -0.206 N 
HETATM   15  N9  UNL     1      23.360  18.047  14.741  1.00  0.00    -0.232 N 
HETATM   16  N10 UNL     1      22.574  19.041  15.028  1.00  0.00    -0.279 N 
ATOM     17  H9  UNL     1      24.299  18.174  14.363  1.00  0.00     0.209 HD
HETATM   18  C13 UNL     1      21.432  18.525  15.494  1.00  0.00     0.138 A 
ATOM     19  H10 UNL     1      22.789  20.032  14.918  1.00  0.00     0.189 HD
HETATM   20  C17 UNL     1      21.606  17.139  15.462  1.00  0.00     0.173 A 
HETATM   21  N11 UNL     1      20.623  16.246  15.880  1.00  0.00    -0.078 NA
BRANCH  18  22
HETATM   22  C14 UNL     1      20.222  19.243  15.896  1.00  0.00     0.180 C 
HETATM   23  O4  UNL     1      19.458  19.710  15.066  1.00  0.00    -0.291 OA
BRANCH  22  24
HETATM   24  C15 UNL     1      19.907  19.402  17.350  1.00  0.00     0.081 C 
HETATM   25  C16 UNL     1      20.719  20.466  18.009  1.00  0.00     0.013 C 
ENDBRANCH  22  24
ENDBRANCH  18  22
ENDBRANCH  12  14
BRANCH   9  26
HETATM   26  N6  UNL     1      23.588  12.540  16.618  1.00  0.00    -0.234 N 
ATOM     27  H62 UNL     1      23.939  11.587  16.533  1.00  0.00     0.174 HD
ATOM     28  H61 UNL     1      23.115  12.784  17.488  1.00  0.00     0.174 HD
ENDBRANCH   9  26
BRANCH   2  29
HETATM   29  S1  UNL     1      24.763  17.063   9.969  1.00  0.00    -0.100 SA
BRANCH  29  30
HETATM   30  C6  UNL     1      26.217  18.119  10.139  1.00  0.00     0.200 C 
BRANCH  30  31
HETATM   31  C7  UNL     1      26.018  18.934  11.437  1.00  0.00     0.304 C 
HETATM   32  O3  UNL     1      27.045  18.881  12.170  1.00  0.00    -0.256 OA
HETATM   33  N1  UNL     1      24.843  19.568  11.628  1.00  0.00    -0.337 NA
HETATM   34  C8  UNL     1      23.650  20.221  11.840  1.00  0.00     0.264 C 
HETATM   35  N2  UNL     1      22.750  20.111  10.977  1.00  0.00    -0.362 N 
HETATM   36  N3  UNL     1      23.293  21.006  13.001  1.00  0.00    -0.049 NA
ATOM     37  H22 UNL     1      23.002  19.557  10.158  1.00  0.00     0.159 HD
ATOM     38  H21 UNL     1      21.866  20.595  11.134  1.00  0.00     0.159 HD
ENDBRANCH  30  31
ENDBRANCH  29  30
ENDBRANCH   2  29
BRANCH   1  39
HETATM   39  C3  UNL     1      25.860  14.456   9.582  1.00  0.00     0.303 C 
HETATM   40  O2  UNL     1      25.110  13.961   8.676  1.00  0.00    -0.259 OA
BRANCH  39  41
HETATM   41  O1  UNL     1      27.147  14.763   9.279  1.00  0.00    -0.317 OA
BRANCH  41  42
HETATM   42  C2  UNL     1      28.269  13.960   9.471  1.00  0.00     0.174 C 
HETATM   43  C1  UNL     1      28.457  12.985   8.347  1.00  0.00     0.034 C 
ENDBRANCH  41  42
ENDBRANCH  39  41
ENDBRANCH   1  39
TORSDOF 10
ENDMDL
MODEL 4
REMARK VINA RESULT: -7.917436568      3.208      6.316
REMARK  10 active torsions:
REMARK  status: ('A' for Active; 'I' for Inactive)
REMARK    1  A    between atoms: C2_2  and  O1_3 
REMARK    2  A    between atoms: O1_3  and  C3_4 
REMARK    3  A    between atoms: C3_4  and  C4_6 
REMARK    4  A    between atoms: C5_7  and  S1_8 
REMARK    5  A    between atoms: S1_8  and  C6_9 
REMARK    6  A    between atoms: C6_9  and  C7_10 
REMARK       I    between atoms: C7_10  and  N1_12 
REMARK       I    between atoms: N1_12  and  C8_13 
REMARK    7  A    between atoms: C11_24  and  N6_25 
REMARK    8  A    between atoms: C12_30  and  N8_31 
REMARK    9  A    between atoms: C13_36  and  C14_37 
REMARK   10  A    between atoms: C14_37  and  C15_39 
ROOT
HETATM    1  C4  UNL     1      24.125  21.982  11.200  1.00  0.00     0.115 C 
HETATM    2  C5  UNL     1      24.066  20.700  11.485  1.00  0.00     0.094 C 
HETATM    3  N4  UNL     1      23.486  20.124  12.631  1.00  0.00    -0.344 N 
ATOM      4  H4  UNL     1      23.517  19.107  12.706  1.00  0.00     0.167 HD
HETATM    5  C9  UNL     1      22.857  20.834  13.697  1.00  0.00     0.115 A 
HETATM    6  C10 UNL     1      22.759  22.224  13.675  1.00  0.00     0.122 A 
HETATM    7  N5  UNL     1      22.234  22.891  14.678  1.00  0.00    -0.183 N 
ATOM      8  H5  UNL     1      22.183  23.909  14.614  1.00  0.00     0.185 HD
HETATM    9  C11 UNL     1      21.772  22.303  15.760  1.00  0.00     0.678 A 
HETATM   10  N7  UNL     1      21.857  20.958  15.808  1.00  0.00    -0.173 N 
ATOM     11  H7  UNL     1      21.505  20.485  16.640  1.00  0.00     0.186 HD
HETATM   12  C12 UNL     1      22.387  20.188  14.809  1.00  0.00     0.175 A 
HETATM   13  S2  UNL     1      23.332  23.145  12.273  1.00  0.00    -0.061 SA
ENDROOT
BRANCH  12  14
HETATM   14  N8  UNL     1      22.431  18.762  14.971  1.00  0.00    -0.206 N 
HETATM   15  N9  UNL     1      23.258  17.887  14.442  1.00  0.00    -0.232 N 
HETATM   16  N10 UNL     1      23.041  16.659  14.809  1.00  0.00    -0.279 N 
ATOM     17  H9  UNL     1      24.004  18.149  13.799  1.00  0.00     0.209 HD
HETATM   18  C13 UNL     1      22.001  16.670  15.649  1.00  0.00     0.138 A 
ATOM     19  H10 UNL     1      23.568  15.838  14.511  1.00  0.00     0.189 HD
HETATM   20  C17 UNL     1      21.616  18.009  15.749  1.00  0.00     0.173 A 
HETATM   21  N11 UNL     1      20.549  18.430  16.540  1.00  0.00    -0.078 NA
BRANCH  18  22
HETATM   22  C14 UNL     1      21.418  15.539  16.370  1.00  0.00     0.180 C 
HETATM   23  O4  UNL     1      20.418  14.972  15.958  1.00  0.00    -0.291 OA
BRANCH  22  24
HETATM   24  C15 UNL     1      22.061  15.057  17.632  1.00  0.00     0.081 C 
HETATM   25  C16 UNL     1      23.398  14.434  17.404  1.00  0.00     0.013 C 
ENDBRANCH  22  24
ENDBRANCH  18  22
ENDBRANCH  12  14
BRANCH   9  26
HETATM   26  N6  UNL     1      21.260  22.926  16.761  1.00  0.00    -0.234 N 
ATOM     27  H62 UNL     1      21.576  23.875  16.961  1.00  0.00     0.174 HD
ATOM     28  H61 UNL     1      20.544  22.537  17.374  1.00  0.00     0.174 HD
ENDBRANCH   9  26
BRANCH   2  29
HETATM   29  S1  UNL     1      24.917  19.636  10.293  1.00  0.00    -0.100 SA
BRANCH  29  30
HETATM   30  C6  UNL     1      24.897  17.941  10.915  1.00  0.00     0.200 C 
BRANCH  30  31
HETATM   31  C7  UNL     1      26.368  17.560  11.198  1.00  0.00     0.304 C 
HETATM   32  O3  UNL     1      26.958  18.471  11.842  1.00  0.00    -0.256 OA
HETATM   33  N1  UNL     1      26.824  16.372  10.752  1.00  0.00    -0.337 NA
HETATM   34  C8  UNL     1      27.307  15.163  10.304  1.00  0.00     0.264 C 
HETATM   35  N2  UNL     1      26.539  14.419   9.654  1.00  0.00    -0.362 N 
HETATM   36  N3  UNL     1      28.654  14.662  10.465  1.00  0.00    -0.049 NA
ATOM     37  H22 UNL     1      25.588  14.773   9.541  1.00  0.00     0.159 HD
ATOM     38  H21 UNL     1      26.897  13.523   9.322  1.00  0.00     0.159 HD
ENDBRANCH  30  31
ENDBRANCH  29  30
ENDBRANCH   2  29
BRANCH   1  39
HETATM   39  C3  UNL     1      24.823  22.476  10.020  1.00  0.00     0.303 C 
HETATM   40  O2  UNL     1      24.169  22.770   8.964  1.00  0.00    -0.259 OA
BRANCH  39  41
HETATM   41  O1  UNL     1      26.172  22.619  10.022  1.00  0.00    -0.317 OA
BRANCH  41  42
HETATM   42  C2  UNL     1      26.973  23.015  11.092  1.00  0.00     0.174 C 
HETATM   43  C1  UNL     1      27.922  21.933  11.510  1.00  0.00     0.034 C 
ENDBRANCH  41  42
ENDBRANCH  39  41
ENDBRANCH   1  39
TORSDOF 10
ENDMDL
MODEL 5
REMARK VINA RESULT: -7.910465369      7.509     10.455
REMARK  10 active torsions:
REMARK  status: ('A' for Active; 'I' for Inactive)
REMARK    1  A    between atoms: C2_2  and  O1_3 
REMARK    2  A    between atoms: O1_3  and  C3_4 
REMARK    3  A    between atoms: C3_4  and  C4_6 
REMARK    4  A    between atoms: C5_7  and  S1_8 
REMARK    5  A    between atoms: S1_8  and  C6_9 
REMARK    6  A    between atoms: C6_9  and  C7_10 
REMARK       I    between atoms: C7_10  and  N1_12 
REMARK       I    between atoms: N1_12  and  C8_13 
REMARK    7  A    between atoms: C11_24  and  N6_25 
REMARK    8  A    between atoms: C12_30  and  N8_31 
REMARK    9  A    between atoms: C13_36  and  C14_37 
REMARK   10  A    between atoms: C14_37  and  C15_39 
ROOT
HETATM    1  C4  UNL     1      31.166  23.265   9.946  1.00  0.00     0.115 C 
HETATM    2  C5  UNL     1      30.487  24.327   9.572  1.00  0.00     0.094 C 
HETATM    3  N4  UNL     1      29.095  24.508   9.673  1.00  0.00    -0.344 N 
ATOM      4  H4  UNL     1      28.717  25.394   9.340  1.00  0.00     0.167 HD
HETATM    5  C9  UNL     1      28.164  23.563  10.200  1.00  0.00     0.115 A 
HETATM    6  C10 UNL     1      28.591  22.329  10.687  1.00  0.00     0.122 A 
HETATM    7  N5  UNL     1      27.738  21.429  11.121  1.00  0.00    -0.183 N 
ATOM      8  H5  UNL     1      28.100  20.541  11.470  1.00  0.00     0.185 HD
HETATM    9  C11 UNL     1      26.438  21.625  11.125  1.00  0.00     0.678 A 
HETATM   10  N7  UNL     1      25.997  22.811  10.656  1.00  0.00    -0.173 N 
ATOM     11  H7  UNL     1      24.991  22.979  10.650  1.00  0.00     0.186 HD
HETATM   12  C12 UNL     1      26.816  23.802  10.188  1.00  0.00     0.175 A 
HETATM   13  S2  UNL     1      30.319  21.935  10.752  1.00  0.00    -0.061 SA
ENDROOT
BRANCH  12  14
HETATM   14  N8  UNL     1      26.235  25.023   9.707  1.00  0.00    -0.206 N 
HETATM   15  N9  UNL     1      26.256  26.225  10.242  1.00  0.00    -0.232 N 
HETATM   16  N10 UNL     1      25.647  27.133   9.540  1.00  0.00    -0.279 N 
ATOM     17  H9  UNL     1      26.711  26.426  11.132  1.00  0.00     0.209 HD
HETATM   18  C13 UNL     1      25.171  26.536   8.442  1.00  0.00     0.138 A 
ATOM     19  H10 UNL     1      25.550  28.119   9.781  1.00  0.00     0.189 HD
HETATM   20  C17 UNL     1      25.547  25.194   8.553  1.00  0.00     0.173 A 
HETATM   21  N11 UNL     1      25.225  24.239   7.592  1.00  0.00    -0.078 NA
BRANCH  18  22
HETATM   22  C14 UNL     1      24.462  27.153   7.322  1.00  0.00     0.180 C 
HETATM   23  O4  UNL     1      23.288  27.476   7.416  1.00  0.00    -0.291 OA
BRANCH  22  24
HETATM   24  C15 UNL     1      25.186  27.402   6.037  1.00  0.00     0.081 C 
HETATM   25  C16 UNL     1      26.663  27.513   6.212  1.00  0.00     0.013 C 
ENDBRANCH  22  24
ENDBRANCH  18  22
ENDBRANCH  12  14
BRANCH   9  26
HETATM   26  N6  UNL     1      25.576  20.764  11.535  1.00  0.00    -0.234 N 
ATOM     27  H62 UNL     1      25.814  20.173  12.331  1.00  0.00     0.174 HD
ATOM     28  H61 UNL     1      24.653  20.632  11.120  1.00  0.00     0.174 HD
ENDBRANCH   9  26
BRANCH   2  29
HETATM   29  S1  UNL     1      31.491  25.602   8.769  1.00  0.00    -0.100 SA
BRANCH  29  30
HETATM   30  C6  UNL     1      30.483  26.424   7.516  1.00  0.00     0.200 C 
BRANCH  30  31
HETATM   31  C7  UNL     1      31.005  25.936   6.145  1.00  0.00     0.304 C 
HETATM   32  O3  UNL     1      31.358  26.908   5.421  1.00  0.00    -0.256 OA
HETATM   33  N1  UNL     1      31.021  24.611   5.894  1.00  0.00    -0.337 NA
HETATM   34  C8  UNL     1      31.044  23.262   5.621  1.00  0.00     0.264 C 
HETATM   35  N2  UNL     1      30.614  22.472   6.491  1.00  0.00    -0.362 N 
HETATM   36  N3  UNL     1      31.480  22.641   4.390  1.00  0.00    -0.049 NA
ATOM     37  H22 UNL     1      30.306  22.910   7.360  1.00  0.00     0.159 HD
ATOM     38  H21 UNL     1      30.631  21.472   6.288  1.00  0.00     0.159 HD
ENDBRANCH  30  31
ENDBRANCH  29  30
ENDBRANCH   2  29
BRANCH   1  39
HETATM   39  C3  UNL     1      32.600  23.150   9.721  1.00  0.00     0.303 C 
HETATM   40  O2  UNL     1      33.042  22.559   8.680  1.00  0.00    -0.259 OA
BRANCH  39  41
HETATM   41  O1  UNL     1      33.485  23.658  10.616  1.00  0.00    -0.317 OA
BRANCH  41  42
HETATM   42  C2  UNL     1      33.745  23.184  11.901  1.00  0.00     0.174 C 
HETATM   43  C1  UNL     1      33.568  21.698  11.995  1.00  0.00     0.034 C 
ENDBRANCH  41  42
ENDBRANCH  39  41
ENDBRANCH   1  39
TORSDOF 10
ENDMDL
