MODEL 1
REMARK VINA RESULT: -6.637792518      0.000      0.000
REMARK  17 active torsions:
REMARK  status: ('A' for Active; 'I' for Inactive)
REMARK    1  A    between atoms: C3_3  and  C5_5 
REMARK    2  A    between atoms: C6_6  and  C7_7 
REMARK    3  A    between atoms: C7_7  and  O1_8 
REMARK    4  A    between atoms: C8_10  and  O2_11 
REMARK    5  A    between atoms: C9_13  and  O3_14 
REMARK    6  A    between atoms: C10_16  and  O4_17 
REMARK    7  A    between atoms: C11_19  and  O5_20 
REMARK    8  A    between atoms: O5_20  and  C12_21 
REMARK    9  A    between atoms: C13_22  and  O6_23 
REMARK   10  A    between atoms: O6_23  and  C14_24 
REMARK   11  A    between atoms: C14_24  and  C15_25 
REMARK   12  A    between atoms: C15_25  and  C16_26 
REMARK   13  A    between atoms: C16_26  and  C17_27 
REMARK   14  A    between atoms: C17_27  and  C18_28 
REMARK   15  A    between atoms: C21_31  and  N1_32 
REMARK   16  A    between atoms: C22_36  and  O7_37 
REMARK   17  A    between atoms: C23_39  and  O8_40 
ROOT
HETATM    1  C12 UNL     1      -9.325  75.524 118.413  1.00  0.00     0.182 C 
HETATM    2  C13 UNL     1      -9.814  76.826 117.829  1.00  0.00     0.155 C 
HETATM    3  C20 UNL     1     -10.834  77.417 118.776  1.00  0.00     0.070 C 
HETATM    4  C21 UNL     1     -10.050  77.890 119.990  1.00  0.00     0.217 C 
HETATM    5  C22 UNL     1      -9.450  76.666 120.640  1.00  0.00     0.179 C 
HETATM    6  C23 UNL     1      -8.597  75.872 119.698  1.00  0.00     0.180 C 
ENDROOT
BRANCH   1   7
HETATM    7  O5  UNL     1     -10.293  74.568 118.596  1.00  0.00    -0.372 OA
BRANCH   7   8
HETATM    8  C11 UNL     1      -9.839  73.294 118.329  1.00  0.00     0.162 C 
HETATM    9  C5  UNL     1     -10.688  72.456 117.459  1.00  0.00     0.054 C 
HETATM   10  C6  UNL     1     -10.160  71.037 117.432  1.00  0.00     0.051 C 
HETATM   11  C8  UNL     1      -8.843  70.865 118.111  1.00  0.00     0.156 C 
HETATM   12  C9  UNL     1      -8.900  71.300 119.569  1.00  0.00     0.178 C 
HETATM   13  C10 UNL     1      -9.392  72.702 119.643  1.00  0.00     0.179 C 
BRANCH   9  14
HETATM   14  C3  UNL     1     -12.148  72.498 117.702  1.00  0.00    -0.081 C 
HETATM   15  C2  UNL     1     -12.983  73.098 116.874  1.00  0.00    -0.028 C 
HETATM   16  C1  UNL     1     -12.677  73.810 115.634  1.00  0.00     0.036 C 
HETATM   17  C4  UNL     1     -12.792  71.858 118.887  1.00  0.00     0.043 C 
ENDBRANCH   9  14
BRANCH  10  18
HETATM   18  C7  UNL     1     -10.011  70.500 116.021  1.00  0.00     0.172 C 
BRANCH  18  19
HETATM   19  O1  UNL     1      -8.761  70.728 115.500  1.00  0.00    -0.400 OA
ATOM     20  H1  UNL     1      -8.579  70.189 114.739  1.00  0.00     0.209 HD
ENDBRANCH  18  19
ENDBRANCH  10  18
BRANCH  11  21
HETATM   21  O2  UNL     1      -8.537  69.511 118.127  1.00  0.00    -0.392 OA
ATOM     22  H2  UNL     1      -7.592  69.420 118.158  1.00  0.00     0.210 HD
ENDBRANCH  11  21
BRANCH  12  23
HETATM   23  O3  UNL     1      -9.623  70.379 120.304  1.00  0.00    -0.390 OA
ATOM     24  H3  UNL     1      -9.827  70.739 121.159  1.00  0.00     0.210 HD
ENDBRANCH  12  23
BRANCH  13  25
HETATM   25  O4  UNL     1     -10.267  72.957 120.699  1.00  0.00    -0.390 OA
ATOM     26  H4  UNL     1     -10.832  73.710 120.572  1.00  0.00     0.210 HD
ENDBRANCH  13  25
ENDBRANCH   7   8
ENDBRANCH   1   7
BRANCH   2  27
HETATM   27  O6  UNL     1     -10.203  76.765 116.522  1.00  0.00    -0.383 OA
BRANCH  27  28
HETATM   28  C14 UNL     1     -11.464  77.315 116.373  1.00  0.00     0.168 C 
BRANCH  28  29
HETATM   29  C15 UNL     1     -11.582  77.968 114.998  1.00  0.00     0.026 C 
BRANCH  29  30
HETATM   30  C16 UNL     1     -10.894  77.053 114.014  1.00  0.00     0.002 C 
BRANCH  30  31
HETATM   31  C17 UNL     1     -11.893  76.324 113.143  1.00  0.00    -0.000 C 
BRANCH  31  32
HETATM   32  C18 UNL     1     -11.240  75.769 111.903  1.00  0.00    -0.005 C 
HETATM   33  C19 UNL     1     -11.849  74.477 111.460  1.00  0.00     0.005 C 
ENDBRANCH  31  32
ENDBRANCH  30  31
ENDBRANCH  29  30
ENDBRANCH  28  29
ENDBRANCH  27  28
ENDBRANCH   2  27
BRANCH   6  34
HETATM   34  O8  UNL     1      -7.512  76.676 119.336  1.00  0.00    -0.390 OA
ATOM     35  H8  UNL     1      -6.778  76.395 119.869  1.00  0.00     0.210 HD
ENDBRANCH   6  34
BRANCH   5  36
HETATM   36  O7  UNL     1     -10.426  75.938 121.283  1.00  0.00    -0.391 OA
ATOM     37  H7  UNL     1     -10.035  75.352 121.920  1.00  0.00     0.210 HD
ENDBRANCH   5  36
BRANCH   4  38
HETATM   38  N1  UNL     1     -10.922  78.542 120.953  1.00  0.00    -0.072 N 
ATOM     39  H13 UNL     1     -10.451  78.691 121.846  1.00  0.00     0.274 HD
ATOM     40  H12 UNL     1     -11.093  79.517 120.704  1.00  0.00     0.274 HD
ATOM     41  H11 UNL     1     -11.793  78.025 121.068  1.00  0.00     0.274 HD
ENDBRANCH   4  38
TORSDOF 17
ENDMDL
MODEL 2
REMARK VINA RESULT: -6.556932132      1.088      1.822
REMARK  17 active torsions:
REMARK  status: ('A' for Active; 'I' for Inactive)
REMARK    1  A    between atoms: C3_3  and  C5_5 
REMARK    2  A    between atoms: C6_6  and  C7_7 
REMARK    3  A    between atoms: C7_7  and  O1_8 
REMARK    4  A    between atoms: C8_10  and  O2_11 
REMARK    5  A    between atoms: C9_13  and  O3_14 
REMARK    6  A    between atoms: C10_16  and  O4_17 
REMARK    7  A    between atoms: C11_19  and  O5_20 
REMARK    8  A    between atoms: O5_20  and  C12_21 
REMARK    9  A    between atoms: C13_22  and  O6_23 
REMARK   10  A    between atoms: O6_23  and  C14_24 
REMARK   11  A    between atoms: C14_24  and  C15_25 
REMARK   12  A    between atoms: C15_25  and  C16_26 
REMARK   13  A    between atoms: C16_26  and  C17_27 
REMARK   14  A    between atoms: C17_27  and  C18_28 
REMARK   15  A    between atoms: C21_31  and  N1_32 
REMARK   16  A    between atoms: C22_36  and  O7_37 
REMARK   17  A    between atoms: C23_39  and  O8_40 
ROOT
HETATM    1  C12 UNL     1      -9.298  75.552 118.415  1.00  0.00     0.182 C 
HETATM    2  C13 UNL     1      -9.775  76.862 117.837  1.00  0.00     0.155 C 
HETATM    3  C20 UNL     1     -10.791  77.457 118.786  1.00  0.00     0.070 C 
HETATM    4  C21 UNL     1     -10.002  77.917 120.003  1.00  0.00     0.217 C 
HETATM    5  C22 UNL     1      -9.413  76.686 120.647  1.00  0.00     0.179 C 
HETATM    6  C23 UNL     1      -8.568  75.889 119.702  1.00  0.00     0.180 C 
ENDROOT
BRANCH   1   7
HETATM    7  O5  UNL     1     -10.275  74.605 118.593  1.00  0.00    -0.372 OA
BRANCH   7   8
HETATM    8  C11 UNL     1      -9.829  73.327 118.334  1.00  0.00     0.162 C 
HETATM    9  C5  UNL     1     -10.671  72.497 117.450  1.00  0.00     0.054 C 
HETATM   10  C6  UNL     1     -10.156  71.072 117.432  1.00  0.00     0.051 C 
HETATM   11  C8  UNL     1      -8.852  70.888 118.133  1.00  0.00     0.156 C 
HETATM   12  C9  UNL     1      -8.929  71.324 119.590  1.00  0.00     0.178 C 
HETATM   13  C10 UNL     1      -9.409  72.730 119.655  1.00  0.00     0.179 C 
BRANCH   9  14
HETATM   14  C3  UNL     1     -12.135  72.552 117.668  1.00  0.00    -0.081 C 
HETATM   15  C2  UNL     1     -12.938  73.246 116.885  1.00  0.00    -0.028 C 
HETATM   16  C1  UNL     1     -12.590  74.062 115.721  1.00  0.00     0.036 C 
HETATM   17  C4  UNL     1     -12.818  71.821 118.777  1.00  0.00     0.043 C 
ENDBRANCH   9  14
BRANCH  10  18
HETATM   18  C7  UNL     1      -9.988  70.533 116.024  1.00  0.00     0.172 C 
BRANCH  18  19
HETATM   19  O1  UNL     1      -8.733  70.764 115.518  1.00  0.00    -0.400 OA
ATOM     20  H1  UNL     1      -8.081  70.174 115.878  1.00  0.00     0.209 HD
ENDBRANCH  18  19
ENDBRANCH  10  18
BRANCH  11  21
HETATM   21  O2  UNL     1      -8.559  69.531 118.155  1.00  0.00    -0.392 OA
ATOM     22  H2  UNL     1      -7.868  69.387 118.790  1.00  0.00     0.210 HD
ENDBRANCH  11  21
BRANCH  12  23
HETATM   23  O3  UNL     1      -9.673  70.410 120.313  1.00  0.00    -0.390 OA
ATOM     24  H3  UNL     1     -10.353  70.042 119.761  1.00  0.00     0.210 HD
ENDBRANCH  12  23
BRANCH  13  25
HETATM   25  O4  UNL     1     -10.299  72.995 120.697  1.00  0.00    -0.390 OA
ATOM     26  H4  UNL     1     -11.146  73.325 120.421  1.00  0.00     0.210 HD
ENDBRANCH  13  25
ENDBRANCH   7   8
ENDBRANCH   1   7
BRANCH   2  27
HETATM   27  O6  UNL     1     -10.165  76.811 116.530  1.00  0.00    -0.383 OA
BRANCH  27  28
HETATM   28  C14 UNL     1      -9.381  77.657 115.764  1.00  0.00     0.168 C 
BRANCH  28  29
HETATM   29  C15 UNL     1     -10.148  78.079 114.514  1.00  0.00     0.026 C 
BRANCH  29  30
HETATM   30  C16 UNL     1     -11.542  77.512 114.638  1.00  0.00     0.002 C 
BRANCH  30  31
HETATM   31  C17 UNL     1     -12.586  78.607 114.655  1.00  0.00    -0.000 C 
BRANCH  31  32
HETATM   32  C18 UNL     1     -13.071  78.884 116.055  1.00  0.00    -0.005 C 
HETATM   33  C19 UNL     1     -13.459  80.312 116.259  1.00  0.00     0.005 C 
ENDBRANCH  31  32
ENDBRANCH  30  31
ENDBRANCH  29  30
ENDBRANCH  28  29
ENDBRANCH  27  28
ENDBRANCH   2  27
BRANCH   6  34
HETATM   34  O8  UNL     1      -7.476  76.684 119.343  1.00  0.00    -0.390 OA
ATOM     35  H8  UNL     1      -7.774  77.585 119.379  1.00  0.00     0.210 HD
ENDBRANCH   6  34
BRANCH   5  36
HETATM   36  O7  UNL     1     -10.396  75.964 121.287  1.00  0.00    -0.391 OA
ATOM     37  H7  UNL     1     -10.209  75.903 122.217  1.00  0.00     0.210 HD
ENDBRANCH   5  36
BRANCH   4  38
HETATM   38  N1  UNL     1     -10.868  78.573 120.969  1.00  0.00    -0.072 N 
ATOM     39  H13 UNL     1     -11.470  79.266 120.524  1.00  0.00     0.274 HD
ATOM     40  H12 UNL     1     -11.589  77.942 121.316  1.00  0.00     0.274 HD
ATOM     41  H11 UNL     1     -10.326  78.980 121.731  1.00  0.00     0.274 HD
ENDBRANCH   4  38
TORSDOF 17
ENDMDL
MODEL 3
REMARK VINA RESULT: -6.191082921      2.557      5.401
REMARK  17 active torsions:
REMARK  status: ('A' for Active; 'I' for Inactive)
REMARK    1  A    between atoms: C3_3  and  C5_5 
REMARK    2  A    between atoms: C6_6  and  C7_7 
REMARK    3  A    between atoms: C7_7  and  O1_8 
REMARK    4  A    between atoms: C8_10  and  O2_11 
REMARK    5  A    between atoms: C9_13  and  O3_14 
REMARK    6  A    between atoms: C10_16  and  O4_17 
REMARK    7  A    between atoms: C11_19  and  O5_20 
REMARK    8  A    between atoms: O5_20  and  C12_21 
REMARK    9  A    between atoms: C13_22  and  O6_23 
REMARK   10  A    between atoms: O6_23  and  C14_24 
REMARK   11  A    between atoms: C14_24  and  C15_25 
REMARK   12  A    between atoms: C15_25  and  C16_26 
REMARK   13  A    between atoms: C16_26  and  C17_27 
REMARK   14  A    between atoms: C17_27  and  C18_28 
REMARK   15  A    between atoms: C21_31  and  N1_32 
REMARK   16  A    between atoms: C22_36  and  O7_37 
REMARK   17  A    between atoms: C23_39  and  O8_40 
ROOT
HETATM    1  C12 UNL     1     -11.935  73.046 117.425  1.00  0.00     0.182 C 
HETATM    2  C13 UNL     1     -12.068  74.533 117.205  1.00  0.00     0.155 C 
HETATM    3  C20 UNL     1     -12.092  74.791 115.715  1.00  0.00     0.070 C 
HETATM    4  C21 UNL     1     -13.437  74.277 115.225  1.00  0.00     0.217 C 
HETATM    5  C22 UNL     1     -13.455  72.784 115.449  1.00  0.00     0.179 C 
HETATM    6  C23 UNL     1     -13.201  72.413 116.878  1.00  0.00     0.180 C 
ENDROOT
BRANCH   1   7
HETATM    7  O5  UNL     1     -10.796  72.481 116.908  1.00  0.00    -0.372 OA
BRANCH   7   8
HETATM    8  C11 UNL     1     -10.420  71.336 117.578  1.00  0.00     0.162 C 
HETATM    9  C5  UNL     1      -9.474  71.504 118.699  1.00  0.00     0.054 C 
HETATM   10  C6  UNL     1      -9.007  70.150 119.190  1.00  0.00     0.051 C 
HETATM   11  C8  UNL     1      -9.732  68.998 118.578  1.00  0.00     0.156 C 
HETATM   12  C9  UNL     1      -9.608  68.998 117.060  1.00  0.00     0.178 C 
HETATM   13  C10 UNL     1     -10.080  70.305 116.530  1.00  0.00     0.179 C 
BRANCH   9  14
HETATM   14  C3  UNL     1      -8.343  72.436 118.491  1.00  0.00    -0.081 C 
HETATM   15  C2  UNL     1      -8.258  73.593 119.120  1.00  0.00    -0.028 C 
HETATM   16  C1  UNL     1      -9.195  74.175 120.082  1.00  0.00     0.036 C 
HETATM   17  C4  UNL     1      -7.206  72.140 117.569  1.00  0.00     0.043 C 
ENDBRANCH   9  14
BRANCH  10  18
HETATM   18  C7  UNL     1      -9.127  70.005 120.696  1.00  0.00     0.172 C 
BRANCH  18  19
HETATM   19  O1  UNL     1     -10.022  70.892 121.241  1.00  0.00    -0.400 OA
ATOM     20  H1  UNL     1     -10.922  70.685 121.017  1.00  0.00     0.209 HD
ENDBRANCH  18  19
ENDBRANCH  10  18
BRANCH  11  21
HETATM   21  O2  UNL     1      -9.127  67.825 119.011  1.00  0.00    -0.392 OA
ATOM     22  H2  UNL     1      -9.401  67.120 118.436  1.00  0.00     0.210 HD
ENDBRANCH  11  21
BRANCH  12  23
HETATM   23  O3  UNL     1      -8.323  68.640 116.696  1.00  0.00    -0.390 OA
ATOM     24  H3  UNL     1      -8.355  67.983 116.010  1.00  0.00     0.210 HD
ENDBRANCH  12  23
BRANCH  13  25
HETATM   25  O4  UNL     1      -9.326  70.810 115.470  1.00  0.00    -0.390 OA
ATOM     26  H4  UNL     1      -9.484  70.387 114.635  1.00  0.00     0.210 HD
ENDBRANCH  13  25
ENDBRANCH   7   8
ENDBRANCH   1   7
BRANCH   2  27
HETATM   27  O6  UNL     1     -11.193  75.304 117.913  1.00  0.00    -0.383 OA
BRANCH  27  28
HETATM   28  C14 UNL     1     -11.070  76.550 117.323  1.00  0.00     0.168 C 
BRANCH  28  29
HETATM   29  C15 UNL     1      -9.723  77.165 117.695  1.00  0.00     0.026 C 
BRANCH  29  30
HETATM   30  C16 UNL     1      -9.869  77.743 119.082  1.00  0.00     0.002 C 
BRANCH  30  31
HETATM   31  C17 UNL     1     -11.228  78.377 119.278  1.00  0.00    -0.000 C 
BRANCH  31  32
HETATM   32  C18 UNL     1     -11.727  78.185 120.687  1.00  0.00    -0.005 C 
HETATM   33  C19 UNL     1     -11.720  76.752 121.111  1.00  0.00     0.005 C 
ENDBRANCH  31  32
ENDBRANCH  30  31
ENDBRANCH  29  30
ENDBRANCH  28  29
ENDBRANCH  27  28
ENDBRANCH   2  27
BRANCH   6  34
HETATM   34  O8  UNL     1     -14.259  72.920 117.638  1.00  0.00    -0.390 OA
ATOM     35  H8  UNL     1     -15.011  72.965 117.058  1.00  0.00     0.210 HD
ENDBRANCH   6  34
BRANCH   5  36
HETATM   36  O7  UNL     1     -12.638  72.153 114.538  1.00  0.00    -0.391 OA
ATOM     37  H7  UNL     1     -13.026  71.332 114.259  1.00  0.00     0.210 HD
ENDBRANCH   5  36
BRANCH   4  38
HETATM   38  N1  UNL     1     -13.607  74.531 113.804  1.00  0.00    -0.072 N 
ATOM     39  H13 UNL     1     -13.291  73.742 113.240  1.00  0.00     0.274 HD
ATOM     40  H12 UNL     1     -14.591  74.527 113.537  1.00  0.00     0.274 HD
ATOM     41  H11 UNL     1     -13.146  75.399 113.529  1.00  0.00     0.274 HD
ENDBRANCH   4  38
TORSDOF 17
ENDMDL
MODEL 4
REMARK VINA RESULT: -6.071704106      2.545      6.984
REMARK  17 active torsions:
REMARK  status: ('A' for Active; 'I' for Inactive)
REMARK    1  A    between atoms: C3_3  and  C5_5 
REMARK    2  A    between atoms: C6_6  and  C7_7 
REMARK    3  A    between atoms: C7_7  and  O1_8 
REMARK    4  A    between atoms: C8_10  and  O2_11 
REMARK    5  A    between atoms: C9_13  and  O3_14 
REMARK    6  A    between atoms: C10_16  and  O4_17 
REMARK    7  A    between atoms: C11_19  and  O5_20 
REMARK    8  A    between atoms: O5_20  and  C12_21 
REMARK    9  A    between atoms: C13_22  and  O6_23 
REMARK   10  A    between atoms: O6_23  and  C14_24 
REMARK   11  A    between atoms: C14_24  and  C15_25 
REMARK   12  A    between atoms: C15_25  and  C16_26 
REMARK   13  A    between atoms: C16_26  and  C17_27 
REMARK   14  A    between atoms: C17_27  and  C18_28 
REMARK   15  A    between atoms: C21_31  and  N1_32 
REMARK   16  A    between atoms: C22_36  and  O7_37 
REMARK   17  A    between atoms: C23_39  and  O8_40 
ROOT
HETATM    1  C12 UNL     1     -11.171  73.779 117.750  1.00  0.00     0.182 C 
HETATM    2  C13 UNL     1     -11.203  72.970 119.023  1.00  0.00     0.155 C 
HETATM    3  C20 UNL     1     -12.627  72.944 119.532  1.00  0.00     0.070 C 
HETATM    4  C21 UNL     1     -13.397  72.051 118.570  1.00  0.00     0.217 C 
HETATM    5  C22 UNL     1     -13.385  72.731 117.222  1.00  0.00     0.179 C 
HETATM    6  C23 UNL     1     -11.999  73.017 116.732  1.00  0.00     0.180 C 
ENDROOT
BRANCH   1   7
HETATM    7  O5  UNL     1     -11.567  75.087 117.882  1.00  0.00    -0.372 OA
BRANCH   7   8
HETATM    8  C11 UNL     1     -10.980  75.916 116.951  1.00  0.00     0.162 C 
HETATM    9  C5  UNL     1      -9.959  76.858 117.451  1.00  0.00     0.054 C 
HETATM   10  C6  UNL     1      -9.567  77.827 116.354  1.00  0.00     0.051 C 
HETATM   11  C8  UNL     1     -10.138  77.495 115.017  1.00  0.00     0.156 C 
HETATM   12  C9  UNL     1     -11.660  77.442 115.051  1.00  0.00     0.178 C 
HETATM   13  C10 UNL     1     -12.092  76.482 116.102  1.00  0.00     0.179 C 
BRANCH   9  14
HETATM   14  C3  UNL     1     -10.254  77.556 118.723  1.00  0.00    -0.081 C 
HETATM   15  C2  UNL     1      -9.574  77.320 119.829  1.00  0.00    -0.028 C 
HETATM   16  C1  UNL     1      -8.469  76.382 120.034  1.00  0.00     0.036 C 
HETATM   17  C4  UNL     1     -11.328  78.584 118.856  1.00  0.00     0.043 C 
ENDBRANCH   9  14
BRANCH  10  18
HETATM   18  C7  UNL     1      -8.063  77.933 116.185  1.00  0.00     0.172 C 
BRANCH  18  19
HETATM   19  O1  UNL     1      -7.608  77.263 115.077  1.00  0.00    -0.400 OA
ATOM     20  H1  UNL     1      -8.308  77.036 114.476  1.00  0.00     0.209 HD
ENDBRANCH  18  19
ENDBRANCH  10  18
BRANCH  11  21
HETATM   21  O2  UNL     1      -9.811  78.520 114.139  1.00  0.00    -0.392 OA
ATOM     22  H2  UNL     1     -10.463  78.539 113.449  1.00  0.00     0.210 HD
ENDBRANCH  11  21
BRANCH  12  23
HETATM   23  O3  UNL     1     -12.169  78.722 115.173  1.00  0.00    -0.390 OA
ATOM     24  H3  UNL     1     -13.100  78.680 115.358  1.00  0.00     0.210 HD
ENDBRANCH  12  23
BRANCH  13  25
HETATM   25  O4  UNL     1     -13.208  76.885 116.836  1.00  0.00    -0.390 OA
ATOM     26  H4  UNL     1     -14.025  76.877 116.351  1.00  0.00     0.210 HD
ENDBRANCH  13  25
ENDBRANCH   7   8
ENDBRANCH   1   7
BRANCH   2  27
HETATM   27  O6  UNL     1     -10.263  73.311 119.951  1.00  0.00    -0.383 OA
BRANCH  27  28
HETATM   28  C14 UNL     1      -9.208  72.416 119.914  1.00  0.00     0.168 C 
BRANCH  28  29
HETATM   29  C15 UNL     1      -9.595  71.133 120.645  1.00  0.00     0.026 C 
BRANCH  29  30
HETATM   30  C16 UNL     1      -8.820  70.007 120.003  1.00  0.00     0.002 C 
BRANCH  30  31
HETATM   31  C17 UNL     1      -9.444  69.583 118.692  1.00  0.00    -0.000 C 
BRANCH  31  32
HETATM   32  C18 UNL     1      -9.410  68.086 118.524  1.00  0.00    -0.005 C 
HETATM   33  C19 UNL     1      -9.353  67.667 117.091  1.00  0.00     0.005 C 
ENDBRANCH  31  32
ENDBRANCH  30  31
ENDBRANCH  29  30
ENDBRANCH  28  29
ENDBRANCH  27  28
ENDBRANCH   2  27
BRANCH   6  34
HETATM   34  O8  UNL     1     -11.359  71.789 116.539  1.00  0.00    -0.390 OA
ATOM     35  H8  UNL     1     -11.281  71.388 117.397  1.00  0.00     0.210 HD
ENDBRANCH   6  34
BRANCH   5  36
HETATM   36  O7  UNL     1     -14.228  73.819 117.228  1.00  0.00    -0.391 OA
ATOM     37  H7  UNL     1     -13.889  74.503 116.662  1.00  0.00     0.210 HD
ENDBRANCH   5  36
BRANCH   4  38
HETATM   38  N1  UNL     1     -14.777  71.893 118.995  1.00  0.00    -0.072 N 
ATOM     39  H13 UNL     1     -15.428  72.263 118.302  1.00  0.00     0.274 HD
ATOM     40  H12 UNL     1     -15.067  70.916 118.974  1.00  0.00     0.274 HD
ATOM     41  H11 UNL     1     -14.928  72.310 119.913  1.00  0.00     0.274 HD
ENDBRANCH   4  38
TORSDOF 17
ENDMDL
MODEL 5
REMARK VINA RESULT: -6.000918683      2.948      6.716
REMARK  17 active torsions:
REMARK  status: ('A' for Active; 'I' for Inactive)
REMARK    1  A    between atoms: C3_3  and  C5_5 
REMARK    2  A    between atoms: C6_6  and  C7_7 
REMARK    3  A    between atoms: C7_7  and  O1_8 
REMARK    4  A    between atoms: C8_10  and  O2_11 
REMARK    5  A    between atoms: C9_13  and  O3_14 
REMARK    6  A    between atoms: C10_16  and  O4_17 
REMARK    7  A    between atoms: C11_19  and  O5_20 
REMARK    8  A    between atoms: O5_20  and  C12_21 
REMARK    9  A    between atoms: C13_22  and  O6_23 
REMARK   10  A    between atoms: O6_23  and  C14_24 
REMARK   11  A    between atoms: C14_24  and  C15_25 
REMARK   12  A    between atoms: C15_25  and  C16_26 
REMARK   13  A    between atoms: C16_26  and  C17_27 
REMARK   14  A    between atoms: C17_27  and  C18_28 
REMARK   15  A    between atoms: C21_31  and  N1_32 
REMARK   16  A    between atoms: C22_36  and  O7_37 
REMARK   17  A    between atoms: C23_39  and  O8_40 
ROOT
HETATM    1  C12 UNL     1     -10.801  72.897 119.357  1.00  0.00     0.182 C 
HETATM    2  C13 UNL     1     -11.446  71.786 118.566  1.00  0.00     0.155 C 
HETATM    3  C20 UNL     1     -10.479  71.349 117.489  1.00  0.00     0.070 C 
HETATM    4  C21 UNL     1      -9.358  70.614 118.209  1.00  0.00     0.217 C 
HETATM    5  C22 UNL     1      -8.662  71.619 119.094  1.00  0.00     0.179 C 
HETATM    6  C23 UNL     1      -9.597  72.290 120.053  1.00  0.00     0.180 C 
ENDROOT
BRANCH   1   7
HETATM    7  O5  UNL     1     -10.483  74.019 118.633  1.00  0.00    -0.372 OA
BRANCH   7   8
HETATM    8  C11 UNL     1     -10.821  75.186 119.284  1.00  0.00     0.162 C 
HETATM    9  C5  UNL     1     -11.598  76.175 118.512  1.00  0.00     0.054 C 
HETATM   10  C6  UNL     1     -11.708  77.469 119.292  1.00  0.00     0.051 C 
HETATM   11  C8  UNL     1     -11.192  77.384 120.688  1.00  0.00     0.156 C 
HETATM   12  C9  UNL     1      -9.730  76.956 120.723  1.00  0.00     0.178 C 
HETATM   13  C10 UNL     1      -9.578  75.673 119.987  1.00  0.00     0.179 C 
BRANCH   9  14
HETATM   14  C3  UNL     1     -11.185  76.410 117.110  1.00  0.00    -0.081 C 
HETATM   15  C2  UNL     1     -11.784  75.823 116.091  1.00  0.00    -0.028 C 
HETATM   16  C1  UNL     1     -12.898  74.874 116.117  1.00  0.00     0.036 C 
HETATM   17  C4  UNL     1     -10.072  77.332 116.735  1.00  0.00     0.043 C 
ENDBRANCH   9  14
BRANCH  10  18
HETATM   18  C7  UNL     1     -13.136  77.978 119.372  1.00  0.00     0.172 C 
BRANCH  18  19
HETATM   19  O1  UNL     1     -13.721  77.715 120.585  1.00  0.00    -0.400 OA
ATOM     20  H1  UNL     1     -13.289  78.162 121.304  1.00  0.00     0.209 HD
ENDBRANCH  18  19
ENDBRANCH  10  18
BRANCH  11  21
HETATM   21  O2  UNL     1     -11.232  78.655 121.245  1.00  0.00    -0.392 OA
ATOM     22  H2  UNL     1     -11.365  78.566 122.181  1.00  0.00     0.210 HD
ENDBRANCH  11  21
BRANCH  12  23
HETATM   23  O3  UNL     1      -8.930  77.992 120.279  1.00  0.00    -0.390 OA
ATOM     24  H3  UNL     1      -9.466  78.754 120.090  1.00  0.00     0.210 HD
ENDBRANCH  12  23
BRANCH  13  25
HETATM   25  O4  UNL     1      -8.423  75.580 119.212  1.00  0.00    -0.390 OA
ATOM     26  H4  UNL     1      -8.552  75.194 118.353  1.00  0.00     0.210 HD
ENDBRANCH  13  25
ENDBRANCH   7   8
ENDBRANCH   1   7
BRANCH   2  27
HETATM   27  O6  UNL     1     -12.716  72.042 118.136  1.00  0.00    -0.383 OA
BRANCH  27  28
HETATM   28  C14 UNL     1     -13.557  72.236 119.218  1.00  0.00     0.168 C 
BRANCH  28  29
HETATM   29  C15 UNL     1     -14.411  73.480 118.990  1.00  0.00     0.026 C 
BRANCH  29  30
HETATM   30  C16 UNL     1     -14.373  74.283 120.267  1.00  0.00     0.002 C 
BRANCH  30  31
HETATM   31  C17 UNL     1     -15.752  74.763 120.663  1.00  0.00    -0.000 C 
BRANCH  31  32
HETATM   32  C18 UNL     1     -15.793  75.194 122.106  1.00  0.00    -0.005 C 
HETATM   33  C19 UNL     1     -16.806  74.440 122.904  1.00  0.00     0.005 C 
ENDBRANCH  31  32
ENDBRANCH  30  31
ENDBRANCH  29  30
ENDBRANCH  28  29
ENDBRANCH  27  28
ENDBRANCH   2  27
BRANCH   6  34
HETATM   34  O8  UNL     1     -10.090  71.307 120.916  1.00  0.00    -0.390 OA
ATOM     35  H8  UNL     1     -10.788  70.863 120.448  1.00  0.00     0.210 HD
ENDBRANCH   6  34
BRANCH   5  36
HETATM   36  O7  UNL     1      -7.902  72.481 118.335  1.00  0.00    -0.391 OA
ATOM     37  H7  UNL     1      -8.458  73.123 117.910  1.00  0.00     0.210 HD
ENDBRANCH   5  36
BRANCH   4  38
HETATM   38  N1  UNL     1      -8.391  70.083 117.264  1.00  0.00    -0.072 N 
ATOM     39  H13 UNL     1      -8.484  70.518 116.346  1.00  0.00     0.274 HD
ATOM     40  H12 UNL     1      -7.443  70.389 117.484  1.00  0.00     0.274 HD
ATOM     41  H11 UNL     1      -8.454  69.066 117.206  1.00  0.00     0.274 HD
ENDBRANCH   4  38
TORSDOF 17
ENDMDL
