MODEL 1
REMARK VINA RESULT: -7.032794851      0.000      0.000
REMARK  16 active torsions:
REMARK  status: ('A' for Active; 'I' for Inactive)
REMARK    1  A    between atoms: C2_2  and  C4_4 
REMARK    2  A    between atoms: C4_4  and  O1_5 
REMARK    3  A    between atoms: C4_4  and  O2_7 
REMARK    4  A    between atoms: O2_7  and  C5_8 
REMARK    5  A    between atoms: C6_9  and  O3_10 
REMARK    6  A    between atoms: C7_12  and  O4_13 
REMARK    7  A    between atoms: C8_15  and  C9_16 
REMARK    8  A    between atoms: C9_16  and  O5_17 
REMARK    9  A    between atoms: C9_16  and  C10_19 
REMARK   10  A    between atoms: C15_24  and  N1_25 
REMARK       I    between atoms: N1_25  and  C16_27 
REMARK   11  A    between atoms: C16_27  and  O7_29 
REMARK   12  A    between atoms: O7_29  and  C17_30 
REMARK   13  A    between atoms: C17_30  and  C18_31 
REMARK   14  A    between atoms: C18_31  and  C19_32 
REMARK   15  A    between atoms: C21_34  and  O8_35 
REMARK   16  A    between atoms: C22_37  and  O9_38 
ROOT
HETATM    1  C5  UNL     1      -9.776  71.249 118.765  1.00  0.00     0.187 C 
HETATM    2  C6  UNL     1      -9.936  71.888 120.091  1.00  0.00     0.179 C 
HETATM    3  C7  UNL     1     -11.185  72.768 120.212  1.00  0.00     0.158 C 
HETATM    4  C8  UNL     1     -11.024  73.885 119.256  1.00  0.00     0.077 C 
HETATM    5  C21 UNL     1     -10.474  73.422 117.914  1.00  0.00     0.158 C 
HETATM    6  C22 UNL     1     -10.662  71.929 117.721  1.00  0.00     0.179 C 
ENDROOT
BRANCH   4   7
HETATM    7  C9  UNL     1     -12.158  74.837 119.082  1.00  0.00     0.133 C 
BRANCH   7   8
HETATM    8  O5  UNL     1     -13.339  74.107 118.922  1.00  0.00    -0.395 OA
ATOM      9  H5  UNL     1     -13.145  73.311 118.443  1.00  0.00     0.210 HD
ENDBRANCH   7   8
BRANCH   7  10
HETATM   10  C10 UNL     1     -12.263  76.000 120.019  1.00  0.00     0.038 C 
HETATM   11  C11 UNL     1     -13.542  76.706 119.981  1.00  0.00     0.009 C 
HETATM   12  C12 UNL     1     -13.495  78.203 120.250  1.00  0.00     0.001 C 
HETATM   13  C13 UNL     1     -12.450  78.379 121.332  1.00  0.00     0.002 C 
HETATM   14  C14 UNL     1     -11.147  78.194 120.571  1.00  0.00     0.026 C 
HETATM   15  C15 UNL     1     -10.996  76.825 120.030  1.00  0.00     0.093 C 
BRANCH  15  16
HETATM   16  N1  UNL     1     -10.366  76.918 118.727  1.00  0.00    -0.332 N 
HETATM   17  C16 UNL     1      -8.976  76.667 118.530  1.00  0.00     0.360 C 
HETATM   18  O6  UNL     1      -8.270  76.351 119.549  1.00  0.00    -0.239 OA
ATOM     19  H1  UNL     1     -10.938  77.173 117.922  1.00  0.00     0.165 HD
BRANCH  17  20
HETATM   20  O7  UNL     1      -8.335  76.740 117.312  1.00  0.00    -0.304 OA
BRANCH  20  21
HETATM   21  C17 UNL     1      -8.146  77.900 116.557  1.00  0.00     0.180 C 
BRANCH  21  22
HETATM   22  C18 UNL     1      -8.737  77.844 115.172  1.00  0.00     0.026 C 
BRANCH  22  23
HETATM   23  C19 UNL     1     -10.215  77.627 115.141  1.00  0.00    -0.002 C 
HETATM   24  C20 UNL     1     -10.836  78.507 114.090  1.00  0.00     0.005 C 
ENDBRANCH  22  23
ENDBRANCH  21  22
ENDBRANCH  20  21
ENDBRANCH  17  20
ENDBRANCH  15  16
ENDBRANCH   7  10
ENDBRANCH   4   7
BRANCH   3  25
HETATM   25  O4  UNL     1     -12.330  71.989 120.046  1.00  0.00    -0.392 OA
ATOM     26  H4  UNL     1     -12.630  71.674 120.891  1.00  0.00     0.210 HD
ENDBRANCH   3  25
BRANCH   5  27
HETATM   27  O8  UNL     1     -11.033  74.123 116.860  1.00  0.00    -0.392 OA
ATOM     28  H8  UNL     1     -10.782  73.757 116.021  1.00  0.00     0.210 HD
ENDBRANCH   5  27
BRANCH   2  29
HETATM   29  O3  UNL     1      -9.986  70.928 121.101  1.00  0.00    -0.390 OA
ATOM     30  H3  UNL     1     -10.884  70.758 121.360  1.00  0.00     0.210 HD
ENDBRANCH   2  29
BRANCH   6  31
HETATM   31  O9  UNL     1     -10.137  71.651 116.455  1.00  0.00    -0.390 OA
ATOM     32  H9  UNL     1     -10.350  70.752 116.237  1.00  0.00     0.210 HD
ENDBRANCH   6  31
BRANCH   1  33
HETATM   33  O2  UNL     1     -10.059  69.887 118.772  1.00  0.00    -0.347 OA
BRANCH  33  34
HETATM   34  C4  UNL     1      -8.969  69.100 118.398  1.00  0.00     0.286 C 
BRANCH  34  35
HETATM   35  C2  UNL     1      -9.174  68.365 117.132  1.00  0.00    -0.039 C 
HETATM   36  C1  UNL     1      -9.706  67.150 117.095  1.00  0.00     0.019 C 
HETATM   37  C3  UNL     1      -8.778  68.985 115.837  1.00  0.00     0.048 C 
ENDBRANCH  34  35
BRANCH  34  38
HETATM   38  O1  UNL     1      -7.920  70.018 118.149  1.00  0.00    -0.367 OA
ATOM     39  H1  UNL     1      -7.353  69.978 118.910  1.00  0.00     0.213 HD
ENDBRANCH  34  38
ENDBRANCH  33  34
ENDBRANCH   1  33
TORSDOF 16
ENDMDL
MODEL 2
REMARK VINA RESULT: -7.010031596      3.304      8.664
REMARK  16 active torsions:
REMARK  status: ('A' for Active; 'I' for Inactive)
REMARK    1  A    between atoms: C2_2  and  C4_4 
REMARK    2  A    between atoms: C4_4  and  O1_5 
REMARK    3  A    between atoms: C4_4  and  O2_7 
REMARK    4  A    between atoms: O2_7  and  C5_8 
REMARK    5  A    between atoms: C6_9  and  O3_10 
REMARK    6  A    between atoms: C7_12  and  O4_13 
REMARK    7  A    between atoms: C8_15  and  C9_16 
REMARK    8  A    between atoms: C9_16  and  O5_17 
REMARK    9  A    between atoms: C9_16  and  C10_19 
REMARK   10  A    between atoms: C15_24  and  N1_25 
REMARK       I    between atoms: N1_25  and  C16_27 
REMARK   11  A    between atoms: C16_27  and  O7_29 
REMARK   12  A    between atoms: O7_29  and  C17_30 
REMARK   13  A    between atoms: C17_30  and  C18_31 
REMARK   14  A    between atoms: C18_31  and  C19_32 
REMARK   15  A    between atoms: C21_34  and  O8_35 
REMARK   16  A    between atoms: C22_37  and  O9_38 
ROOT
HETATM    1  C5  UNL     1     -13.712  78.646 121.200  1.00  0.00     0.187 C 
HETATM    2  C6  UNL     1     -14.098  78.342 119.803  1.00  0.00     0.179 C 
HETATM    3  C7  UNL     1     -14.268  76.847 119.514  1.00  0.00     0.158 C 
HETATM    4  C8  UNL     1     -12.944  76.215 119.700  1.00  0.00     0.077 C 
HETATM    5  C21 UNL     1     -12.225  76.734 120.937  1.00  0.00     0.158 C 
HETATM    6  C22 UNL     1     -13.188  77.394 121.905  1.00  0.00     0.179 C 
ENDROOT
BRANCH   4   7
HETATM    7  C9  UNL     1     -12.847  74.731 119.594  1.00  0.00     0.133 C 
BRANCH   7   8
HETATM    8  O5  UNL     1     -13.455  74.158 120.715  1.00  0.00    -0.395 OA
ATOM      9  H5  UNL     1     -13.082  73.297 120.859  1.00  0.00     0.210 HD
ENDBRANCH   7   8
BRANCH   7  10
HETATM   10  C10 UNL     1     -13.200  74.084 118.292  1.00  0.00     0.038 C 
HETATM   11  C11 UNL     1     -14.553  73.537 118.225  1.00  0.00     0.009 C 
HETATM   12  C12 UNL     1     -14.737  72.294 117.367  1.00  0.00     0.001 C 
HETATM   13  C13 UNL     1     -13.836  72.503 116.167  1.00  0.00     0.002 C 
HETATM   14  C14 UNL     1     -12.452  72.241 116.740  1.00  0.00     0.026 C 
HETATM   15  C15 UNL     1     -12.064  73.238 117.763  1.00  0.00     0.093 C 
BRANCH  15  16
HETATM   16  N1  UNL     1     -11.329  72.552 118.808  1.00  0.00    -0.332 N 
HETATM   17  C16 UNL     1      -9.904  72.510 118.839  1.00  0.00     0.360 C 
HETATM   18  O6  UNL     1      -9.263  73.101 117.903  1.00  0.00    -0.239 OA
ATOM     19  H1  UNL     1     -11.851  72.083 119.549  1.00  0.00     0.165 HD
BRANCH  17  20
HETATM   20  O7  UNL     1      -9.163  71.875 119.812  1.00  0.00    -0.304 OA
BRANCH  20  21
HETATM   21  C17 UNL     1      -8.997  70.495 119.942  1.00  0.00     0.180 C 
BRANCH  21  22
HETATM   22  C18 UNL     1      -8.962  69.747 118.634  1.00  0.00     0.026 C 
BRANCH  22  23
HETATM   23  C19 UNL     1      -9.386  68.318 118.730  1.00  0.00    -0.002 C 
HETATM   24  C20 UNL     1      -9.368  67.688 117.363  1.00  0.00     0.005 C 
ENDBRANCH  22  23
ENDBRANCH  21  22
ENDBRANCH  20  21
ENDBRANCH  17  20
ENDBRANCH  15  16
ENDBRANCH   7  10
ENDBRANCH   4   7
BRANCH   3  25
HETATM   25  O4  UNL     1     -15.302  76.329 120.295  1.00  0.00    -0.392 OA
ATOM     26  H4  UNL     1     -15.575  75.488 119.949  1.00  0.00     0.210 HD
ENDBRANCH   3  25
BRANCH   5  27
HETATM   27  O8  UNL     1     -11.506  75.736 121.571  1.00  0.00    -0.392 OA
ATOM     28  H8  UNL     1     -11.279  75.976 122.461  1.00  0.00     0.210 HD
ENDBRANCH   5  27
BRANCH   2  29
HETATM   29  O3  UNL     1     -15.289  78.984 119.468  1.00  0.00    -0.390 OA
ATOM     30  H3  UNL     1     -15.125  79.879 119.196  1.00  0.00     0.210 HD
ENDBRANCH   2  29
BRANCH   6  31
HETATM   31  O9  UNL     1     -12.404  77.800 122.990  1.00  0.00    -0.390 OA
ATOM     32  H9  UNL     1     -11.726  77.149 123.125  1.00  0.00     0.210 HD
ENDBRANCH   6  31
BRANCH   1  33
HETATM   33  O2  UNL     1     -14.750  79.182 121.956  1.00  0.00    -0.347 OA
BRANCH  33  34
HETATM   34  C4  UNL     1     -14.374  80.319 122.671  1.00  0.00     0.286 C 
BRANCH  34  35
HETATM   35  C2  UNL     1     -15.245  81.489 122.427  1.00  0.00    -0.039 C 
HETATM   36  C1  UNL     1     -16.129  81.521 121.438  1.00  0.00     0.019 C 
HETATM   37  C3  UNL     1     -15.149  82.687 123.306  1.00  0.00     0.048 C 
ENDBRANCH  34  35
BRANCH  34  38
HETATM   38  O1  UNL     1     -14.555  79.976 124.032  1.00  0.00    -0.367 OA
ATOM     39  H1  UNL     1     -15.081  79.185 124.034  1.00  0.00     0.213 HD
ENDBRANCH  34  38
ENDBRANCH  33  34
ENDBRANCH   1  33
TORSDOF 16
ENDMDL
MODEL 3
REMARK VINA RESULT: -6.852112977      2.937      6.557
REMARK  16 active torsions:
REMARK  status: ('A' for Active; 'I' for Inactive)
REMARK    1  A    between atoms: C2_2  and  C4_4 
REMARK    2  A    between atoms: C4_4  and  O1_5 
REMARK    3  A    between atoms: C4_4  and  O2_7 
REMARK    4  A    between atoms: O2_7  and  C5_8 
REMARK    5  A    between atoms: C6_9  and  O3_10 
REMARK    6  A    between atoms: C7_12  and  O4_13 
REMARK    7  A    between atoms: C8_15  and  C9_16 
REMARK    8  A    between atoms: C9_16  and  O5_17 
REMARK    9  A    between atoms: C9_16  and  C10_19 
REMARK   10  A    between atoms: C15_24  and  N1_25 
REMARK       I    between atoms: N1_25  and  C16_27 
REMARK   11  A    between atoms: C16_27  and  O7_29 
REMARK   12  A    between atoms: O7_29  and  C17_30 
REMARK   13  A    between atoms: C17_30  and  C18_31 
REMARK   14  A    between atoms: C18_31  and  C19_32 
REMARK   15  A    between atoms: C21_34  and  O8_35 
REMARK   16  A    between atoms: C22_37  and  O9_38 
ROOT
HETATM    1  C5  UNL     1     -15.363  74.017 119.303  1.00  0.00     0.187 C 
HETATM    2  C6  UNL     1     -14.863  73.141 118.219  1.00  0.00     0.179 C 
HETATM    3  C7  UNL     1     -13.695  72.240 118.633  1.00  0.00     0.158 C 
HETATM    4  C8  UNL     1     -12.561  73.127 118.973  1.00  0.00     0.077 C 
HETATM    5  C21 UNL     1     -12.998  74.333 119.793  1.00  0.00     0.158 C 
HETATM    6  C22 UNL     1     -14.348  74.105 120.444  1.00  0.00     0.179 C 
ENDROOT
BRANCH   4   7
HETATM    7  C9  UNL     1     -11.321  72.511 119.525  1.00  0.00     0.133 C 
BRANCH   7   8
HETATM    8  O5  UNL     1     -11.646  71.807 120.688  1.00  0.00    -0.395 OA
ATOM      9  H5  UNL     1     -11.088  71.041 120.749  1.00  0.00     0.210 HD
ENDBRANCH   7   8
BRANCH   7  10
HETATM   10  C10 UNL     1     -10.407  71.785 118.589  1.00  0.00     0.038 C 
HETATM   11  C11 UNL     1      -9.998  70.456 119.037  1.00  0.00     0.009 C 
HETATM   12  C12 UNL     1      -8.604  70.004 118.626  1.00  0.00     0.001 C 
HETATM   13  C13 UNL     1      -8.416  70.530 117.218  1.00  0.00     0.002 C 
HETATM   14  C14 UNL     1      -8.170  72.013 117.445  1.00  0.00     0.026 C 
HETATM   15  C15 UNL     1      -9.347  72.701 118.021  1.00  0.00     0.093 C 
BRANCH  15  16
HETATM   16  N1  UNL     1      -8.875  73.687 118.974  1.00  0.00    -0.332 N 
HETATM   17  C16 UNL     1      -8.958  75.089 118.728  1.00  0.00     0.360 C 
HETATM   18  O6  UNL     1      -9.468  75.478 117.621  1.00  0.00    -0.239 OA
ATOM     19  H1  UNL     1      -8.468  73.365 119.852  1.00  0.00     0.165 HD
BRANCH  17  20
HETATM   20  O7  UNL     1      -8.527  76.062 119.604  1.00  0.00    -0.304 OA
BRANCH  20  21
HETATM   21  C17 UNL     1      -9.344  76.843 120.423  1.00  0.00     0.180 C 
BRANCH  21  22
HETATM   22  C18 UNL     1      -9.898  78.076 119.756  1.00  0.00     0.026 C 
BRANCH  22  23
HETATM   23  C19 UNL     1     -11.390  78.125 119.696  1.00  0.00    -0.002 C 
HETATM   24  C20 UNL     1     -11.954  78.163 121.092  1.00  0.00     0.005 C 
ENDBRANCH  22  23
ENDBRANCH  21  22
ENDBRANCH  20  21
ENDBRANCH  17  20
ENDBRANCH  15  16
ENDBRANCH   7  10
ENDBRANCH   4   7
BRANCH   3  25
HETATM   25  O4  UNL     1     -14.105  71.368 119.642  1.00  0.00    -0.392 OA
ATOM     26  H4  UNL     1     -14.037  70.470 119.338  1.00  0.00     0.210 HD
ENDBRANCH   3  25
BRANCH   5  27
HETATM   27  O8  UNL     1     -12.052  74.679 120.742  1.00  0.00    -0.392 OA
ATOM     28  H8  UNL     1     -11.658  73.912 121.142  1.00  0.00     0.210 HD
ENDBRANCH   5  27
BRANCH   2  29
HETATM   29  O3  UNL     1     -15.883  72.325 117.731  1.00  0.00    -0.390 OA
ATOM     30  H3  UNL     1     -15.887  71.487 118.177  1.00  0.00     0.210 HD
ENDBRANCH   2  29
BRANCH   6  31
HETATM   31  O9  UNL     1     -14.611  75.269 121.172  1.00  0.00    -0.390 OA
ATOM     32  H9  UNL     1     -14.034  75.954 120.855  1.00  0.00     0.210 HD
ENDBRANCH   6  31
BRANCH   1  33
HETATM   33  O2  UNL     1     -16.586  73.606 119.824  1.00  0.00    -0.347 OA
BRANCH  33  34
HETATM   34  C4  UNL     1     -16.465  72.953 121.051  1.00  0.00     0.286 C 
BRANCH  34  35
HETATM   35  C2  UNL     1     -17.559  73.258 121.997  1.00  0.00    -0.039 C 
HETATM   36  C1  UNL     1     -17.638  74.415 122.642  1.00  0.00     0.019 C 
HETATM   37  C3  UNL     1     -18.626  72.251 122.254  1.00  0.00     0.048 C 
ENDBRANCH  34  35
BRANCH  34  38
HETATM   38  O1  UNL     1     -16.585  71.575 120.749  1.00  0.00    -0.367 OA
ATOM     39  H1  UNL     1     -16.205  71.463 119.886  1.00  0.00     0.213 HD
ENDBRANCH  34  38
ENDBRANCH  33  34
ENDBRANCH   1  33
TORSDOF 16
ENDMDL
MODEL 4
REMARK VINA RESULT: -6.794958929      2.453      5.322
REMARK  16 active torsions:
REMARK  status: ('A' for Active; 'I' for Inactive)
REMARK    1  A    between atoms: C2_2  and  C4_4 
REMARK    2  A    between atoms: C4_4  and  O1_5 
REMARK    3  A    between atoms: C4_4  and  O2_7 
REMARK    4  A    between atoms: O2_7  and  C5_8 
REMARK    5  A    between atoms: C6_9  and  O3_10 
REMARK    6  A    between atoms: C7_12  and  O4_13 
REMARK    7  A    between atoms: C8_15  and  C9_16 
REMARK    8  A    between atoms: C9_16  and  O5_17 
REMARK    9  A    between atoms: C9_16  and  C10_19 
REMARK   10  A    between atoms: C15_24  and  N1_25 
REMARK       I    between atoms: N1_25  and  C16_27 
REMARK   11  A    between atoms: C16_27  and  O7_29 
REMARK   12  A    between atoms: O7_29  and  C17_30 
REMARK   13  A    between atoms: C17_30  and  C18_31 
REMARK   14  A    between atoms: C18_31  and  C19_32 
REMARK   15  A    between atoms: C21_34  and  O8_35 
REMARK   16  A    between atoms: C22_37  and  O9_38 
ROOT
HETATM    1  C5  UNL     1      -9.946  70.048 117.863  1.00  0.00     0.187 C 
HETATM    2  C6  UNL     1     -10.361  71.288 117.168  1.00  0.00     0.179 C 
HETATM    3  C7  UNL     1      -9.828  72.572 117.812  1.00  0.00     0.158 C 
HETATM    4  C8  UNL     1     -10.424  72.662 119.162  1.00  0.00     0.077 C 
HETATM    5  C21 UNL     1     -10.425  71.322 119.884  1.00  0.00     0.158 C 
HETATM    6  C22 UNL     1      -9.428  70.358 119.268  1.00  0.00     0.179 C 
ENDROOT
BRANCH   4   7
HETATM    7  C9  UNL     1      -9.981  73.766 120.061  1.00  0.00     0.133 C 
BRANCH   7   8
HETATM    8  O5  UNL     1      -8.736  73.434 120.601  1.00  0.00    -0.395 OA
ATOM      9  H5  UNL     1      -8.064  73.937 120.156  1.00  0.00     0.210 HD
ENDBRANCH   7   8
BRANCH   7  10
HETATM   10  C10 UNL     1     -10.094  75.175 119.569  1.00  0.00     0.038 C 
HETATM   11  C11 UNL     1      -9.149  76.113 120.170  1.00  0.00     0.009 C 
HETATM   12  C12 UNL     1      -9.636  77.545 120.343  1.00  0.00     0.001 C 
HETATM   13  C13 UNL     1     -10.463  77.834 119.107  1.00  0.00     0.002 C 
HETATM   14  C14 UNL     1     -11.749  77.070 119.379  1.00  0.00     0.026 C 
HETATM   15  C15 UNL     1     -11.537  75.607 119.437  1.00  0.00     0.093 C 
BRANCH  15  16
HETATM   16  N1  UNL     1     -12.391  75.065 120.476  1.00  0.00    -0.332 N 
HETATM   17  C16 UNL     1     -13.706  74.580 120.210  1.00  0.00     0.360 C 
HETATM   18  O6  UNL     1     -14.136  74.632 119.007  1.00  0.00    -0.239 OA
ATOM     19  H1  UNL     1     -12.039  75.029 121.432  1.00  0.00     0.165 HD
BRANCH  17  20
HETATM   20  O7  UNL     1     -14.551  74.054 121.163  1.00  0.00    -0.304 OA
BRANCH  20  21
HETATM   21  C17 UNL     1     -15.907  74.356 121.308  1.00  0.00     0.180 C 
BRANCH  21  22
HETATM   22  C18 UNL     1     -16.312  74.742 122.707  1.00  0.00     0.026 C 
BRANCH  22  23
HETATM   23  C19 UNL     1     -17.709  74.358 123.071  1.00  0.00    -0.002 C 
HETATM   24  C20 UNL     1     -17.683  73.209 124.044  1.00  0.00     0.005 C 
ENDBRANCH  22  23
ENDBRANCH  21  22
ENDBRANCH  20  21
ENDBRANCH  17  20
ENDBRANCH  15  16
ENDBRANCH   7  10
ENDBRANCH   4   7
BRANCH   3  25
HETATM   25  O4  UNL     1      -8.433  72.581 117.764  1.00  0.00    -0.392 OA
ATOM     26  H4  UNL     1      -8.115  73.475 117.817  1.00  0.00     0.210 HD
ENDBRANCH   3  25
BRANCH   5  27
HETATM   27  O8  UNL     1     -10.186  71.468 121.239  1.00  0.00    -0.392 OA
ATOM     28  H8  UNL     1      -9.260  71.414 121.442  1.00  0.00     0.210 HD
ENDBRANCH   5  27
BRANCH   2  29
HETATM   29  O3  UNL     1      -9.949  71.271 115.836  1.00  0.00    -0.390 OA
ATOM     30  H3  UNL     1      -9.019  71.091 115.773  1.00  0.00     0.210 HD
ENDBRANCH   2  29
BRANCH   6  31
HETATM   31  O9  UNL     1      -9.520  69.191 120.034  1.00  0.00    -0.390 OA
ATOM     32  H9  UNL     1     -10.038  69.383 120.806  1.00  0.00     0.210 HD
ENDBRANCH   6  31
BRANCH   1  33
HETATM   33  O2  UNL     1      -8.972  69.331 117.176  1.00  0.00    -0.347 OA
BRANCH  33  34
HETATM   34  C4  UNL     1      -9.365  68.026 116.875  1.00  0.00     0.286 C 
BRANCH  34  35
HETATM   35  C2  UNL     1      -8.994  67.595 115.511  1.00  0.00    -0.039 C 
HETATM   36  C1  UNL     1      -8.283  66.498 115.283  1.00  0.00     0.019 C 
HETATM   37  C3  UNL     1      -9.419  68.400 114.332  1.00  0.00     0.048 C 
ENDBRANCH  34  35
BRANCH  34  38
HETATM   38  O1  UNL     1      -8.624  67.204 117.758  1.00  0.00    -0.367 OA
ATOM     39  H1  UNL     1      -8.656  66.330 117.389  1.00  0.00     0.213 HD
ENDBRANCH  34  38
ENDBRANCH  33  34
ENDBRANCH   1  33
TORSDOF 16
ENDMDL
MODEL 5
REMARK VINA RESULT: -6.664600688      0.920      1.130
REMARK  16 active torsions:
REMARK  status: ('A' for Active; 'I' for Inactive)
REMARK    1  A    between atoms: C2_2  and  C4_4 
REMARK    2  A    between atoms: C4_4  and  O1_5 
REMARK    3  A    between atoms: C4_4  and  O2_7 
REMARK    4  A    between atoms: O2_7  and  C5_8 
REMARK    5  A    between atoms: C6_9  and  O3_10 
REMARK    6  A    between atoms: C7_12  and  O4_13 
REMARK    7  A    between atoms: C8_15  and  C9_16 
REMARK    8  A    between atoms: C9_16  and  O5_17 
REMARK    9  A    between atoms: C9_16  and  C10_19 
REMARK   10  A    between atoms: C15_24  and  N1_25 
REMARK       I    between atoms: N1_25  and  C16_27 
REMARK   11  A    between atoms: C16_27  and  O7_29 
REMARK   12  A    between atoms: O7_29  and  C17_30 
REMARK   13  A    between atoms: C17_30  and  C18_31 
REMARK   14  A    between atoms: C18_31  and  C19_32 
REMARK   15  A    between atoms: C21_34  and  O8_35 
REMARK   16  A    between atoms: C22_37  and  O9_38 
ROOT
HETATM    1  C5  UNL     1      -9.746  71.175 118.641  1.00  0.00     0.187 C 
HETATM    2  C6  UNL     1      -9.803  71.797 119.983  1.00  0.00     0.179 C 
HETATM    3  C7  UNL     1     -11.050  72.655 120.222  1.00  0.00     0.158 C 
HETATM    4  C8  UNL     1     -10.990  73.784 119.269  1.00  0.00     0.077 C 
HETATM    5  C21 UNL     1     -10.550  73.345 117.879  1.00  0.00     0.158 C 
HETATM    6  C22 UNL     1     -10.730  71.852 117.685  1.00  0.00     0.179 C 
ENDROOT
BRANCH   4   7
HETATM    7  C9  UNL     1     -12.149  74.719 119.205  1.00  0.00     0.133 C 
BRANCH   7   8
HETATM    8  O5  UNL     1     -13.317  73.976 119.015  1.00  0.00    -0.395 OA
ATOM      9  H5  UNL     1     -13.719  73.815 119.860  1.00  0.00     0.210 HD
ENDBRANCH   7   8
BRANCH   7  10
HETATM   10  C10 UNL     1     -12.255  75.797 120.239  1.00  0.00     0.038 C 
HETATM   11  C11 UNL     1     -13.614  76.089 120.685  1.00  0.00     0.009 C 
HETATM   12  C12 UNL     1     -13.902  77.532 121.075  1.00  0.00     0.001 C 
HETATM   13  C13 UNL     1     -12.648  78.011 121.775  1.00  0.00     0.002 C 
HETATM   14  C14 UNL     1     -11.682  78.224 120.621  1.00  0.00     0.026 C 
HETATM   15  C15 UNL     1     -11.344  76.963 119.925  1.00  0.00     0.093 C 
BRANCH  15  16
HETATM   16  N1  UNL     1     -11.244  77.241 118.505  1.00  0.00    -0.332 N 
HETATM   17  C16 UNL     1     -10.026  77.083 117.779  1.00  0.00     0.360 C 
HETATM   18  O6  UNL     1      -8.992  76.683 118.416  1.00  0.00    -0.239 OA
ATOM     19  H1  UNL     1     -12.074  77.561 118.007  1.00  0.00     0.165 HD
BRANCH  17  20
HETATM   20  O7  UNL     1      -9.884  77.331 116.431  1.00  0.00    -0.304 OA
BRANCH  20  21
HETATM   21  C17 UNL     1     -10.925  77.439 115.506  1.00  0.00     0.180 C 
BRANCH  21  22
HETATM   22  C18 UNL     1     -10.477  77.494 114.068  1.00  0.00     0.026 C 
BRANCH  22  23
HETATM   23  C19 UNL     1     -11.232  76.585 113.154  1.00  0.00    -0.002 C 
HETATM   24  C20 UNL     1     -12.204  75.755 113.950  1.00  0.00     0.005 C 
ENDBRANCH  22  23
ENDBRANCH  21  22
ENDBRANCH  20  21
ENDBRANCH  17  20
ENDBRANCH  15  16
ENDBRANCH   7  10
ENDBRANCH   4   7
BRANCH   3  25
HETATM   25  O4  UNL     1     -12.193  71.858 120.145  1.00  0.00    -0.392 OA
ATOM     26  H4  UNL     1     -12.074  71.075 120.669  1.00  0.00     0.210 HD
ENDBRANCH   3  25
BRANCH   5  27
HETATM   27  O8  UNL     1     -11.209  74.048 116.886  1.00  0.00    -0.392 OA
ATOM     28  H8  UNL     1     -12.056  73.668 116.688  1.00  0.00     0.210 HD
ENDBRANCH   5  27
BRANCH   2  29
HETATM   29  O3  UNL     1      -9.750  70.826 120.982  1.00  0.00    -0.390 OA
ATOM     30  H3  UNL     1      -8.948  70.321 120.919  1.00  0.00     0.210 HD
ENDBRANCH   2  29
BRANCH   6  31
HETATM   31  O9  UNL     1     -10.312  71.596 116.375  1.00  0.00    -0.390 OA
ATOM     32  H9  UNL     1      -9.379  71.420 116.391  1.00  0.00     0.210 HD
ENDBRANCH   6  31
BRANCH   1  33
HETATM   33  O2  UNL     1     -10.007  69.808 118.655  1.00  0.00    -0.347 OA
BRANCH  33  34
HETATM   34  C4  UNL     1      -8.932  69.043 118.203  1.00  0.00     0.286 C 
BRANCH  34  35
HETATM   35  C2  UNL     1      -9.200  68.336 116.933  1.00  0.00    -0.039 C 
HETATM   36  C1  UNL     1      -9.700  67.107 116.897  1.00  0.00     0.019 C 
HETATM   37  C3  UNL     1      -8.907  69.000 115.632  1.00  0.00     0.048 C 
ENDBRANCH  34  35
BRANCH  34  38
HETATM   38  O1  UNL     1      -7.907  69.978 117.918  1.00  0.00    -0.367 OA
ATOM     39  H1  UNL     1      -7.776  70.473 118.718  1.00  0.00     0.213 HD
ENDBRANCH  34  38
ENDBRANCH  33  34
ENDBRANCH   1  33
TORSDOF 16
ENDMDL
