MODEL 1
REMARK VINA RESULT: -8.222055440      0.000      0.000
REMARK  6 active torsions:
REMARK  status: ('A' for Active; 'I' for Inactive)
REMARK    1  A    between atoms: N1_1  and  C1_4 
REMARK    2  A    between atoms: C3_10  and  S1_11 
REMARK    3  A    between atoms: S1_11  and  C4_12 
REMARK    4  A    between atoms: C6_14  and  C7_15 
REMARK       I    between atoms: C7_15  and  N3_17 
REMARK    5  A    between atoms: N3_17  and  N4_19 
REMARK    6  A    between atoms: C9_26  and  N7_27 
ROOT
HETATM    1  S1  UNL     1      30.190  45.053   3.918  1.00  0.00    -0.044 SA
ENDROOT
BRANCH   1   2
HETATM    2  C3  UNL     1      29.717  43.441   3.281  1.00  0.00     0.160 A 
HETATM    3  O2  UNL     1      30.380  42.352   3.567  1.00  0.00    -0.251 OA
HETATM    4  C2  UNL     1      30.089  41.160   3.139  1.00  0.00     0.372 A 
HETATM    5  N2  UNL     1      29.010  41.012   2.325  1.00  0.00    -0.286 N 
HETATM    6  O1  UNL     1      30.766  40.128   3.445  1.00  0.00    -0.238 OA
HETATM    7  C1  UNL     1      28.266  42.071   1.976  1.00  0.00     0.140 A 
ATOM      8  H2  UNL     1      28.763  40.085   1.977  1.00  0.00     0.172 HD
HETATM    9  C9  UNL     1      28.616  43.312   2.455  1.00  0.00     0.187 A 
BRANCH   7  10
HETATM   10  N1  UNL     1      27.254  41.878   1.202  1.00  0.00    -0.383 N 
ATOM     11  H12 UNL     1      26.343  42.310   1.358  1.00  0.00     0.157 HD
ATOM     12  H11 UNL     1      27.372  41.264   0.396  1.00  0.00     0.157 HD
ENDBRANCH   7  10
BRANCH   9  13
HETATM   13  N7  UNL     1      27.855  44.456   2.109  1.00  0.00    -0.108 N 
HETATM   14  O4  UNL     1      28.070  44.970   0.992  1.00  0.00    -0.532 OA
HETATM   15  O5  UNL     1      26.916  45.005   2.926  1.00  0.00    -0.532 OA
ENDBRANCH   9  13
ENDBRANCH   1   2
BRANCH   1  16
HETATM   16  C4  UNL     1      29.378  45.351   5.475  1.00  0.00     0.078 A 
HETATM   17  C5  UNL     1      30.037  45.529   6.673  1.00  0.00     0.057 A 
HETATM   18  C6  UNL     1      29.083  45.734   7.652  1.00  0.00     0.077 A 
HETATM   19  C8  UNL     1      27.867  45.672   7.008  1.00  0.00     0.133 A 
HETATM   20  N5  UNL     1      26.603  45.833   7.655  1.00  0.00    -0.082 NA
HETATM   21  N6  UNL     1      28.063  45.438   5.684  1.00  0.00    -0.338 N 
ATOM     22  H6  UNL     1      27.334  45.345   4.976  1.00  0.00     0.167 HD
BRANCH  18  23
HETATM   23  C7  UNL     1      29.309  45.969   9.072  1.00  0.00     0.273 C 
HETATM   24  O3  UNL     1      30.351  46.570   9.431  1.00  0.00    -0.266 OA
HETATM   25  N3  UNL     1      28.395  45.542  10.060  1.00  0.00    -0.272 N 
ATOM     26  H3  UNL     1      27.543  45.052   9.789  1.00  0.00     0.189 HD
BRANCH  25  27
HETATM   27  N4  UNL     1      28.655  45.789  11.404  1.00  0.00    -0.342 N 
ATOM     28  H42 UNL     1      29.159  46.638  11.662  1.00  0.00     0.176 HD
ATOM     29  H41 UNL     1      28.345  45.128  12.116  1.00  0.00     0.176 HD
ENDBRANCH  25  27
ENDBRANCH  18  23
ENDBRANCH   1  16
TORSDOF 6
ENDMDL
MODEL 2
REMARK VINA RESULT: -7.939786278      1.446      1.450
REMARK  6 active torsions:
REMARK  status: ('A' for Active; 'I' for Inactive)
REMARK    1  A    between atoms: N1_1  and  C1_4 
REMARK    2  A    between atoms: C3_10  and  S1_11 
REMARK    3  A    between atoms: S1_11  and  C4_12 
REMARK    4  A    between atoms: C6_14  and  C7_15 
REMARK       I    between atoms: C7_15  and  N3_17 
REMARK    5  A    between atoms: N3_17  and  N4_19 
REMARK    6  A    between atoms: C9_26  and  N7_27 
ROOT
HETATM    1  S1  UNL     1      30.295  45.159   3.563  1.00  0.00    -0.044 SA
ENDROOT
BRANCH   1   2
HETATM    2  C3  UNL     1      29.677  43.521   3.159  1.00  0.00     0.160 A 
HETATM    3  O2  UNL     1      30.205  42.432   3.650  1.00  0.00    -0.251 OA
HETATM    4  C2  UNL     1      29.805  41.221   3.397  1.00  0.00     0.372 A 
HETATM    5  N2  UNL     1      28.751  41.053   2.553  1.00  0.00    -0.286 N 
HETATM    6  O1  UNL     1      30.351  40.190   3.901  1.00  0.00    -0.238 OA
HETATM    7  C1  UNL     1      28.143  42.112   1.999  1.00  0.00     0.140 A 
ATOM      8  H2  UNL     1      28.420  40.112   2.340  1.00  0.00     0.172 HD
HETATM    9  C9  UNL     1      28.605  43.372   2.299  1.00  0.00     0.187 A 
BRANCH   7  10
HETATM   10  N1  UNL     1      27.150  41.899   1.205  1.00  0.00    -0.383 N 
ATOM     11  H12 UNL     1      26.590  41.046   1.231  1.00  0.00     0.157 HD
ATOM     12  H11 UNL     1      26.915  42.618   0.521  1.00  0.00     0.157 HD
ENDBRANCH   7  10
BRANCH   9  13
HETATM   13  N7  UNL     1      27.989  44.515   1.733  1.00  0.00    -0.108 N 
HETATM   14  O4  UNL     1      28.437  44.927   0.644  1.00  0.00    -0.532 OA
HETATM   15  O5  UNL     1      26.948  45.170   2.317  1.00  0.00    -0.532 OA
ENDBRANCH   9  13
ENDBRANCH   1   2
BRANCH   1  16
HETATM   16  C4  UNL     1      29.271  45.899   4.818  1.00  0.00     0.078 A 
HETATM   17  C5  UNL     1      29.733  46.325   6.046  1.00  0.00     0.057 A 
HETATM   18  C6  UNL     1      28.657  46.840   6.745  1.00  0.00     0.077 A 
HETATM   19  C8  UNL     1      27.570  46.708   5.910  1.00  0.00     0.133 A 
HETATM   20  N5  UNL     1      26.243  47.119   6.242  1.00  0.00    -0.082 NA
HETATM   21  N6  UNL     1      27.959  46.133   4.741  1.00  0.00    -0.338 N 
ATOM     22  H6  UNL     1      27.357  45.918   3.947  1.00  0.00     0.167 HD
BRANCH  18  23
HETATM   23  C7  UNL     1      28.665  47.408   8.087  1.00  0.00     0.273 C 
HETATM   24  O3  UNL     1      29.134  46.729   9.033  1.00  0.00    -0.266 OA
HETATM   25  N3  UNL     1      28.162  48.699   8.360  1.00  0.00    -0.272 N 
ATOM     26  H3  UNL     1      27.777  49.267   7.606  1.00  0.00     0.189 HD
BRANCH  25  27
HETATM   27  N4  UNL     1      28.191  49.198   9.659  1.00  0.00    -0.342 N 
ATOM     28  H42 UNL     1      28.826  48.776  10.336  1.00  0.00     0.176 HD
ATOM     29  H41 UNL     1      27.583  49.974   9.923  1.00  0.00     0.176 HD
ENDBRANCH  25  27
ENDBRANCH  18  23
ENDBRANCH   1  16
TORSDOF 6
ENDMDL
MODEL 3
REMARK VINA RESULT: -7.629547665      2.927      7.594
REMARK  6 active torsions:
REMARK  status: ('A' for Active; 'I' for Inactive)
REMARK    1  A    between atoms: N1_1  and  C1_4 
REMARK    2  A    between atoms: C3_10  and  S1_11 
REMARK    3  A    between atoms: S1_11  and  C4_12 
REMARK    4  A    between atoms: C6_14  and  C7_15 
REMARK       I    between atoms: C7_15  and  N3_17 
REMARK    5  A    between atoms: N3_17  and  N4_19 
REMARK    6  A    between atoms: C9_26  and  N7_27 
ROOT
HETATM    1  S1  UNL     1      27.272  46.771   8.184  1.00  0.00    -0.044 SA
ENDROOT
BRANCH   1   2
HETATM    2  C3  UNL     1      28.428  46.481   9.530  1.00  0.00     0.160 A 
HETATM    3  O2  UNL     1      28.204  45.599  10.468  1.00  0.00    -0.251 OA
HETATM    4  C2  UNL     1      28.998  45.343  11.465  1.00  0.00     0.372 A 
HETATM    5  N2  UNL     1      30.162  46.040  11.557  1.00  0.00    -0.286 N 
HETATM    6  O1  UNL     1      28.737  44.474  12.354  1.00  0.00    -0.238 OA
HETATM    7  C1  UNL     1      30.481  46.966  10.642  1.00  0.00     0.140 A 
ATOM      8  H2  UNL     1      30.800  45.856  12.332  1.00  0.00     0.172 HD
HETATM    9  C9  UNL     1      29.606  47.199   9.606  1.00  0.00     0.187 A 
BRANCH   7  10
HETATM   10  N1  UNL     1      31.595  47.599  10.775  1.00  0.00    -0.383 N 
ATOM     11  H12 UNL     1      32.230  47.448  11.559  1.00  0.00     0.157 HD
ATOM     12  H11 UNL     1      31.852  48.282  10.063  1.00  0.00     0.157 HD
ENDBRANCH   7  10
BRANCH   9  13
HETATM   13  N7  UNL     1      29.906  48.170   8.618  1.00  0.00    -0.108 N 
HETATM   14  O4  UNL     1      30.668  47.826   7.692  1.00  0.00    -0.532 OA
HETATM   15  O5  UNL     1      29.409  49.436   8.637  1.00  0.00    -0.532 OA
ENDBRANCH   9  13
ENDBRANCH   1   2
BRANCH   1  16
HETATM   16  C4  UNL     1      27.836  45.941   6.714  1.00  0.00     0.078 A 
HETATM   17  C5  UNL     1      27.148  45.924   5.519  1.00  0.00     0.057 A 
HETATM   18  C6  UNL     1      27.890  45.187   4.615  1.00  0.00     0.077 A 
HETATM   19  C8  UNL     1      29.014  44.779   5.299  1.00  0.00     0.133 A 
HETATM   20  N5  UNL     1      30.058  43.985   4.733  1.00  0.00    -0.082 NA
HETATM   21  N6  UNL     1      28.966  45.244   6.575  1.00  0.00    -0.338 N 
ATOM     22  H6  UNL     1      29.669  45.090   7.298  1.00  0.00     0.167 HD
BRANCH  18  23
HETATM   23  C7  UNL     1      27.560  44.899   3.225  1.00  0.00     0.273 C 
HETATM   24  O3  UNL     1      26.484  44.306   2.966  1.00  0.00    -0.266 OA
HETATM   25  N3  UNL     1      28.410  45.265   2.158  1.00  0.00    -0.272 N 
ATOM     26  H3  UNL     1      29.287  45.748   2.348  1.00  0.00     0.189 HD
BRANCH  25  27
HETATM   27  N4  UNL     1      28.050  44.968   0.847  1.00  0.00    -0.342 N 
ATOM     28  H42 UNL     1      27.537  44.107   0.659  1.00  0.00     0.176 HD
ATOM     29  H41 UNL     1      28.300  45.606   0.091  1.00  0.00     0.176 HD
ENDBRANCH  25  27
ENDBRANCH  18  23
ENDBRANCH   1  16
TORSDOF 6
ENDMDL
MODEL 4
REMARK VINA RESULT: -7.483892715      5.997      8.493
REMARK  6 active torsions:
REMARK  status: ('A' for Active; 'I' for Inactive)
REMARK    1  A    between atoms: N1_1  and  C1_4 
REMARK    2  A    between atoms: C3_10  and  S1_11 
REMARK    3  A    between atoms: S1_11  and  C4_12 
REMARK    4  A    between atoms: C6_14  and  C7_15 
REMARK       I    between atoms: C7_15  and  N3_17 
REMARK    5  A    between atoms: N3_17  and  N4_19 
REMARK    6  A    between atoms: C9_26  and  N7_27 
ROOT
HETATM    1  S1  UNL     1      30.005  49.666   9.741  1.00  0.00    -0.044 SA
ENDROOT
BRANCH   1   2
HETATM    2  C3  UNL     1      29.190  48.065   9.712  1.00  0.00     0.160 A 
HETATM    3  O2  UNL     1      28.204  47.795   8.899  1.00  0.00    -0.251 OA
HETATM    4  C2  UNL     1      27.574  46.659   8.829  1.00  0.00     0.372 A 
HETATM    5  N2  UNL     1      27.959  45.657   9.665  1.00  0.00    -0.286 N 
HETATM    6  O1  UNL     1      26.620  46.443   8.019  1.00  0.00    -0.238 OA
HETATM    7  C1  UNL     1      28.962  45.839  10.536  1.00  0.00     0.140 A 
ATOM      8  H2  UNL     1      27.479  44.758   9.628  1.00  0.00     0.172 HD
HETATM    9  C9  UNL     1      29.595  47.059  10.569  1.00  0.00     0.187 A 
BRANCH   7  10
HETATM   10  N1  UNL     1      29.286  44.858  11.306  1.00  0.00    -0.383 N 
ATOM     11  H12 UNL     1      28.944  43.907  11.169  1.00  0.00     0.157 HD
ATOM     12  H11 UNL     1      29.915  45.044  12.087  1.00  0.00     0.157 HD
ENDBRANCH   7  10
BRANCH   9  13
HETATM   13  N7  UNL     1      30.660  47.290  11.476  1.00  0.00    -0.108 N 
HETATM   14  O4  UNL     1      31.812  47.009  11.087  1.00  0.00    -0.532 OA
HETATM   15  O5  UNL     1      30.482  47.795  12.726  1.00  0.00    -0.532 OA
ENDBRANCH   9  13
ENDBRANCH   1   2
BRANCH   1  16
HETATM   16  C4  UNL     1      31.552  49.573   8.864  1.00  0.00     0.078 A 
HETATM   17  C5  UNL     1      32.466  50.602   8.790  1.00  0.00     0.057 A 
HETATM   18  C6  UNL     1      33.535  50.163   8.031  1.00  0.00     0.077 A 
HETATM   19  C8  UNL     1      33.229  48.870   7.667  1.00  0.00     0.133 A 
HETATM   20  N5  UNL     1      34.071  48.036   6.870  1.00  0.00    -0.082 NA
HETATM   21  N6  UNL     1      32.019  48.525   8.181  1.00  0.00    -0.338 N 
ATOM     22  H6  UNL     1      31.552  47.626   8.066  1.00  0.00     0.167 HD
BRANCH  18  23
HETATM   23  C7  UNL     1      34.738  50.907   7.684  1.00  0.00     0.273 C 
HETATM   24  O3  UNL     1      35.013  51.952   8.323  1.00  0.00    -0.266 OA
HETATM   25  N3  UNL     1      35.608  50.492   6.651  1.00  0.00    -0.272 N 
ATOM     26  H3  UNL     1      35.403  49.646   6.121  1.00  0.00     0.189 HD
BRANCH  25  27
HETATM   27  N4  UNL     1      36.746  51.237   6.357  1.00  0.00    -0.342 N 
ATOM     28  H42 UNL     1      37.251  51.689   7.119  1.00  0.00     0.176 HD
ATOM     29  H41 UNL     1      37.065  51.325   5.392  1.00  0.00     0.176 HD
ENDBRANCH  25  27
ENDBRANCH  18  23
ENDBRANCH   1  16
TORSDOF 6
ENDMDL
MODEL 5
REMARK VINA RESULT: -7.462080254      2.946      7.755
REMARK  6 active torsions:
REMARK  status: ('A' for Active; 'I' for Inactive)
REMARK    1  A    between atoms: N1_1  and  C1_4 
REMARK    2  A    between atoms: C3_10  and  S1_11 
REMARK    3  A    between atoms: S1_11  and  C4_12 
REMARK    4  A    between atoms: C6_14  and  C7_15 
REMARK       I    between atoms: C7_15  and  N3_17 
REMARK    5  A    between atoms: N3_17  and  N4_19 
REMARK    6  A    between atoms: C9_26  and  N7_27 
ROOT
HETATM    1  S1  UNL     1      28.822  46.070   8.274  1.00  0.00    -0.044 SA
ENDROOT
BRANCH   1   2
HETATM    2  C3  UNL     1      30.203  47.188   8.541  1.00  0.00     0.160 A 
HETATM    3  O2  UNL     1      31.362  47.022   7.960  1.00  0.00    -0.251 OA
HETATM    4  C2  UNL     1      32.397  47.793   8.111  1.00  0.00     0.372 A 
HETATM    5  N2  UNL     1      32.286  48.867   8.939  1.00  0.00    -0.286 N 
HETATM    6  O1  UNL     1      33.505  47.591   7.524  1.00  0.00    -0.238 OA
HETATM    7  C1  UNL     1      31.136  49.121   9.580  1.00  0.00     0.140 A 
ATOM      8  H2  UNL     1      33.086  49.486   9.073  1.00  0.00     0.172 HD
HETATM    9  C9  UNL     1      30.070  48.274   9.386  1.00  0.00     0.187 A 
BRANCH   7  10
HETATM   10  N1  UNL     1      31.083  50.151  10.354  1.00  0.00    -0.383 N 
ATOM     11  H12 UNL     1      30.768  50.103  11.322  1.00  0.00     0.157 HD
ATOM     12  H11 UNL     1      31.371  51.054   9.977  1.00  0.00     0.157 HD
ENDBRANCH   7  10
BRANCH   9  13
HETATM   13  N7  UNL     1      28.838  48.509  10.045  1.00  0.00    -0.108 N 
HETATM   14  O4  UNL     1      28.053  49.324   9.518  1.00  0.00    -0.532 OA
HETATM   15  O5  UNL     1      28.481  47.895  11.205  1.00  0.00    -0.532 OA
ENDBRANCH   9  13
ENDBRANCH   1   2
BRANCH   1  16
HETATM   16  C4  UNL     1      28.888  45.411   6.621  1.00  0.00     0.078 A 
HETATM   17  C5  UNL     1      27.948  45.667   5.645  1.00  0.00     0.057 A 
HETATM   18  C6  UNL     1      28.332  44.990   4.503  1.00  0.00     0.077 A 
HETATM   19  C8  UNL     1      29.503  44.341   4.828  1.00  0.00     0.133 A 
HETATM   20  N5  UNL     1      30.246  43.518   3.928  1.00  0.00    -0.082 NA
HETATM   21  N6  UNL     1      29.828  44.607   6.121  1.00  0.00    -0.338 N 
ATOM     22  H6  UNL     1      30.645  44.255   6.620  1.00  0.00     0.167 HD
BRANCH  18  23
HETATM   23  C7  UNL     1      27.647  44.963   3.218  1.00  0.00     0.273 C 
HETATM   24  O3  UNL     1      26.461  44.553   3.168  1.00  0.00    -0.266 OA
HETATM   25  N3  UNL     1      28.271  45.385   2.023  1.00  0.00    -0.272 N 
ATOM     26  H3  UNL     1      29.233  45.722   2.042  1.00  0.00     0.189 HD
BRANCH  25  27
HETATM   27  N4  UNL     1      27.574  45.341   0.819  1.00  0.00    -0.342 N 
ATOM     28  H42 UNL     1      26.576  45.551   0.818  1.00  0.00     0.176 HD
ATOM     29  H41 UNL     1      28.060  45.101  -0.045  1.00  0.00     0.176 HD
ENDBRANCH  25  27
ENDBRANCH  18  23
ENDBRANCH   1  16
TORSDOF 6
ENDMDL
