MODEL 1
REMARK VINA RESULT: -8.057758773      0.000      0.000
REMARK  8 active torsions:
REMARK  status: ('A' for Active; 'I' for Inactive)
REMARK    1  A    between atoms: C2_2  and  O1_3 
REMARK    2  A    between atoms: C2_2  and  C3_5 
REMARK    3  A    between atoms: C4_6  and  O2_7 
REMARK    4  A    between atoms: C5_9  and  C6_10 
REMARK    5  A    between atoms: C6_10  and  C10_20 
REMARK    6  A    between atoms: N1_11  and  N2_13 
REMARK    7  A    between atoms: N2_13  and  C7_15 
REMARK    8  A    between atoms: C11_23  and  O4_24 
ROOT
HETATM    1  C3  UNL     1      27.892  45.946   6.485  1.00  0.00     0.102 A 
HETATM    2  C4  UNL     1      28.930  46.011   7.426  1.00  0.00     0.102 A 
HETATM    3  C5  UNL     1      29.015  47.045   8.353  1.00  0.00     0.090 A 
HETATM    4  C11 UNL     1      28.006  48.017   8.294  1.00  0.00     0.202 A 
HETATM    5  O5  UNL     1      27.051  47.954   7.427  1.00  0.00    -0.250 OA
HETATM    6  C12 UNL     1      26.958  46.995   6.556  1.00  0.00     0.305 A 
HETATM    7  O6  UNL     1      26.014  46.951   5.714  1.00  0.00    -0.259 OA
ENDROOT
BRANCH   3   8
HETATM    8  C6  UNL     1      30.059  47.189   9.364  1.00  0.00     0.131 C 
HETATM    9  N1  UNL     1      30.997  48.029   9.024  1.00  0.00    -0.294 N 
ATOM     10  H1  UNL     1      30.846  48.447   8.105  1.00  0.00     0.187 HD
BRANCH   9  11
HETATM   11  N2  UNL     1      32.118  48.464   9.620  1.00  0.00    -0.286 N 
ATOM     12  H2  UNL     1      32.593  47.840  10.273  1.00  0.00     0.188 HD
BRANCH  11  13
HETATM   13  C7  UNL     1      32.686  49.771   9.385  1.00  0.00     0.150 C 
HETATM   14  N3  UNL     1      32.479  50.811  10.318  1.00  0.00    -0.080 NA
HETATM   15  C8  UNL     1      33.384  49.974   8.311  1.00  0.00     0.062 C 
HETATM   16  C9  UNL     1      33.973  51.306   8.055  1.00  0.00     0.068 C 
HETATM   17  N4  UNL     1      33.599  48.941   7.369  1.00  0.00    -0.104 NA
ENDBRANCH  11  13
ENDBRANCH   9  11
BRANCH   8  18
HETATM   18  C10 UNL     1      30.183  46.559  10.618  1.00  0.00     0.283 C 
HETATM   19  N5  UNL     1      29.895  45.111  10.696  1.00  0.00    -0.056 NA
HETATM   20  O3  UNL     1      30.503  46.992  11.740  1.00  0.00    -0.269 OA
ENDBRANCH   8  18
ENDBRANCH   3   8
BRANCH   2  21
HETATM   21  O2  UNL     1      29.851  45.051   7.418  1.00  0.00    -0.358 OA
ATOM     22  H2  UNL     1      30.754  45.291   7.592  1.00  0.00     0.217 HD
ENDBRANCH   2  21
BRANCH   4  23
HETATM   23  O4  UNL     1      28.049  49.077   9.208  1.00  0.00    -0.340 OA
ATOM     24  H4  UNL     1      27.239  49.348   9.623  1.00  0.00     0.220 HD
ENDBRANCH   4  23
BRANCH   1  25
HETATM   25  C2  UNL     1      27.724  44.921   5.497  1.00  0.00     0.058 C 
HETATM   26  C1  UNL     1      28.428  44.619   4.267  1.00  0.00     0.077 C 
BRANCH  25  27
HETATM   27  O1  UNL     1      26.743  44.082   5.734  1.00  0.00    -0.364 OA
ATOM     28  H1  UNL     1      25.889  44.493   5.673  1.00  0.00     0.217 HD
ENDBRANCH  25  27
ENDBRANCH   1  25
TORSDOF 8
ENDMDL
MODEL 2
REMARK VINA RESULT: -7.945141530      5.231      8.193
REMARK  8 active torsions:
REMARK  status: ('A' for Active; 'I' for Inactive)
REMARK    1  A    between atoms: C2_2  and  O1_3 
REMARK    2  A    between atoms: C2_2  and  C3_5 
REMARK    3  A    between atoms: C4_6  and  O2_7 
REMARK    4  A    between atoms: C5_9  and  C6_10 
REMARK    5  A    between atoms: C6_10  and  C10_20 
REMARK    6  A    between atoms: N1_11  and  N2_13 
REMARK    7  A    between atoms: N2_13  and  C7_15 
REMARK    8  A    between atoms: C11_23  and  O4_24 
ROOT
HETATM    1  C3  UNL     1      28.149  45.721   6.995  1.00  0.00     0.102 A 
HETATM    2  C4  UNL     1      27.569  45.445   5.749  1.00  0.00     0.102 A 
HETATM    3  C5  UNL     1      28.273  44.793   4.741  1.00  0.00     0.090 A 
HETATM    4  C11 UNL     1      29.593  44.429   5.041  1.00  0.00     0.202 A 
HETATM    5  O5  UNL     1      30.125  44.684   6.190  1.00  0.00    -0.250 OA
HETATM    6  C12 UNL     1      29.480  45.291   7.140  1.00  0.00     0.305 A 
HETATM    7  O6  UNL     1      30.019  45.533   8.260  1.00  0.00    -0.259 OA
ENDROOT
BRANCH   3   8
HETATM    8  C6  UNL     1      27.747  44.467   3.419  1.00  0.00     0.131 C 
HETATM    9  N1  UNL     1      27.671  43.185   3.192  1.00  0.00    -0.294 N 
ATOM     10  H1  UNL     1      27.994  42.621   3.978  1.00  0.00     0.187 HD
BRANCH   9  11
HETATM   11  N2  UNL     1      27.260  42.447   2.148  1.00  0.00    -0.286 N 
ATOM     12  H2  UNL     1      26.266  42.443   1.919  1.00  0.00     0.188 HD
BRANCH  11  13
HETATM   13  C7  UNL     1      28.155  41.659   1.334  1.00  0.00     0.150 C 
HETATM   14  N3  UNL     1      28.121  41.777  -0.073  1.00  0.00    -0.080 NA
HETATM   15  C8  UNL     1      28.985  40.846   1.910  1.00  0.00     0.062 C 
HETATM   16  C9  UNL     1      29.908  40.031   1.092  1.00  0.00     0.068 C 
HETATM   17  N4  UNL     1      29.029  40.718   3.318  1.00  0.00    -0.104 NA
ENDBRANCH  11  13
ENDBRANCH   9  11
BRANCH   8  18
HETATM   18  C10 UNL     1      27.324  45.331   2.387  1.00  0.00     0.283 C 
HETATM   19  N5  UNL     1      27.974  45.199   1.066  1.00  0.00    -0.056 NA
HETATM   20  O3  UNL     1      26.468  46.232   2.355  1.00  0.00    -0.269 OA
ENDBRANCH   8  18
ENDBRANCH   3   8
BRANCH   2  21
HETATM   21  O2  UNL     1      26.311  45.823   5.540  1.00  0.00    -0.358 OA
ATOM     22  H2  UNL     1      26.155  46.640   5.081  1.00  0.00     0.217 HD
ENDBRANCH   2  21
BRANCH   4  23
HETATM   23  O4  UNL     1      30.341  43.770   4.058  1.00  0.00    -0.340 OA
ATOM     24  H4  UNL     1      30.155  42.854   3.886  1.00  0.00     0.220 HD
ENDBRANCH   4  23
BRANCH   1  25
HETATM   25  C2  UNL     1      27.502  46.384   8.089  1.00  0.00     0.058 C 
HETATM   26  C1  UNL     1      27.630  47.717   8.643  1.00  0.00     0.077 C 
BRANCH  25  27
HETATM   27  O1  UNL     1      26.616  45.657   8.729  1.00  0.00    -0.364 OA
ATOM     28  H1  UNL     1      25.959  45.290   8.149  1.00  0.00     0.217 HD
ENDBRANCH  25  27
ENDBRANCH   1  25
TORSDOF 8
ENDMDL
MODEL 3
REMARK VINA RESULT: -7.871565644      2.830      4.966
REMARK  8 active torsions:
REMARK  status: ('A' for Active; 'I' for Inactive)
REMARK    1  A    between atoms: C2_2  and  O1_3 
REMARK    2  A    between atoms: C2_2  and  C3_5 
REMARK    3  A    between atoms: C4_6  and  O2_7 
REMARK    4  A    between atoms: C5_9  and  C6_10 
REMARK    5  A    between atoms: C6_10  and  C10_20 
REMARK    6  A    between atoms: N1_11  and  N2_13 
REMARK    7  A    between atoms: N2_13  and  C7_15 
REMARK    8  A    between atoms: C11_23  and  O4_24 
ROOT
HETATM    1  C3  UNL     1      28.583  43.783   2.858  1.00  0.00     0.102 A 
HETATM    2  C4  UNL     1      28.078  44.888   3.557  1.00  0.00     0.102 A 
HETATM    3  C5  UNL     1      28.532  45.222   4.829  1.00  0.00     0.090 A 
HETATM    4  C11 UNL     1      29.523  44.393   5.372  1.00  0.00     0.202 A 
HETATM    5  O5  UNL     1      29.988  43.376   4.726  1.00  0.00    -0.250 OA
HETATM    6  C12 UNL     1      29.573  43.052   3.538  1.00  0.00     0.305 A 
HETATM    7  O6  UNL     1      30.041  42.050   2.921  1.00  0.00    -0.259 OA
ENDROOT
BRANCH   3   8
HETATM    8  C6  UNL     1      28.061  46.352   5.624  1.00  0.00     0.131 C 
HETATM    9  N1  UNL     1      29.004  47.200   5.931  1.00  0.00    -0.294 N 
ATOM     10  H1  UNL     1      29.917  46.931   5.564  1.00  0.00     0.187 HD
BRANCH   9  11
HETATM   11  N2  UNL     1      29.033  48.348   6.625  1.00  0.00    -0.286 N 
ATOM     12  H2  UNL     1      28.896  49.224   6.119  1.00  0.00     0.188 HD
BRANCH  11  13
HETATM   13  C7  UNL     1      29.248  48.408   8.052  1.00  0.00     0.150 C 
HETATM   14  N3  UNL     1      28.292  49.026   8.887  1.00  0.00    -0.080 NA
HETATM   15  C8  UNL     1      30.326  47.888   8.552  1.00  0.00     0.062 C 
HETATM   16  C9  UNL     1      30.562  47.939  10.010  1.00  0.00     0.068 C 
HETATM   17  N4  UNL     1      31.291  47.265   7.726  1.00  0.00    -0.104 NA
ENDBRANCH  11  13
ENDBRANCH   9  11
BRANCH   8  18
HETATM   18  C10 UNL     1      26.761  46.638   6.090  1.00  0.00     0.283 C 
HETATM   19  N5  UNL     1      26.401  46.190   7.452  1.00  0.00    -0.056 NA
HETATM   20  O3  UNL     1      25.798  47.223   5.563  1.00  0.00    -0.269 OA
ENDBRANCH   8  18
ENDBRANCH   3   8
BRANCH   2  21
HETATM   21  O2  UNL     1      27.137  45.627   2.975  1.00  0.00    -0.358 OA
ATOM     22  H2  UNL     1      26.494  46.057   3.527  1.00  0.00     0.217 HD
ENDBRANCH   2  21
BRANCH   4  23
HETATM   23  O4  UNL     1      30.013  44.689   6.650  1.00  0.00    -0.340 OA
ATOM     24  H4  UNL     1      29.698  44.175   7.385  1.00  0.00     0.220 HD
ENDBRANCH   4  23
BRANCH   1  25
HETATM   25  C2  UNL     1      28.177  43.366   1.548  1.00  0.00     0.058 C 
HETATM   26  C1  UNL     1      27.775  42.083   1.008  1.00  0.00     0.077 C 
BRANCH  25  27
HETATM   27  O1  UNL     1      28.161  44.319   0.647  1.00  0.00    -0.364 OA
ATOM     28  H1  UNL     1      28.482  45.146   0.985  1.00  0.00     0.217 HD
ENDBRANCH  25  27
ENDBRANCH   1  25
TORSDOF 8
ENDMDL
MODEL 4
REMARK VINA RESULT: -7.814432230      3.213      5.141
REMARK  8 active torsions:
REMARK  status: ('A' for Active; 'I' for Inactive)
REMARK    1  A    between atoms: C2_2  and  O1_3 
REMARK    2  A    between atoms: C2_2  and  C3_5 
REMARK    3  A    between atoms: C4_6  and  O2_7 
REMARK    4  A    between atoms: C5_9  and  C6_10 
REMARK    5  A    between atoms: C6_10  and  C10_20 
REMARK    6  A    between atoms: N1_11  and  N2_13 
REMARK    7  A    between atoms: N2_13  and  C7_15 
REMARK    8  A    between atoms: C11_23  and  O4_24 
ROOT
HETATM    1  C3  UNL     1      29.292  42.925   3.197  1.00  0.00     0.102 A 
HETATM    2  C4  UNL     1      29.103  43.854   4.230  1.00  0.00     0.102 A 
HETATM    3  C5  UNL     1      28.264  44.954   4.084  1.00  0.00     0.090 A 
HETATM    4  C11 UNL     1      27.619  45.082   2.846  1.00  0.00     0.202 A 
HETATM    5  O5  UNL     1      27.795  44.225   1.895  1.00  0.00    -0.250 OA
HETATM    6  C12 UNL     1      28.574  43.193   2.018  1.00  0.00     0.305 A 
HETATM    7  O6  UNL     1      28.733  42.365   1.074  1.00  0.00    -0.259 OA
ENDROOT
BRANCH   3   8
HETATM    8  C6  UNL     1      28.012  45.966   5.106  1.00  0.00     0.131 C 
HETATM    9  N1  UNL     1      28.923  46.898   5.149  1.00  0.00    -0.294 N 
ATOM     10  H1  UNL     1      29.664  46.764   4.460  1.00  0.00     0.187 HD
BRANCH   9  11
HETATM   11  N2  UNL     1      29.098  47.995   5.903  1.00  0.00    -0.286 N 
ATOM     12  H2  UNL     1      28.621  48.853   5.627  1.00  0.00     0.188 HD
BRANCH  11  13
HETATM   13  C7  UNL     1      29.928  48.020   7.084  1.00  0.00     0.150 C 
HETATM   14  N3  UNL     1      29.346  48.230   8.354  1.00  0.00    -0.080 NA
HETATM   15  C8  UNL     1      31.208  47.850   6.963  1.00  0.00     0.062 C 
HETATM   16  C9  UNL     1      32.072  47.873   8.162  1.00  0.00     0.068 C 
HETATM   17  N4  UNL     1      31.803  47.639   5.697  1.00  0.00    -0.104 NA
ENDBRANCH  11  13
ENDBRANCH   9  11
BRANCH   8  18
HETATM   18  C10 UNL     1      26.946  46.064   6.024  1.00  0.00     0.283 C 
HETATM   19  N5  UNL     1      25.915  47.094   5.779  1.00  0.00    -0.056 NA
HETATM   20  O3  UNL     1      26.677  45.425   7.057  1.00  0.00    -0.269 OA
ENDBRANCH   8  18
ENDBRANCH   3   8
BRANCH   2  21
HETATM   21  O2  UNL     1      29.751  43.664   5.377  1.00  0.00    -0.358 OA
ATOM     22  H2  UNL     1      29.814  44.391   5.986  1.00  0.00     0.217 HD
ENDBRANCH   2  21
BRANCH   4  23
HETATM   23  O4  UNL     1      26.764  46.174   2.650  1.00  0.00    -0.340 OA
ATOM     24  H4  UNL     1      27.016  47.015   3.013  1.00  0.00     0.220 HD
ENDBRANCH   4  23
BRANCH   1  25
HETATM   25  C2  UNL     1      30.133  41.766   3.260  1.00  0.00     0.058 C 
HETATM   26  C1  UNL     1      31.316  41.371   2.523  1.00  0.00     0.077 C 
BRANCH  25  27
HETATM   27  O1  UNL     1      29.775  40.873   4.153  1.00  0.00    -0.364 OA
ATOM     28  H1  UNL     1      30.201  40.035   4.021  1.00  0.00     0.217 HD
ENDBRANCH  25  27
ENDBRANCH   1  25
TORSDOF 8
ENDMDL
MODEL 5
REMARK VINA RESULT: -7.809898911      3.326      6.312
REMARK  8 active torsions:
REMARK  status: ('A' for Active; 'I' for Inactive)
REMARK    1  A    between atoms: C2_2  and  O1_3 
REMARK    2  A    between atoms: C2_2  and  C3_5 
REMARK    3  A    between atoms: C4_6  and  O2_7 
REMARK    4  A    between atoms: C5_9  and  C6_10 
REMARK    5  A    between atoms: C6_10  and  C10_20 
REMARK    6  A    between atoms: N1_11  and  N2_13 
REMARK    7  A    between atoms: N2_13  and  C7_15 
REMARK    8  A    between atoms: C11_23  and  O4_24 
ROOT
HETATM    1  C3  UNL     1      31.062  47.818   8.656  1.00  0.00     0.102 A 
HETATM    2  C4  UNL     1      30.098  47.361   7.747  1.00  0.00     0.102 A 
HETATM    3  C5  UNL     1      29.054  46.529   8.140  1.00  0.00     0.090 A 
HETATM    4  C11 UNL     1      29.020  46.175   9.496  1.00  0.00     0.202 A 
HETATM    5  O5  UNL     1      29.908  46.599  10.332  1.00  0.00    -0.250 OA
HETATM    6  C12 UNL     1      30.888  47.375   9.980  1.00  0.00     0.305 A 
HETATM    7  O6  UNL     1      31.749  47.779  10.815  1.00  0.00    -0.259 OA
ENDROOT
BRANCH   3   8
HETATM    8  C6  UNL     1      28.012  46.008   7.260  1.00  0.00     0.131 C 
HETATM    9  N1  UNL     1      28.449  45.128   6.402  1.00  0.00    -0.294 N 
ATOM     10  H1  UNL     1      29.450  44.950   6.488  1.00  0.00     0.187 HD
BRANCH   9  11
HETATM   11  N2  UNL     1      27.868  44.406   5.432  1.00  0.00    -0.286 N 
ATOM     12  H2  UNL     1      27.261  43.632   5.701  1.00  0.00     0.188 HD
BRANCH  11  13
HETATM   13  C7  UNL     1      28.058  44.671   4.025  1.00  0.00     0.150 C 
HETATM   14  N3  UNL     1      27.012  45.236   3.263  1.00  0.00    -0.080 NA
HETATM   15  C8  UNL     1      29.197  44.384   3.474  1.00  0.00     0.062 C 
HETATM   16  C9  UNL     1      29.409  44.649   2.036  1.00  0.00     0.068 C 
HETATM   17  N4  UNL     1      30.253  43.818   4.227  1.00  0.00    -0.104 NA
ENDBRANCH  11  13
ENDBRANCH   9  11
BRANCH   8  18
HETATM   18  C10 UNL     1      26.638  46.323   7.217  1.00  0.00     0.283 C 
HETATM   19  N5  UNL     1      26.144  47.105   6.065  1.00  0.00    -0.056 NA
HETATM   20  O3  UNL     1      25.700  46.063   7.991  1.00  0.00    -0.269 OA
ENDBRANCH   8  18
ENDBRANCH   3   8
BRANCH   2  21
HETATM   21  O2  UNL     1      30.199  47.740   6.475  1.00  0.00    -0.358 OA
ATOM     22  H2  UNL     1      31.044  47.666   6.047  1.00  0.00     0.217 HD
ENDBRANCH   2  21
BRANCH   4  23
HETATM   23  O4  UNL     1      27.987  45.340   9.940  1.00  0.00    -0.340 OA
ATOM     24  H4  UNL     1      28.137  44.809  10.714  1.00  0.00     0.220 HD
ENDBRANCH   4  23
BRANCH   1  25
HETATM   25  C2  UNL     1      32.167  48.675   8.342  1.00  0.00     0.058 C 
HETATM   26  C1  UNL     1      32.308  50.116   8.290  1.00  0.00     0.077 C 
BRANCH  25  27
HETATM   27  O1  UNL     1      33.280  48.050   8.036  1.00  0.00    -0.364 OA
ATOM     28  H1  UNL     1      33.593  48.269   7.166  1.00  0.00     0.217 HD
ENDBRANCH  25  27
ENDBRANCH   1  25
TORSDOF 8
ENDMDL
