MODEL 1
REMARK VINA RESULT: -9.919374229      0.000      0.000
REMARK  8 active torsions:
REMARK  status: ('A' for Active; 'I' for Inactive)
REMARK    1  A    between atoms: C2_5  and  C3_6 
REMARK    2  A    between atoms: C3_6  and  C4_7 
REMARK    3  A    between atoms: C4_7  and  S1_8 
REMARK    4  A    between atoms: S1_8  and  C5_9 
REMARK    5  A    between atoms: C6_12  and  N4_13 
REMARK    6  A    between atoms: C9_22  and  C10_23 
REMARK    7  A    between atoms: C10_23  and  C11_24 
REMARK    8  A    between atoms: C15_31  and  N8_32 
ROOT
HETATM    1  C1  UNL     1      33.392  49.145   7.056  1.00  0.00     0.177 C 
HETATM    2  N1  UNL     1      32.266  48.644   7.844  1.00  0.00    -0.300 N 
HETATM    3  N2  UNL     1      31.525  47.607   7.612  1.00  0.00    -0.302 N 
ATOM      4  H2  UNL     1      31.643  46.981   6.815  1.00  0.00     0.186 HD
HETATM    5  C2  UNL     1      30.553  47.457   8.585  1.00  0.00     0.035 A 
HETATM    6  C7  UNL     1      30.781  48.525   9.450  1.00  0.00    -0.009 A 
HETATM    7  C8  UNL     1      31.842  49.258   8.985  1.00  0.00     0.041 A 
HETATM    8  C9  UNL     1      32.311  50.480   9.685  1.00  0.00     0.043 C 
HETATM    9  C17 UNL     1      31.007  51.162  10.118  1.00  0.00     0.011 C 
HETATM   10  C18 UNL     1      30.203  50.322  11.043  1.00  0.00     0.006 C 
HETATM   11  C19 UNL     1      30.117  48.881  10.733  1.00  0.00     0.043 C 
ENDROOT
BRANCH   8  12
HETATM   12  C10 UNL     1      33.210  50.148  10.820  1.00  0.00     0.068 C 
BRANCH  12  13
HETATM   13  C11 UNL     1      34.427  51.000  10.861  1.00  0.00     0.012 A 
HETATM   14  C12 UNL     1      34.812  51.816   9.793  1.00  0.00     0.046 A 
HETATM   15  C13 UNL     1      35.953  52.505  10.121  1.00  0.00     0.079 A 
HETATM   16  C14 UNL     1      36.779  53.425   9.499  1.00  0.00     0.273 A 
HETATM   17  C16 UNL     1      36.276  52.112  11.399  1.00  0.00     0.137 A 
HETATM   18  O1  UNL     1      36.479  53.786   8.322  1.00  0.00    -0.267 OA
HETATM   19  N7  UNL     1      37.859  53.910  10.143  1.00  0.00    -0.156 N 
HETATM   20  C15 UNL     1      38.171  53.523  11.393  1.00  0.00     0.680 A 
ATOM     21  H7  UNL     1      38.455  54.588   9.670  1.00  0.00     0.187 HD
HETATM   22  N9  UNL     1      37.366  52.625  11.999  1.00  0.00    -0.176 N 
ATOM     23  H9  UNL     1      37.592  52.324  12.947  1.00  0.00     0.186 HD
HETATM   24  N10 UNL     1      35.338  51.209  11.813  1.00  0.00    -0.345 N 
ATOM     25  H10 UNL     1      35.335  50.755  12.726  1.00  0.00     0.167 HD
BRANCH  20  26
HETATM   26  N8  UNL     1      39.207  53.973  12.038  1.00  0.00    -0.234 N 
ATOM     27  H82 UNL     1      39.847  54.607  11.559  1.00  0.00     0.174 HD
ATOM     28  H81 UNL     1      39.414  53.721  13.005  1.00  0.00     0.174 HD
ENDBRANCH  20  26
ENDBRANCH  12  13
ENDBRANCH   8  12
BRANCH   5  29
HETATM   29  C3  UNL     1      29.529  46.413   8.554  1.00  0.00     0.069 C 
BRANCH  29  30
HETATM   30  C4  UNL     1      29.367  45.578   9.770  1.00  0.00     0.088 C 
BRANCH  30  31
HETATM   31  S1  UNL     1      27.970  45.801  10.822  1.00  0.00    -0.092 SA
BRANCH  31  32
HETATM   32  C5  UNL     1      28.013  44.779  12.286  1.00  0.00     0.174 A 
HETATM   33  N3  UNL     1      28.150  45.263  13.540  1.00  0.00    -0.168 N 
HETATM   34  C6  UNL     1      28.132  44.225  14.379  1.00  0.00     0.692 A 
ATOM     35  H3  UNL     1      28.249  46.245  13.799  1.00  0.00     0.186 HD
HETATM   36  N5  UNL     1      27.987  43.081  13.679  1.00  0.00    -0.130 N 
HETATM   37  N6  UNL     1      27.917  43.448  12.411  1.00  0.00    -0.265 N 
ATOM     38  H5  UNL     1      27.940  42.132  14.050  1.00  0.00     0.205 HD
ATOM     39  H6  UNL     1      27.805  42.801  11.629  1.00  0.00     0.189 HD
BRANCH  34  40
HETATM   40  N4  UNL     1      28.232  44.261  15.677  1.00  0.00    -0.233 N 
ATOM     41  H42 UNL     1      29.072  44.570  16.166  1.00  0.00     0.174 HD
ATOM     42  H41 UNL     1      27.519  43.996  16.357  1.00  0.00     0.174 HD
ENDBRANCH  34  40
ENDBRANCH  31  32
ENDBRANCH  30  31
ENDBRANCH  29  30
ENDBRANCH   5  29
TORSDOF 8
ENDMDL
MODEL 2
REMARK VINA RESULT: -9.774614457      5.951      8.716
REMARK  8 active torsions:
REMARK  status: ('A' for Active; 'I' for Inactive)
REMARK    1  A    between atoms: C2_5  and  C3_6 
REMARK    2  A    between atoms: C3_6  and  C4_7 
REMARK    3  A    between atoms: C4_7  and  S1_8 
REMARK    4  A    between atoms: S1_8  and  C5_9 
REMARK    5  A    between atoms: C6_12  and  N4_13 
REMARK    6  A    between atoms: C9_22  and  C10_23 
REMARK    7  A    between atoms: C10_23  and  C11_24 
REMARK    8  A    between atoms: C15_31  and  N8_32 
ROOT
HETATM    1  C1  UNL     1      27.226  47.079   6.175  1.00  0.00     0.177 C 
HETATM    2  N1  UNL     1      27.880  47.207   7.476  1.00  0.00    -0.300 N 
HETATM    3  N2  UNL     1      27.365  47.037   8.652  1.00  0.00    -0.302 N 
ATOM      4  H2  UNL     1      26.393  46.777   8.823  1.00  0.00     0.186 HD
HETATM    5  C2  UNL     1      28.301  47.252   9.647  1.00  0.00     0.035 A 
HETATM    6  C7  UNL     1      29.462  47.574   8.948  1.00  0.00    -0.009 A 
HETATM    7  C8  UNL     1      29.195  47.547   7.603  1.00  0.00     0.041 A 
HETATM    8  C9  UNL     1      30.235  47.872   6.595  1.00  0.00     0.043 C 
HETATM    9  C17 UNL     1      30.984  49.051   7.230  1.00  0.00     0.011 C 
HETATM   10  C18 UNL     1      31.623  48.693   8.523  1.00  0.00     0.006 C 
HETATM   11  C19 UNL     1      30.839  47.844   9.442  1.00  0.00     0.043 C 
ENDROOT
BRANCH   8  12
HETATM   12  C10 UNL     1      31.105  46.703   6.310  1.00  0.00     0.068 C 
BRANCH  12  13
HETATM   13  C11 UNL     1      30.406  45.637   5.545  1.00  0.00     0.012 A 
HETATM   14  C12 UNL     1      30.108  45.756   4.185  1.00  0.00     0.046 A 
HETATM   15  C13 UNL     1      29.488  44.615   3.741  1.00  0.00     0.079 A 
HETATM   16  C14 UNL     1      28.974  44.159   2.540  1.00  0.00     0.273 A 
HETATM   17  C16 UNL     1      29.399  43.786   4.835  1.00  0.00     0.137 A 
HETATM   18  O1  UNL     1      29.056  44.925   1.534  1.00  0.00    -0.267 OA
HETATM   19  N7  UNL     1      28.410  42.938   2.465  1.00  0.00    -0.156 N 
HETATM   20  C15 UNL     1      28.325  42.130   3.537  1.00  0.00     0.680 A 
ATOM     21  H7  UNL     1      28.037  42.618   1.572  1.00  0.00     0.187 HD
HETATM   22  N9  UNL     1      28.826  42.575   4.708  1.00  0.00    -0.176 N 
ATOM     23  H9  UNL     1      28.768  41.971   5.528  1.00  0.00     0.186 HD
HETATM   24  N10 UNL     1      29.961  44.431   5.900  1.00  0.00    -0.345 N 
ATOM     25  H10 UNL     1      30.030  44.042   6.841  1.00  0.00     0.167 HD
BRANCH  20  26
HETATM   26  N8  UNL     1      27.785  40.947   3.494  1.00  0.00    -0.234 N 
ATOM     27  H82 UNL     1      27.804  40.429   2.615  1.00  0.00     0.174 HD
ATOM     28  H81 UNL     1      27.339  40.509   4.300  1.00  0.00     0.174 HD
ENDBRANCH  20  26
ENDBRANCH  12  13
ENDBRANCH   8  12
BRANCH   5  29
HETATM   29  C3  UNL     1      27.994  47.195  11.076  1.00  0.00     0.069 C 
BRANCH  29  30
HETATM   30  C4  UNL     1      27.282  45.992  11.576  1.00  0.00     0.088 C 
BRANCH  30  31
HETATM   31  S1  UNL     1      28.190  44.574  12.096  1.00  0.00    -0.092 SA
BRANCH  31  32
HETATM   32  C5  UNL     1      27.760  44.019  13.739  1.00  0.00     0.174 A 
HETATM   33  N3  UNL     1      26.778  43.129  14.000  1.00  0.00    -0.168 N 
HETATM   34  C6  UNL     1      26.742  42.942  15.322  1.00  0.00     0.692 A 
ATOM     35  H3  UNL     1      26.172  42.680  13.313  1.00  0.00     0.186 HD
HETATM   36  N5  UNL     1      27.689  43.702  15.911  1.00  0.00    -0.130 N 
HETATM   37  N6  UNL     1      28.291  44.345  14.925  1.00  0.00    -0.265 N 
ATOM     38  H5  UNL     1      27.896  43.766  16.907  1.00  0.00     0.205 HD
ATOM     39  H6  UNL     1      29.060  45.003  15.052  1.00  0.00     0.189 HD
BRANCH  34  40
HETATM   40  N4  UNL     1      25.940  42.157  15.984  1.00  0.00    -0.233 N 
ATOM     41  H42 UNL     1      25.012  41.894  15.652  1.00  0.00     0.174 HD
ATOM     42  H41 UNL     1      26.117  41.717  16.887  1.00  0.00     0.174 HD
ENDBRANCH  34  40
ENDBRANCH  31  32
ENDBRANCH  30  31
ENDBRANCH  29  30
ENDBRANCH   5  29
TORSDOF 8
ENDMDL
MODEL 3
REMARK VINA RESULT: -9.727448185      1.514      1.971
REMARK  8 active torsions:
REMARK  status: ('A' for Active; 'I' for Inactive)
REMARK    1  A    between atoms: C2_5  and  C3_6 
REMARK    2  A    between atoms: C3_6  and  C4_7 
REMARK    3  A    between atoms: C4_7  and  S1_8 
REMARK    4  A    between atoms: S1_8  and  C5_9 
REMARK    5  A    between atoms: C6_12  and  N4_13 
REMARK    6  A    between atoms: C9_22  and  C10_23 
REMARK    7  A    between atoms: C10_23  and  C11_24 
REMARK    8  A    between atoms: C15_31  and  N8_32 
ROOT
HETATM    1  C1  UNL     1      31.982  48.730   6.941  1.00  0.00     0.177 C 
HETATM    2  N1  UNL     1      31.303  48.168   8.108  1.00  0.00    -0.300 N 
HETATM    3  N2  UNL     1      30.741  47.007   8.225  1.00  0.00    -0.302 N 
ATOM      4  H2  UNL     1      30.704  46.308   7.482  1.00  0.00     0.186 HD
HETATM    5  C2  UNL     1      30.197  46.836   9.485  1.00  0.00     0.035 A 
HETATM    6  C7  UNL     1      30.491  48.030  10.138  1.00  0.00    -0.009 A 
HETATM    7  C8  UNL     1      31.174  48.853   9.280  1.00  0.00     0.041 A 
HETATM    8  C9  UNL     1      31.607  50.215   9.683  1.00  0.00     0.043 C 
HETATM    9  C17 UNL     1      30.417  50.735  10.499  1.00  0.00     0.011 C 
HETATM   10  C18 UNL     1      30.145  49.909  11.704  1.00  0.00     0.006 C 
HETATM   11  C19 UNL     1      30.239  48.445  11.545  1.00  0.00     0.043 C 
ENDROOT
BRANCH   8  12
HETATM   12  C10 UNL     1      32.879  50.179  10.449  1.00  0.00     0.068 C 
BRANCH  12  13
HETATM   13  C11 UNL     1      33.929  51.053   9.863  1.00  0.00     0.012 A 
HETATM   14  C12 UNL     1      34.728  51.897  10.639  1.00  0.00     0.046 A 
HETATM   15  C13 UNL     1      35.623  52.560   9.837  1.00  0.00     0.079 A 
HETATM   16  C14 UNL     1      36.629  53.492  10.020  1.00  0.00     0.273 A 
HETATM   17  C16 UNL     1      35.375  52.124   8.556  1.00  0.00     0.137 A 
HETATM   18  O1  UNL     1      36.856  53.891  11.200  1.00  0.00    -0.267 OA
HETATM   19  N7  UNL     1      37.333  53.945   8.964  1.00  0.00    -0.156 N 
HETATM   20  C15 UNL     1      37.086  53.516   7.712  1.00  0.00     0.680 A 
ATOM     21  H7  UNL     1      38.071  54.631   9.117  1.00  0.00     0.187 HD
HETATM   22  N9  UNL     1      36.105  52.608   7.534  1.00  0.00    -0.176 N 
ATOM     23  H9  UNL     1      35.909  52.275   6.591  1.00  0.00     0.186 HD
HETATM   24  N10 UNL     1      34.352  51.220   8.608  1.00  0.00    -0.345 N 
ATOM     25  H10 UNL     1      33.964  50.737   7.798  1.00  0.00     0.167 HD
BRANCH  20  26
HETATM   26  N8  UNL     1      37.749  53.937   6.675  1.00  0.00    -0.234 N 
ATOM     27  H82 UNL     1      37.231  54.246   5.852  1.00  0.00     0.174 HD
ATOM     28  H81 UNL     1      38.768  53.973   6.642  1.00  0.00     0.174 HD
ENDBRANCH  20  26
ENDBRANCH  12  13
ENDBRANCH   8  12
BRANCH   5  29
HETATM   29  C3  UNL     1      29.444  45.650   9.889  1.00  0.00     0.069 C 
BRANCH  29  30
HETATM   30  C4  UNL     1      27.973  45.789  10.031  1.00  0.00     0.088 C 
BRANCH  30  31
HETATM   31  S1  UNL     1      27.255  46.083  11.614  1.00  0.00    -0.092 SA
BRANCH  31  32
HETATM   32  C5  UNL     1      27.543  44.760  12.780  1.00  0.00     0.174 A 
HETATM   33  N3  UNL     1      27.196  44.816  14.084  1.00  0.00    -0.168 N 
HETATM   34  C6  UNL     1      27.550  43.659  14.647  1.00  0.00     0.692 A 
ATOM     35  H3  UNL     1      26.745  45.602  14.555  1.00  0.00     0.186 HD
HETATM   36  N5  UNL     1      28.119  42.861  13.721  1.00  0.00    -0.130 N 
HETATM   37  N6  UNL     1      28.102  43.556  12.596  1.00  0.00    -0.265 N 
ATOM     38  H5  UNL     1      28.486  41.920  13.859  1.00  0.00     0.205 HD
ATOM     39  H6  UNL     1      28.466  43.219  11.705  1.00  0.00     0.189 HD
BRANCH  34  40
HETATM   40  N4  UNL     1      27.387  43.308  15.891  1.00  0.00    -0.233 N 
ATOM     41  H42 UNL     1      26.876  43.871  16.571  1.00  0.00     0.174 HD
ATOM     42  H41 UNL     1      27.733  42.461  16.342  1.00  0.00     0.174 HD
ENDBRANCH  34  40
ENDBRANCH  31  32
ENDBRANCH  30  31
ENDBRANCH  29  30
ENDBRANCH   5  29
TORSDOF 8
ENDMDL
MODEL 4
REMARK VINA RESULT: -9.672771490      1.617      2.143
REMARK  8 active torsions:
REMARK  status: ('A' for Active; 'I' for Inactive)
REMARK    1  A    between atoms: C2_5  and  C3_6 
REMARK    2  A    between atoms: C3_6  and  C4_7 
REMARK    3  A    between atoms: C4_7  and  S1_8 
REMARK    4  A    between atoms: S1_8  and  C5_9 
REMARK    5  A    between atoms: C6_12  and  N4_13 
REMARK    6  A    between atoms: C9_22  and  C10_23 
REMARK    7  A    between atoms: C10_23  and  C11_24 
REMARK    8  A    between atoms: C15_31  and  N8_32 
ROOT
HETATM    1  C1  UNL     1      29.777  48.775   6.308  1.00  0.00     0.177 C 
HETATM    2  N1  UNL     1      29.336  48.304   7.620  1.00  0.00    -0.300 N 
HETATM    3  N2  UNL     1      28.464  47.385   7.889  1.00  0.00    -0.302 N 
ATOM      4  H2  UNL     1      27.957  46.849   7.185  1.00  0.00     0.186 HD
HETATM    5  C2  UNL     1      28.310  47.223   9.254  1.00  0.00     0.035 A 
HETATM    6  C7  UNL     1      29.192  48.151   9.801  1.00  0.00    -0.009 A 
HETATM    7  C8  UNL     1      29.824  48.821   8.784  1.00  0.00     0.041 A 
HETATM    8  C9  UNL     1      30.812  49.895   9.054  1.00  0.00     0.043 C 
HETATM    9  C17 UNL     1      30.194  50.653  10.236  1.00  0.00     0.011 C 
HETATM   10  C18 UNL     1      30.031  49.798  11.440  1.00  0.00     0.006 C 
HETATM   11  C19 UNL     1      29.547  48.421  11.221  1.00  0.00     0.043 C 
ENDROOT
BRANCH   8  12
HETATM   12  C10 UNL     1      32.158  49.340   9.345  1.00  0.00     0.068 C 
BRANCH  12  13
HETATM   13  C11 UNL     1      33.142  50.385   9.728  1.00  0.00     0.012 A 
HETATM   14  C12 UNL     1      34.033  50.954   8.814  1.00  0.00     0.046 A 
HETATM   15  C13 UNL     1      34.801  51.904   9.440  1.00  0.00     0.079 A 
HETATM   16  C14 UNL     1      35.816  52.770   9.073  1.00  0.00     0.273 A 
HETATM   17  C16 UNL     1      34.383  51.922  10.750  1.00  0.00     0.137 A 
HETATM   18  O1  UNL     1      36.199  52.752   7.866  1.00  0.00    -0.267 OA
HETATM   19  N7  UNL     1      36.364  53.596   9.985  1.00  0.00    -0.156 N 
HETATM   20  C15 UNL     1      35.953  53.610  11.266  1.00  0.00     0.680 A 
ATOM     21  H7  UNL     1      37.111  54.228   9.697  1.00  0.00     0.187 HD
HETATM   22  N9  UNL     1      34.963  52.766  11.624  1.00  0.00    -0.176 N 
ATOM     23  H9  UNL     1      34.642  52.767  12.591  1.00  0.00     0.186 HD
HETATM   24  N10 UNL     1      33.386  50.998  10.888  1.00  0.00    -0.345 N 
ATOM     25  H10 UNL     1      32.894  50.803  11.760  1.00  0.00     0.167 HD
BRANCH  20  26
HETATM   26  N8  UNL     1      36.464  54.396  12.167  1.00  0.00    -0.234 N 
ATOM     27  H82 UNL     1      37.416  54.741  12.037  1.00  0.00     0.174 HD
ATOM     28  H81 UNL     1      35.958  54.686  13.005  1.00  0.00     0.174 HD
ENDBRANCH  20  26
ENDBRANCH  12  13
ENDBRANCH   8  12
BRANCH   5  29
HETATM   29  C3  UNL     1      27.348  46.302   9.858  1.00  0.00     0.069 C 
BRANCH  29  30
HETATM   30  C4  UNL     1      27.449  46.067  11.320  1.00  0.00     0.088 C 
BRANCH  30  31
HETATM   31  S1  UNL     1      28.338  44.676  11.938  1.00  0.00    -0.092 SA
BRANCH  31  32
HETATM   32  C5  UNL     1      27.822  44.173  13.572  1.00  0.00     0.174 A 
HETATM   33  N3  UNL     1      26.919  43.197  13.811  1.00  0.00    -0.168 N 
HETATM   34  C6  UNL     1      26.784  43.085  15.134  1.00  0.00     0.692 A 
ATOM     35  H3  UNL     1      26.427  42.646  13.107  1.00  0.00     0.186 HD
HETATM   36  N5  UNL     1      27.590  43.977  15.748  1.00  0.00    -0.130 N 
HETATM   37  N6  UNL     1      28.207  44.624  14.774  1.00  0.00    -0.265 N 
ATOM     38  H5  UNL     1      27.699  44.121  16.751  1.00  0.00     0.205 HD
ATOM     39  H6  UNL     1      28.889  45.369  14.920  1.00  0.00     0.189 HD
BRANCH  34  40
HETATM   40  N4  UNL     1      26.013  42.256  15.779  1.00  0.00    -0.233 N 
ATOM     41  H42 UNL     1      25.023  42.432  15.954  1.00  0.00     0.174 HD
ATOM     42  H41 UNL     1      26.277  41.359  16.184  1.00  0.00     0.174 HD
ENDBRANCH  34  40
ENDBRANCH  31  32
ENDBRANCH  30  31
ENDBRANCH  29  30
ENDBRANCH   5  29
TORSDOF 8
ENDMDL
MODEL 5
REMARK VINA RESULT: -9.512857942      4.124      6.580
REMARK  8 active torsions:
REMARK  status: ('A' for Active; 'I' for Inactive)
REMARK    1  A    between atoms: C2_5  and  C3_6 
REMARK    2  A    between atoms: C3_6  and  C4_7 
REMARK    3  A    between atoms: C4_7  and  S1_8 
REMARK    4  A    between atoms: S1_8  and  C5_9 
REMARK    5  A    between atoms: C6_12  and  N4_13 
REMARK    6  A    between atoms: C9_22  and  C10_23 
REMARK    7  A    between atoms: C10_23  and  C11_24 
REMARK    8  A    between atoms: C15_31  and  N8_32 
ROOT
HETATM    1  C1  UNL     1      28.236  49.147   9.609  1.00  0.00     0.177 C 
HETATM    2  N1  UNL     1      28.606  48.561   8.322  1.00  0.00    -0.300 N 
HETATM    3  N2  UNL     1      27.837  47.978   7.457  1.00  0.00    -0.302 N 
ATOM      4  H2  UNL     1      26.831  47.854   7.572  1.00  0.00     0.186 HD
HETATM    5  C2  UNL     1      28.556  47.547   6.357  1.00  0.00     0.035 A 
HETATM    6  C7  UNL     1      29.864  47.933   6.641  1.00  0.00    -0.009 A 
HETATM    7  C8  UNL     1      29.889  48.559   7.861  1.00  0.00     0.041 A 
HETATM    8  C9  UNL     1      31.154  49.066   8.451  1.00  0.00     0.043 C 
HETATM    9  C17 UNL     1      32.169  47.970   8.102  1.00  0.00     0.011 C 
HETATM   10  C18 UNL     1      32.329  47.785   6.636  1.00  0.00     0.006 C 
HETATM   11  C19 UNL     1      31.100  47.822   5.821  1.00  0.00     0.043 C 
ENDROOT
BRANCH   8  12
HETATM   12  C10 UNL     1      31.513  50.401   7.909  1.00  0.00     0.068 C 
BRANCH  12  13
HETATM   13  C11 UNL     1      32.584  51.072   8.691  1.00  0.00     0.012 A 
HETATM   14  C12 UNL     1      33.808  51.445   8.128  1.00  0.00     0.046 A 
HETATM   15  C13 UNL     1      34.587  52.065   9.073  1.00  0.00     0.079 A 
HETATM   16  C14 UNL     1      35.849  52.630   9.114  1.00  0.00     0.273 A 
HETATM   17  C16 UNL     1      33.840  52.073  10.228  1.00  0.00     0.137 A 
HETATM   18  O1  UNL     1      36.535  52.621   8.049  1.00  0.00    -0.267 OA
HETATM   19  N7  UNL     1      36.313  53.167  10.259  1.00  0.00    -0.156 N 
HETATM   20  C15 UNL     1      35.580  53.173  11.387  1.00  0.00     0.680 A 
ATOM     21  H7  UNL     1      37.246  53.580  10.271  1.00  0.00     0.187 HD
HETATM   22  N9  UNL     1      34.349  52.622  11.347  1.00  0.00    -0.176 N 
ATOM     23  H9  UNL     1      33.783  52.621  12.195  1.00  0.00     0.186 HD
HETATM   24  N10 UNL     1      32.644  51.470   9.962  1.00  0.00    -0.345 N 
ATOM     25  H10 UNL     1      31.896  51.341  10.645  1.00  0.00     0.167 HD
BRANCH  20  26
HETATM   26  N8  UNL     1      36.003  53.683  12.506  1.00  0.00    -0.234 N 
ATOM     27  H82 UNL     1      36.612  53.124  13.104  1.00  0.00     0.174 HD
ATOM     28  H81 UNL     1      35.755  54.623  12.819  1.00  0.00     0.174 HD
ENDBRANCH  20  26
ENDBRANCH  12  13
ENDBRANCH   8  12
BRANCH   5  29
HETATM   29  C3  UNL     1      27.968  46.799   5.246  1.00  0.00     0.069 C 
BRANCH  29  30
HETATM   30  C4  UNL     1      28.169  45.328   5.228  1.00  0.00     0.088 C 
BRANCH  30  31
HETATM   31  S1  UNL     1      27.571  44.365   3.879  1.00  0.00    -0.092 SA
BRANCH  31  32
HETATM   32  C5  UNL     1      27.986  45.047   2.281  1.00  0.00     0.174 A 
HETATM   33  N3  UNL     1      29.113  44.741   1.601  1.00  0.00    -0.168 N 
HETATM   34  C6  UNL     1      29.090  45.421   0.453  1.00  0.00     0.692 A 
ATOM     35  H3  UNL     1      29.849  44.105   1.910  1.00  0.00     0.186 HD
HETATM   36  N5  UNL     1      27.963  46.159   0.387  1.00  0.00    -0.130 N 
HETATM   37  N6  UNL     1      27.312  45.912   1.511  1.00  0.00    -0.265 N 
ATOM     38  H5  UNL     1      27.673  46.777  -0.370  1.00  0.00     0.205 HD
ATOM     39  H6  UNL     1      26.413  46.327   1.760  1.00  0.00     0.189 HD
BRANCH  34  40
HETATM   40  N4  UNL     1      29.989  45.403  -0.490  1.00  0.00    -0.233 N 
ATOM     41  H42 UNL     1      30.518  44.568  -0.744  1.00  0.00     0.174 HD
ATOM     42  H41 UNL     1      30.281  46.184  -1.077  1.00  0.00     0.174 HD
ENDBRANCH  34  40
ENDBRANCH  31  32
ENDBRANCH  30  31
ENDBRANCH  29  30
ENDBRANCH   5  29
TORSDOF 8
ENDMDL
