MODEL 1
REMARK VINA RESULT: -9.432812428      0.000      0.000
REMARK  2 active torsions:
REMARK  status: ('A' for Active; 'I' for Inactive)
REMARK    1  A    between atoms: C6_6  and  O1_8 
REMARK    2  A    between atoms: C14_17  and  O2_18 
ROOT
HETATM    1  C1  UNL     1      -7.959   9.165 -18.989  1.00  0.00     0.015 C 
HETATM    2  C2  UNL     1      -7.141   9.751 -17.911  1.00  0.00    -0.048 C 
HETATM    3  C3  UNL     1      -7.788  11.137 -17.662  1.00  0.00     0.015 C 
HETATM    4  C4  UNL     1      -5.727  10.141 -18.370  1.00  0.00     0.012 C 
HETATM    5  C5  UNL     1      -5.029   9.029 -19.098  1.00  0.00     0.040 C 
HETATM    6  C6  UNL     1      -3.746   8.655 -18.459  1.00  0.00     0.071 C 
HETATM    7  C7  UNL     1      -2.617   9.066 -19.430  1.00  0.00     0.047 C 
HETATM    8  C8  UNL     1      -3.513   7.240 -18.144  1.00  0.00     0.116 C 
HETATM    9 CL1  UNL     1      -1.977   7.174 -17.222  1.00  0.00    -0.122 Cl
HETATM   10  C9  UNL     1      -4.598   6.465 -17.476  1.00  0.00     0.034 C 
HETATM   11  C10 UNL     1      -4.870   6.744 -16.074  1.00  0.00     0.062 C 
HETATM   12  C11 UNL     1      -4.517   5.702 -15.077  1.00  0.00     0.101 C 
HETATM   13  C12 UNL     1      -3.424   4.785 -15.276  1.00  0.00     0.050 C 
HETATM   14  C13 UNL     1      -4.263   6.443 -13.752  1.00  0.00     0.073 C 
HETATM   15  C14 UNL     1      -5.323   7.411 -13.408  1.00  0.00     0.124 C 
HETATM   16  C15 UNL     1      -6.477   7.503 -14.316  1.00  0.00     0.073 C 
HETATM   17  C16 UNL     1      -6.311   6.901 -15.671  1.00  0.00     0.105 C 
HETATM   18  C17 UNL     1      -7.234   7.569 -16.612  1.00  0.00     0.042 C 
HETATM   19  C18 UNL     1      -7.103   9.061 -16.614  1.00  0.00     0.012 C 
HETATM   20  O3  UNL     1      -6.653   5.533 -15.544  1.00  0.00    -0.228 OA
HETATM   21  O4  UNL     1      -5.710   4.978 -14.851  1.00  0.00    -0.229 OA
ENDROOT
BRANCH   6  22
HETATM   22  O1  UNL     1      -3.451   9.432 -17.311  1.00  0.00    -0.389 OA
ATOM     23  H1  UNL     1      -3.383   8.912 -16.519  1.00  0.00     0.210 HD
ENDBRANCH   6  22
BRANCH  15  24
HETATM   24  O2  UNL     1      -4.717   8.687 -13.297  1.00  0.00    -0.395 OA
ATOM     25  H2  UNL     1      -4.713   8.925 -12.377  1.00  0.00     0.210 HD
ENDBRANCH  15  24
TORSDOF 2
ENDMDL
MODEL 2
REMARK VINA RESULT: -7.054843251      2.056      4.861
REMARK  2 active torsions:
REMARK  status: ('A' for Active; 'I' for Inactive)
REMARK    1  A    between atoms: C6_6  and  O1_8 
REMARK    2  A    between atoms: C14_17  and  O2_18 
ROOT
HETATM    1  C1  UNL     1      -4.091   6.052 -12.995  1.00  0.00     0.015 C 
HETATM    2  C2  UNL     1      -4.790   5.448 -14.145  1.00  0.00    -0.048 C 
HETATM    3  C3  UNL     1      -4.900   3.949 -13.770  1.00  0.00     0.015 C 
HETATM    4  C4  UNL     1      -3.926   5.393 -15.415  1.00  0.00     0.012 C 
HETATM    5  C5  UNL     1      -3.293   6.714 -15.742  1.00  0.00     0.040 C 
HETATM    6  C6  UNL     1      -3.659   7.196 -17.094  1.00  0.00     0.071 C 
HETATM    7  C7  UNL     1      -2.377   7.154 -17.954  1.00  0.00     0.047 C 
HETATM    8  C8  UNL     1      -4.191   8.558 -17.226  1.00  0.00     0.116 C 
HETATM    9 CL1  UNL     1      -4.699   8.738 -18.935  1.00  0.00    -0.122 Cl
HETATM   10  C9  UNL     1      -5.250   9.010 -16.278  1.00  0.00     0.034 C 
HETATM   11  C10 UNL     1      -6.588   8.461 -16.440  1.00  0.00     0.062 C 
HETATM   12  C11 UNL     1      -7.660   9.368 -16.921  1.00  0.00     0.101 C 
HETATM   13  C12 UNL     1      -7.390  10.483 -17.794  1.00  0.00     0.050 C 
HETATM   14  C13 UNL     1      -8.700   8.475 -17.620  1.00  0.00     0.073 C 
HETATM   15  C14 UNL     1      -9.087   7.292 -16.826  1.00  0.00     0.124 C 
HETATM   16  C15 UNL     1      -8.494   7.151 -15.487  1.00  0.00     0.073 C 
HETATM   17  C16 UNL     1      -7.293   7.989 -15.197  1.00  0.00     0.105 C 
HETATM   18  C17 UNL     1      -6.492   7.335 -14.142  1.00  0.00     0.042 C 
HETATM   19  C18 UNL     1      -6.150   5.911 -14.452  1.00  0.00     0.012 C 
HETATM   20  O3  UNL     1      -7.779   9.236 -14.735  1.00  0.00    -0.228 OA
HETATM   21  O4  UNL     1      -8.317   9.826 -15.756  1.00  0.00    -0.229 OA
ENDROOT
BRANCH   6  22
HETATM   22  O1  UNL     1      -4.514   6.304 -17.787  1.00  0.00    -0.389 OA
ATOM     23  H1  UNL     1      -4.758   5.546 -17.270  1.00  0.00     0.210 HD
ENDBRANCH   6  22
BRANCH  15  24
HETATM   24  O2  UNL     1      -8.780   6.142 -17.593  1.00  0.00    -0.395 OA
ATOM     25  H2  UNL     1      -8.978   5.380 -17.061  1.00  0.00     0.210 HD
ENDBRANCH  15  24
TORSDOF 2
ENDMDL
MODEL 3
REMARK VINA RESULT: -6.513807951      1.366      1.632
REMARK  2 active torsions:
REMARK  status: ('A' for Active; 'I' for Inactive)
REMARK    1  A    between atoms: C6_6  and  O1_8 
REMARK    2  A    between atoms: C14_17  and  O2_18 
ROOT
HETATM    1  C1  UNL     1      -9.203   7.914 -18.001  1.00  0.00     0.015 C 
HETATM    2  C2  UNL     1      -8.439   8.736 -17.043  1.00  0.00    -0.048 C 
HETATM    3  C3  UNL     1      -9.521   9.596 -16.344  1.00  0.00     0.015 C 
HETATM    4  C4  UNL     1      -7.574   9.808 -17.724  1.00  0.00     0.012 C 
HETATM    5  C5  UNL     1      -6.723   9.249 -18.827  1.00  0.00     0.040 C 
HETATM    6  C6  UNL     1      -5.280   9.504 -18.610  1.00  0.00     0.071 C 
HETATM    7  C7  UNL     1      -4.824  10.497 -19.702  1.00  0.00     0.047 C 
HETATM    8  C8  UNL     1      -4.353   8.367 -18.685  1.00  0.00     0.116 C 
HETATM    9 CL1  UNL     1      -2.748   8.991 -18.190  1.00  0.00    -0.122 Cl
HETATM   10  C9  UNL     1      -4.707   7.106 -17.971  1.00  0.00     0.034 C 
HETATM   11  C10 UNL     1      -4.616   7.098 -16.519  1.00  0.00     0.062 C 
HETATM   12  C11 UNL     1      -3.541   6.288 -15.893  1.00  0.00     0.101 C 
HETATM   13  C12 UNL     1      -2.279   6.047 -16.546  1.00  0.00     0.050 C 
HETATM   14  C13 UNL     1      -3.241   6.944 -14.534  1.00  0.00     0.073 C 
HETATM   15  C14 UNL     1      -4.453   7.233 -13.741  1.00  0.00     0.124 C 
HETATM   16  C15 UNL     1      -5.746   6.819 -14.306  1.00  0.00     0.073 C 
HETATM   17  C16 UNL     1      -5.766   6.491 -15.762  1.00  0.00     0.105 C 
HETATM   18  C17 UNL     1      -7.134   6.693 -16.283  1.00  0.00     0.042 C 
HETATM   19  C18 UNL     1      -7.690   8.049 -15.981  1.00  0.00     0.012 C 
HETATM   20  O3  UNL     1      -5.402   5.126 -15.868  1.00  0.00    -0.228 OA
HETATM   21  O4  UNL     1      -4.145   5.053 -15.560  1.00  0.00    -0.229 OA
ENDROOT
BRANCH   6  22
HETATM   22  O1  UNL     1      -5.018  10.227 -17.420  1.00  0.00    -0.389 OA
ATOM     23  H1  UNL     1      -4.561   9.712 -16.765  1.00  0.00     0.210 HD
ENDBRANCH   6  22
BRANCH  15  24
HETATM   24  O2  UNL     1      -4.480   8.628 -13.493  1.00  0.00    -0.395 OA
ATOM     25  H2  UNL     1      -4.333   8.758 -12.563  1.00  0.00     0.210 HD
ENDBRANCH  15  24
TORSDOF 2
ENDMDL
MODEL 4
REMARK VINA RESULT: -6.334536416      2.342      4.697
REMARK  2 active torsions:
REMARK  status: ('A' for Active; 'I' for Inactive)
REMARK    1  A    between atoms: C6_6  and  O1_8 
REMARK    2  A    between atoms: C14_17  and  O2_18 
ROOT
HETATM    1  C1  UNL     1      -2.438   8.277 -19.274  1.00  0.00     0.015 C 
HETATM    2  C2  UNL     1      -2.898   9.271 -18.287  1.00  0.00    -0.048 C 
HETATM    3  C3  UNL     1      -1.863  10.418 -18.401  1.00  0.00     0.015 C 
HETATM    4  C4  UNL     1      -2.702   8.813 -16.833  1.00  0.00     0.012 C 
HETATM    5  C5  UNL     1      -3.251   7.438 -16.581  1.00  0.00     0.040 C 
HETATM    6  C6  UNL     1      -4.267   7.426 -15.503  1.00  0.00     0.071 C 
HETATM    7  C7  UNL     1      -3.660   6.647 -14.316  1.00  0.00     0.047 C 
HETATM    8  C8  UNL     1      -5.565   6.798 -15.778  1.00  0.00     0.116 C 
HETATM    9 CL1  UNL     1      -6.598   7.127 -14.351  1.00  0.00    -0.122 Cl
HETATM   10  C9  UNL     1      -6.261   7.119 -17.057  1.00  0.00     0.034 C 
HETATM   11  C10 UNL     1      -6.859   8.439 -17.193  1.00  0.00     0.062 C 
HETATM   12  C11 UNL     1      -8.340   8.533 -17.215  1.00  0.00     0.101 C 
HETATM   13  C12 UNL     1      -9.182   7.593 -16.518  1.00  0.00     0.050 C 
HETATM   14  C13 UNL     1      -8.691   9.940 -16.699  1.00  0.00     0.073 C 
HETATM   15  C14 UNL     1      -7.911  11.014 -17.344  1.00  0.00     0.124 C 
HETATM   16  C15 UNL     1      -6.970  10.624 -18.405  1.00  0.00     0.073 C 
HETATM   17  C16 UNL     1      -6.610   9.177 -18.481  1.00  0.00     0.105 C 
HETATM   18  C17 UNL     1      -5.287   9.042 -19.123  1.00  0.00     0.042 C 
HETATM   19  C18 UNL     1      -4.225   9.875 -18.476  1.00  0.00     0.012 C 
HETATM   20  O3  UNL     1      -7.604   8.561 -19.281  1.00  0.00    -0.228 OA
HETATM   21  O4  UNL     1      -8.695   8.563 -18.584  1.00  0.00    -0.229 OA
ENDROOT
BRANCH   6  22
HETATM   22  O1  UNL     1      -4.491   8.706 -14.938  1.00  0.00    -0.389 OA
ATOM     23  H1  UNL     1      -4.458   8.703 -13.988  1.00  0.00     0.210 HD
ENDBRANCH   6  22
BRANCH  15  24
HETATM   24  O2  UNL     1      -7.205  11.701 -16.326  1.00  0.00    -0.395 OA
ATOM     25  H2  UNL     1      -7.698  11.606 -15.520  1.00  0.00     0.210 HD
ENDBRANCH  15  24
TORSDOF 2
ENDMDL
MODEL 5
REMARK VINA RESULT: -5.885830770      5.044      8.397
REMARK  2 active torsions:
REMARK  status: ('A' for Active; 'I' for Inactive)
REMARK    1  A    between atoms: C6_6  and  O1_8 
REMARK    2  A    between atoms: C14_17  and  O2_18 
ROOT
HETATM    1  C1  UNL     1      -0.096   2.333 -11.838  1.00  0.00     0.015 C 
HETATM    2  C2  UNL     1      -1.224   1.624 -12.469  1.00  0.00    -0.048 C 
HETATM    3  C3  UNL     1      -0.565   0.388 -13.132  1.00  0.00     0.015 C 
HETATM    4  C4  UNL     1      -1.798   2.366 -13.686  1.00  0.00     0.012 C 
HETATM    5  C5  UNL     1      -2.101   3.807 -13.395  1.00  0.00     0.040 C 
HETATM    6  C6  UNL     1      -3.521   4.147 -13.647  1.00  0.00     0.071 C 
HETATM    7  C7  UNL     1      -3.551   5.105 -14.858  1.00  0.00     0.047 C 
HETATM    8  C8  UNL     1      -4.275   4.819 -12.581  1.00  0.00     0.116 C 
HETATM    9 CL1  UNL     1      -5.975   4.904 -13.141  1.00  0.00    -0.122 Cl
HETATM   10  C9  UNL     1      -4.171   4.293 -11.189  1.00  0.00     0.034 C 
HETATM   11  C10 UNL     1      -4.839   3.037 -10.884  1.00  0.00     0.062 C 
HETATM   12  C11 UNL     1      -6.029   3.078  -9.998  1.00  0.00     0.101 C 
HETATM   13  C12 UNL     1      -6.905   4.221  -9.938  1.00  0.00     0.050 C 
HETATM   14  C13 UNL     1      -6.886   1.856 -10.369  1.00  0.00     0.073 C 
HETATM   15  C14 UNL     1      -6.115   0.600 -10.449  1.00  0.00     0.124 C 
HETATM   16  C15 UNL     1      -4.683   0.662 -10.118  1.00  0.00     0.073 C 
HETATM   17  C16 UNL     1      -4.061   2.018 -10.097  1.00  0.00     0.105 C 
HETATM   18  C17 UNL     1      -2.612   1.887 -10.357  1.00  0.00     0.042 C 
HETATM   19  C18 UNL     1      -2.299   1.119 -11.603  1.00  0.00     0.012 C 
HETATM   20  O3  UNL     1      -4.276   2.535  -8.796  1.00  0.00    -0.228 OA
HETATM   21  O4  UNL     1      -5.543   2.786  -8.702  1.00  0.00    -0.229 OA
ENDROOT
BRANCH   6  22
HETATM   22  O1  UNL     1      -4.279   3.047 -14.117  1.00  0.00    -0.389 OA
ATOM     23  H1  UNL     1      -5.127   2.973 -13.695  1.00  0.00     0.210 HD
ENDBRANCH   6  22
BRANCH  15  24
HETATM   24  O2  UNL     1      -6.267   0.087 -11.761  1.00  0.00    -0.395 OA
ATOM     25  H2  UNL     1      -7.092   0.411 -12.103  1.00  0.00     0.210 HD
ENDBRANCH  15  24
TORSDOF 2
ENDMDL
