MODEL 1
REMARK VINA RESULT: -7.761206286      0.000      0.000
REMARK  1 active torsions:
REMARK  status: ('A' for Active; 'I' for Inactive)
REMARK    1  A    between atoms: O1_2  and  C2_3 
REMARK       I    between atoms: C2_3  and  N1_5 
ROOT
HETATM    1  C2  UNL     1      -0.783   9.883 -19.237  1.00  0.00     0.364 C 
HETATM    2  O2  UNL     1       0.093  10.166 -20.089  1.00  0.00    -0.238 OA
HETATM    3  N1  UNL     1      -2.142  10.084 -19.503  1.00  0.00    -0.298 N 
ATOM      4  H1  UNL     1      -2.390  10.904 -20.057  1.00  0.00     0.171 HD
HETATM    5  C3  UNL     1      -3.101   9.334 -19.113  1.00  0.00     0.079 C 
HETATM    6  S1  UNL     1      -3.022   7.839 -18.139  1.00  0.00    -0.071 SA
HETATM    7  C4  UNL     1      -4.736   7.965 -17.505  1.00  0.00     0.050 A 
HETATM    8  C5  UNL     1      -5.308   8.878 -18.287  1.00  0.00     0.028 A 
HETATM    9  S2  UNL     1      -6.890   8.968 -17.667  1.00  0.00    -0.084 SA
HETATM   10  C6  UNL     1      -6.771   7.804 -16.393  1.00  0.00     0.101 A 
HETATM   11  C7  UNL     1      -7.666   7.320 -15.433  1.00  0.00     0.267 A 
HETATM   12  O3  UNL     1      -8.812   7.808 -15.467  1.00  0.00    -0.267 OA
HETATM   13  N2  UNL     1      -7.268   6.391 -14.553  1.00  0.00    -0.299 N 
ATOM     14  H2  UNL     1      -7.893   6.015 -13.840  1.00  0.00     0.171 HD
HETATM   15  C8  UNL     1      -5.998   5.986 -14.671  1.00  0.00     0.179 A 
HETATM   16  S3  UNL     1      -5.518   4.840 -13.581  1.00  0.00    -0.040 SA
HETATM   17  N3  UNL     1      -5.134   6.431 -15.572  1.00  0.00    -0.331 N 
ATOM     18  H3  UNL     1      -4.187   6.054 -15.572  1.00  0.00     0.168 HD
HETATM   19  C9  UNL     1      -5.471   7.388 -16.512  1.00  0.00     0.075 A 
HETATM   20  C10 UNL     1      -4.527   9.489 -19.356  1.00  0.00     0.180 C 
HETATM   21 CL1  UNL     1      -4.969  11.204 -19.526  1.00  0.00    -0.112 Cl
ENDROOT
BRANCH   1  22
HETATM   22  O1  UNL     1      -0.369   9.363 -18.021  1.00  0.00    -0.309 OA
HETATM   23  C1  UNL     1       0.710   8.448 -17.998  1.00  0.00     0.215 C 
ENDBRANCH   1  22
TORSDOF 1
ENDMDL
MODEL 2
REMARK VINA RESULT: -7.465540470      3.424      6.571
REMARK  1 active torsions:
REMARK  status: ('A' for Active; 'I' for Inactive)
REMARK    1  A    between atoms: O1_2  and  C2_3 
REMARK       I    between atoms: C2_3  and  N1_5 
ROOT
HETATM    1  C2  UNL     1      -5.292   3.725 -12.994  1.00  0.00     0.364 C 
HETATM    2  O2  UNL     1      -5.618   3.122 -11.944  1.00  0.00    -0.238 OA
HETATM    3  N1  UNL     1      -6.156   4.647 -13.595  1.00  0.00    -0.298 N 
ATOM      4  H1  UNL     1      -7.154   4.441 -13.560  1.00  0.00     0.171 HD
HETATM    5  C3  UNL     1      -5.806   5.726 -14.185  1.00  0.00     0.079 C 
HETATM    6  S1  UNL     1      -4.163   6.383 -14.427  1.00  0.00    -0.071 SA
HETATM    7  C4  UNL     1      -4.600   7.387 -15.895  1.00  0.00     0.050 A 
HETATM    8  C5  UNL     1      -5.931   7.412 -15.890  1.00  0.00     0.028 A 
HETATM    9  S2  UNL     1      -6.296   8.346 -17.265  1.00  0.00    -0.084 SA
HETATM   10  C6  UNL     1      -4.694   8.686 -17.820  1.00  0.00     0.101 A 
HETATM   11  C7  UNL     1      -4.173   9.405 -18.902  1.00  0.00     0.267 A 
HETATM   12  O3  UNL     1      -5.014   9.932 -19.656  1.00  0.00    -0.267 OA
HETATM   13  N2  UNL     1      -2.847   9.492 -19.073  1.00  0.00    -0.299 N 
ATOM     14  H2  UNL     1      -2.432  10.007 -19.850  1.00  0.00     0.171 HD
HETATM   15  C8  UNL     1      -2.102   8.860 -18.159  1.00  0.00     0.179 A 
HETATM   16  S3  UNL     1      -0.467   8.973 -18.381  1.00  0.00    -0.040 SA
HETATM   17  N3  UNL     1      -2.574   8.174 -17.128  1.00  0.00    -0.331 N 
ATOM     18  H3  UNL     1      -1.913   7.729 -16.491  1.00  0.00     0.168 HD
HETATM   19  C9  UNL     1      -3.928   8.040 -16.885  1.00  0.00     0.075 A 
HETATM   20  C10 UNL     1      -6.651   6.722 -14.826  1.00  0.00     0.180 C 
HETATM   21 CL1  UNL     1      -8.134   5.985 -15.477  1.00  0.00    -0.112 Cl
ENDROOT
BRANCH   1  22
HETATM   22  O1  UNL     1      -4.051   3.453 -13.547  1.00  0.00    -0.309 OA
HETATM   23  C1  UNL     1      -2.980   3.106 -12.689  1.00  0.00     0.215 C 
ENDBRANCH   1  22
TORSDOF 1
ENDMDL
MODEL 3
REMARK VINA RESULT: -7.397683987      2.596      3.132
REMARK  1 active torsions:
REMARK  status: ('A' for Active; 'I' for Inactive)
REMARK    1  A    between atoms: O1_2  and  C2_3 
REMARK       I    between atoms: C2_3  and  N1_5 
ROOT
HETATM    1  C2  UNL     1      -3.948  10.780 -19.565  1.00  0.00     0.364 C 
HETATM    2  O2  UNL     1      -4.014  11.559 -20.546  1.00  0.00    -0.238 OA
HETATM    3  N1  UNL     1      -5.104  10.343 -18.909  1.00  0.00    -0.298 N 
ATOM      4  H1  UNL     1      -5.869  11.011 -18.823  1.00  0.00     0.171 HD
HETATM    5  C3  UNL     1      -5.287   9.181 -18.409  1.00  0.00     0.079 C 
HETATM    6  S1  UNL     1      -4.169   7.789 -18.382  1.00  0.00    -0.071 SA
HETATM    7  C4  UNL     1      -4.928   6.995 -16.917  1.00  0.00     0.050 A 
HETATM    8  C5  UNL     1      -6.094   7.621 -16.773  1.00  0.00     0.028 A 
HETATM    9  S2  UNL     1      -6.764   6.859 -15.406  1.00  0.00    -0.084 SA
HETATM   10  C6  UNL     1      -5.501   5.734 -15.050  1.00  0.00     0.101 A 
HETATM   11  C7  UNL     1      -5.320   4.756 -14.065  1.00  0.00     0.267 A 
HETATM   12  O3  UNL     1      -6.249   4.638 -13.243  1.00  0.00    -0.267 OA
HETATM   13  N2  UNL     1      -4.200   4.020 -14.049  1.00  0.00    -0.299 N 
ATOM     14  H2  UNL     1      -4.034   3.300 -13.346  1.00  0.00     0.171 HD
HETATM   15  C8  UNL     1      -3.314   4.291 -15.014  1.00  0.00     0.179 A 
HETATM   16  S3  UNL     1      -1.936   3.377 -14.983  1.00  0.00    -0.040 SA
HETATM   17  N3  UNL     1      -3.465   5.211 -15.955  1.00  0.00    -0.331 N 
ATOM     18  H3  UNL     1      -2.723   5.335 -16.644  1.00  0.00     0.168 HD
HETATM   19  C9  UNL     1      -4.591   6.008 -16.037  1.00  0.00     0.075 A 
HETATM   20  C10 UNL     1      -6.461   8.668 -17.718  1.00  0.00     0.180 C 
HETATM   21 CL1  UNL     1      -7.331   9.969 -16.874  1.00  0.00    -0.112 Cl
ENDROOT
BRANCH   1  22
HETATM   22  O1  UNL     1      -2.695  10.362 -19.146  1.00  0.00    -0.309 OA
HETATM   23  C1  UNL     1      -1.678  10.167 -20.111  1.00  0.00     0.215 C 
ENDBRANCH   1  22
TORSDOF 1
ENDMDL
MODEL 4
REMARK VINA RESULT: -7.245149245      2.936      6.295
REMARK  1 active torsions:
REMARK  status: ('A' for Active; 'I' for Inactive)
REMARK    1  A    between atoms: O1_2  and  C2_3 
REMARK       I    between atoms: C2_3  and  N1_5 
ROOT
HETATM    1  C2  UNL     1      -5.022   4.697 -14.734  1.00  0.00     0.364 C 
HETATM    2  O2  UNL     1      -5.340   4.027 -13.723  1.00  0.00    -0.238 OA
HETATM    3  N1  UNL     1      -5.789   5.792 -15.147  1.00  0.00    -0.298 N 
ATOM      4  H1  UNL     1      -6.800   5.721 -15.030  1.00  0.00     0.171 HD
HETATM    5  C3  UNL     1      -5.337   6.874 -15.656  1.00  0.00     0.079 C 
HETATM    6  S1  UNL     1      -3.642   7.324 -15.996  1.00  0.00    -0.071 SA
HETATM    7  C4  UNL     1      -4.053   8.540 -17.302  1.00  0.00     0.050 A 
HETATM    8  C5  UNL     1      -5.361   8.746 -17.158  1.00  0.00     0.028 A 
HETATM    9  S2  UNL     1      -5.702   9.874 -18.386  1.00  0.00    -0.084 SA
HETATM   10  C6  UNL     1      -4.122  10.054 -19.064  1.00  0.00     0.101 A 
HETATM   11  C7  UNL     1      -3.598  10.815 -20.115  1.00  0.00     0.267 A 
HETATM   12  O3  UNL     1      -4.413  11.535 -20.722  1.00  0.00    -0.267 OA
HETATM   13  N2  UNL     1      -2.292  10.739 -20.411  1.00  0.00    -0.299 N 
ATOM     14  H2  UNL     1      -1.876  11.279 -21.170  1.00  0.00     0.171 HD
HETATM   15  C8  UNL     1      -1.572   9.910 -19.648  1.00  0.00     0.179 A 
HETATM   16  S3  UNL     1       0.036   9.824 -20.023  1.00  0.00    -0.040 SA
HETATM   17  N3  UNL     1      -2.048   9.181 -18.649  1.00  0.00    -0.331 N 
ATOM     18  H3  UNL     1      -1.408   8.579 -18.132  1.00  0.00     0.168 HD
HETATM   19  C9  UNL     1      -3.381   9.206 -18.284  1.00  0.00     0.075 A 
HETATM   20  C10 UNL     1      -6.079   8.043 -16.102  1.00  0.00     0.180 C 
HETATM   21 CL1  UNL     1      -7.705   7.596 -16.669  1.00  0.00    -0.112 Cl
ENDROOT
BRANCH   1  22
HETATM   22  O1  UNL     1      -3.887   4.323 -15.436  1.00  0.00    -0.309 OA
HETATM   23  C1  UNL     1      -2.782   3.799 -14.724  1.00  0.00     0.215 C 
ENDBRANCH   1  22
TORSDOF 1
ENDMDL
MODEL 5
REMARK VINA RESULT: -7.197071432      3.885      6.038
REMARK  1 active torsions:
REMARK  status: ('A' for Active; 'I' for Inactive)
REMARK    1  A    between atoms: O1_2  and  C2_3 
REMARK       I    between atoms: C2_3  and  N1_5 
ROOT
HETATM    1  C2  UNL     1      -8.565   9.466 -16.086  1.00  0.00     0.364 C 
HETATM    2  O2  UNL     1      -9.166  10.562 -16.188  1.00  0.00    -0.238 OA
HETATM    3  N1  UNL     1      -7.245   9.322 -16.527  1.00  0.00    -0.298 N 
ATOM      4  H1  UNL     1      -6.977   9.835 -17.367  1.00  0.00     0.171 HD
HETATM    5  C3  UNL     1      -6.344   8.605 -15.972  1.00  0.00     0.079 C 
HETATM    6  S1  UNL     1      -6.470   7.590 -14.508  1.00  0.00    -0.071 SA
HETATM    7  C4  UNL     1      -5.086   6.478 -14.957  1.00  0.00     0.050 A 
HETATM    8  C5  UNL     1      -4.460   7.117 -15.943  1.00  0.00     0.028 A 
HETATM    9  S2  UNL     1      -3.188   6.055 -16.332  1.00  0.00    -0.084 SA
HETATM   10  C6  UNL     1      -3.502   4.793 -15.192  1.00  0.00     0.101 A 
HETATM   11  C7  UNL     1      -2.883   3.573 -14.899  1.00  0.00     0.267 A 
HETATM   12  O3  UNL     1      -1.882   3.295 -15.587  1.00  0.00    -0.267 OA
HETATM   13  N2  UNL     1      -3.374   2.788 -13.930  1.00  0.00    -0.299 N 
ATOM     14  H2  UNL     1      -2.949   1.892 -13.690  1.00  0.00     0.171 HD
HETATM   15  C8  UNL     1      -4.457   3.254 -13.299  1.00  0.00     0.179 A 
HETATM   16  S3  UNL     1      -5.054   2.277 -12.107  1.00  0.00    -0.040 SA
HETATM   17  N3  UNL     1      -5.059   4.405 -13.560  1.00  0.00    -0.331 N 
ATOM     18  H3  UNL     1      -5.882   4.664 -13.017  1.00  0.00     0.168 HD
HETATM   19  C9  UNL     1      -4.611   5.268 -14.543  1.00  0.00     0.075 A 
HETATM   20  C10 UNL     1      -4.960   8.415 -16.380  1.00  0.00     0.180 C 
HETATM   21 CL1  UNL     1      -4.780   8.572 -18.143  1.00  0.00    -0.112 Cl
ENDROOT
BRANCH   1  22
HETATM   22  O1  UNL     1      -9.244   8.397 -15.524  1.00  0.00    -0.309 OA
HETATM   23  C1  UNL     1     -10.659   8.419 -15.501  1.00  0.00     0.215 C 
ENDBRANCH   1  22
TORSDOF 1
ENDMDL
