MODEL 1
REMARK VINA RESULT: -6.703614022      0.000      0.000
REMARK  3 active torsions:
REMARK  status: ('A' for Active; 'I' for Inactive)
REMARK    1  A    between atoms: C2_2  and  C3_8 
REMARK    2  A    between atoms: N1_3  and  N2_5 
REMARK    3  A    between atoms: C9_16  and  C10_17 
ROOT
HETATM    1  C3  UNL     1      10.398  10.533   2.370  1.00  0.00     0.082 C 
HETATM    2  C4  UNL     1      11.893  10.791   2.476  1.00  0.00     0.130 C 
HETATM    3  C5  UNL     1      12.679   9.669   2.961  1.00  0.00     0.232 C 
HETATM    4  O1  UNL     1      12.358   8.993   3.998  1.00  0.00    -0.272 OA
HETATM    5  N3  UNL     1      13.865   9.246   2.312  1.00  0.00    -0.325 N 
HETATM    6  C6  UNL     1      14.735   8.259   2.913  1.00  0.00     0.159 C 
HETATM    7  C7  UNL     1      14.204   9.814   1.030  1.00  0.00     0.026 C 
HETATM    8  C8  UNL     1      15.457   9.324   0.409  1.00  0.00     0.069 C 
HETATM    9  C9  UNL     1      13.433  10.696   0.487  1.00  0.00     0.075 C 
HETATM   10  C11 UNL     1      12.173  11.221   1.090  1.00  0.00     0.107 C 
HETATM   11  C12 UNL     1      12.255  12.744   1.060  1.00  0.00     0.053 C 
HETATM   12  O4  UNL     1      11.099  10.884   0.274  1.00  0.00    -0.363 OA
HETATM   13  C13 UNL     1      10.299   9.995   1.010  1.00  0.00     0.065 C 
HETATM   14  C14 UNL     1       8.872  10.202   0.502  1.00  0.00     0.046 C 
HETATM   15  C15 UNL     1      10.719   8.627   0.696  1.00  0.00     0.046 C 
ENDROOT
BRANCH   1  16
HETATM   16  C2  UNL     1       9.762   9.926   3.491  1.00  0.00     0.007 C 
HETATM   17  C1  UNL     1       9.373  10.812   4.632  1.00  0.00     0.065 C 
HETATM   18  N1  UNL     1       9.492   8.692   3.592  1.00  0.00    -0.315 N 
ATOM     19  H1  UNL     1       9.746   8.065   2.829  1.00  0.00     0.185 HD
BRANCH  18  20
HETATM   20  N2  UNL     1       8.851   8.161   4.735  1.00  0.00    -0.345 N 
ATOM     21  H22 UNL     1       9.400   8.051   5.587  1.00  0.00     0.176 HD
ATOM     22  H21 UNL     1       7.868   7.891   4.721  1.00  0.00     0.176 HD
ENDBRANCH  18  20
ENDBRANCH   1  16
BRANCH   9  23
HETATM   23  C10 UNL     1      13.760  11.281  -0.814  1.00  0.00     0.210 C 
HETATM   24  O2  UNL     1      13.370  10.726  -1.909  1.00  0.00    -0.644 OA
HETATM   25  O3  UNL     1      14.489  12.440  -0.977  1.00  0.00    -0.644 OA
ENDBRANCH   9  23
TORSDOF 3
ENDMDL
MODEL 2
REMARK VINA RESULT: -6.070998065      2.763      4.640
REMARK  3 active torsions:
REMARK  status: ('A' for Active; 'I' for Inactive)
REMARK    1  A    between atoms: C2_2  and  C3_8 
REMARK    2  A    between atoms: N1_3  and  N2_5 
REMARK    3  A    between atoms: C9_16  and  C10_17 
ROOT
HETATM    1  C3  UNL     1       7.913   8.929   3.511  1.00  0.00     0.082 C 
HETATM    2  C4  UNL     1       8.813   8.647   2.318  1.00  0.00     0.130 C 
HETATM    3  C5  UNL     1       8.915   9.730   1.354  1.00  0.00     0.232 C 
HETATM    4  O1  UNL     1       7.894  10.348   0.894  1.00  0.00    -0.272 OA
HETATM    5  N3  UNL     1      10.162  10.176   0.853  1.00  0.00    -0.325 N 
HETATM    6  C6  UNL     1      10.235  11.116  -0.244  1.00  0.00     0.159 C 
HETATM    7  C7  UNL     1      11.377   9.681   1.453  1.00  0.00     0.026 C 
HETATM    8  C8  UNL     1      12.644  10.191   0.881  1.00  0.00     0.069 C 
HETATM    9  C9  UNL     1      11.321   8.840   2.433  1.00  0.00     0.075 C 
HETATM   10  C11 UNL     1      10.063   8.296   3.024  1.00  0.00     0.107 C 
HETATM   11  C12 UNL     1      10.195   6.777   3.053  1.00  0.00     0.053 C 
HETATM   12  O4  UNL     1       9.973   8.692   4.354  1.00  0.00    -0.363 OA
HETATM   13  C13 UNL     1       8.861   9.547   4.443  1.00  0.00     0.065 C 
HETATM   14  C14 UNL     1       8.327   9.387   5.867  1.00  0.00     0.046 C 
HETATM   15  C15 UNL     1       9.322  10.925   4.263  1.00  0.00     0.046 C 
ENDROOT
BRANCH   1  16
HETATM   16  C2  UNL     1       6.626   9.477   3.240  1.00  0.00     0.007 C 
HETATM   17  C1  UNL     1       6.128  10.559   4.144  1.00  0.00     0.065 C 
HETATM   18  N1  UNL     1       5.873   9.122   2.284  1.00  0.00    -0.315 N 
ATOM     19  H1  UNL     1       6.189   8.386   1.651  1.00  0.00     0.185 HD
BRANCH  18  20
HETATM   20  N2  UNL     1       4.609   9.718   2.071  1.00  0.00    -0.345 N 
ATOM     21  H22 UNL     1       3.781   9.213   2.386  1.00  0.00     0.176 HD
ATOM     22  H21 UNL     1       4.513  10.625   1.616  1.00  0.00     0.176 HD
ENDBRANCH  18  20
ENDBRANCH   1  16
BRANCH   9  23
HETATM   23  C10 UNL     1      12.542   8.328   3.055  1.00  0.00     0.210 C 
HETATM   24  O2  UNL     1      13.312   9.101   3.741  1.00  0.00    -0.644 OA
HETATM   25  O3  UNL     1      12.963   7.019   2.965  1.00  0.00    -0.644 OA
ENDBRANCH   9  23
TORSDOF 3
ENDMDL
MODEL 3
REMARK VINA RESULT: -6.027253597      2.554      5.829
REMARK  3 active torsions:
REMARK  status: ('A' for Active; 'I' for Inactive)
REMARK    1  A    between atoms: C2_2  and  C3_8 
REMARK    2  A    between atoms: N1_3  and  N2_5 
REMARK    3  A    between atoms: C9_16  and  C10_17 
ROOT
HETATM    1  C3  UNL     1      11.595   8.977   2.899  1.00  0.00     0.082 C 
HETATM    2  C4  UNL     1      10.619  10.096   2.569  1.00  0.00     0.130 C 
HETATM    3  C5  UNL     1      10.166  10.132   1.189  1.00  0.00     0.232 C 
HETATM    4  O1  UNL     1      10.966  10.049   0.193  1.00  0.00    -0.272 OA
HETATM    5  N3  UNL     1       8.797  10.263   0.849  1.00  0.00    -0.325 N 
HETATM    6  C6  UNL     1       8.384  10.491  -0.517  1.00  0.00     0.159 C 
HETATM    7  C7  UNL     1       7.804  10.166   1.891  1.00  0.00     0.026 C 
HETATM    8  C8  UNL     1       6.393  10.311   1.464  1.00  0.00     0.069 C 
HETATM    9  C9  UNL     1       8.165   9.963   3.114  1.00  0.00     0.075 C 
HETATM   10  C11 UNL     1       9.576   9.825   3.581  1.00  0.00     0.107 C 
HETATM   11  C12 UNL     1       9.765  10.792   4.745  1.00  0.00     0.053 C 
HETATM   12  O4  UNL     1       9.762   8.554   4.111  1.00  0.00    -0.363 OA
HETATM   13  C13 UNL     1      10.675   7.897   3.269  1.00  0.00     0.065 C 
HETATM   14  C14 UNL     1      11.418   6.901   4.158  1.00  0.00     0.046 C 
HETATM   15  C15 UNL     1       9.919   7.156   2.257  1.00  0.00     0.046 C 
ENDROOT
BRANCH   1  16
HETATM   16  C2  UNL     1      12.692   8.788   2.009  1.00  0.00     0.007 C 
HETATM   17  C1  UNL     1      13.629   9.937   1.811  1.00  0.00     0.065 C 
HETATM   18  N1  UNL     1      12.939   7.717   1.379  1.00  0.00    -0.315 N 
ATOM     19  H1  UNL     1      12.317   6.917   1.497  1.00  0.00     0.185 HD
BRANCH  18  20
HETATM   20  N2  UNL     1      14.054   7.600   0.518  1.00  0.00    -0.345 N 
ATOM     21  H22 UNL     1      14.488   8.457   0.174  1.00  0.00     0.176 HD
ATOM     22  H21 UNL     1      14.424   6.692   0.239  1.00  0.00     0.176 HD
ENDBRANCH  18  20
ENDBRANCH   1  16
BRANCH   9  23
HETATM   23  C10 UNL     1       7.171   9.860   4.184  1.00  0.00     0.210 C 
HETATM   24  O2  UNL     1       6.881   8.721   4.713  1.00  0.00    -0.644 OA
HETATM   25  O3  UNL     1       6.482  10.935   4.702  1.00  0.00    -0.644 OA
ENDBRANCH   9  23
TORSDOF 3
ENDMDL
MODEL 4
REMARK VINA RESULT: -5.884192508      3.377      6.399
REMARK  3 active torsions:
REMARK  status: ('A' for Active; 'I' for Inactive)
REMARK    1  A    between atoms: C2_2  and  C3_8 
REMARK    2  A    between atoms: N1_3  and  N2_5 
REMARK    3  A    between atoms: C9_16  and  C10_17 
ROOT
HETATM    1  C3  UNL     1      16.218  10.471  -1.546  1.00  0.00     0.082 C 
HETATM    2  C4  UNL     1      15.799  10.452  -0.084  1.00  0.00     0.130 C 
HETATM    3  C5  UNL     1      14.380  10.244   0.148  1.00  0.00     0.232 C 
HETATM    4  O1  UNL     1      13.471  10.894  -0.477  1.00  0.00    -0.272 OA
HETATM    5  N3  UNL     1      13.902   9.300   1.089  1.00  0.00    -0.325 N 
HETATM    6  C6  UNL     1      12.502   9.242   1.446  1.00  0.00     0.159 C 
HETATM    7  C7  UNL     1      14.834   8.382   1.698  1.00  0.00     0.026 C 
HETATM    8  C8  UNL     1      14.265   7.422   2.671  1.00  0.00     0.069 C 
HETATM    9  C9  UNL     1      16.087   8.428   1.385  1.00  0.00     0.075 C 
HETATM   10  C11 UNL     1      16.695   9.389   0.420  1.00  0.00     0.107 C 
HETATM   11  C12 UNL     1      17.882  10.045   1.119  1.00  0.00     0.053 C 
HETATM   12  O4  UNL     1      17.230   8.686  -0.653  1.00  0.00    -0.363 OA
HETATM   13  C13 UNL     1      16.481   9.049  -1.785  1.00  0.00     0.065 C 
HETATM   14  C14 UNL     1      17.434   8.918  -2.973  1.00  0.00     0.046 C 
HETATM   15  C15 UNL     1      15.390   8.086  -1.945  1.00  0.00     0.046 C 
ENDROOT
BRANCH   1  16
HETATM   16  C2  UNL     1      15.445  11.275  -2.433  1.00  0.00     0.007 C 
HETATM   17  C1  UNL     1      15.346  12.737  -2.136  1.00  0.00     0.065 C 
HETATM   18  N1  UNL     1      14.840  10.846  -3.461  1.00  0.00    -0.315 N 
ATOM     19  H1  UNL     1      14.892   9.853  -3.688  1.00  0.00     0.185 HD
BRANCH  18  20
HETATM   20  N2  UNL     1      14.098  11.706  -4.301  1.00  0.00    -0.345 N 
ATOM     21  H22 UNL     1      13.654  12.524  -3.881  1.00  0.00     0.176 HD
ATOM     22  H21 UNL     1      13.998  11.527  -5.300  1.00  0.00     0.176 HD
ENDBRANCH  18  20
ENDBRANCH   1  16
BRANCH   9  23
HETATM   23  C10 UNL     1      17.046   7.504   1.991  1.00  0.00     0.210 C 
HETATM   24  O2  UNL     1      17.612   6.582   1.292  1.00  0.00    -0.644 OA
HETATM   25  O3  UNL     1      17.418   7.539   3.318  1.00  0.00    -0.644 OA
ENDBRANCH   9  23
TORSDOF 3
ENDMDL
MODEL 5
REMARK VINA RESULT: -5.577153028      3.994      6.068
REMARK  3 active torsions:
REMARK  status: ('A' for Active; 'I' for Inactive)
REMARK    1  A    between atoms: C2_2  and  C3_8 
REMARK    2  A    between atoms: N1_3  and  N2_5 
REMARK    3  A    between atoms: C9_16  and  C10_17 
ROOT
HETATM    1  C3  UNL     1      16.600   8.237   0.676  1.00  0.00     0.082 C 
HETATM    2  C4  UNL     1      15.432   8.551  -0.245  1.00  0.00     0.130 C 
HETATM    3  C5  UNL     1      14.664   9.731   0.113  1.00  0.00     0.232 C 
HETATM    4  O1  UNL     1      14.252   9.956   1.304  1.00  0.00    -0.272 OA
HETATM    5  N3  UNL     1      14.316  10.720  -0.838  1.00  0.00    -0.325 N 
HETATM    6  C6  UNL     1      13.393  11.784  -0.509  1.00  0.00     0.159 C 
HETATM    7  C7  UNL     1      14.897  10.661  -2.157  1.00  0.00     0.026 C 
HETATM    8  C8  UNL     1      14.490  11.728  -3.100  1.00  0.00     0.069 C 
HETATM    9  C9  UNL     1      15.722   9.713  -2.460  1.00  0.00     0.075 C 
HETATM   10  C11 UNL     1      16.143   8.617  -1.540  1.00  0.00     0.107 C 
HETATM   11  C12 UNL     1      15.932   7.299  -2.278  1.00  0.00     0.053 C 
HETATM   12  O4  UNL     1      17.512   8.707  -1.313  1.00  0.00    -0.363 OA
HETATM   13  C13 UNL     1      17.674   9.013   0.049  1.00  0.00     0.065 C 
HETATM   14  C14 UNL     1      19.019   8.409   0.453  1.00  0.00     0.046 C 
HETATM   15  C15 UNL     1      17.747  10.469   0.190  1.00  0.00     0.046 C 
ENDROOT
BRANCH   1  16
HETATM   16  C2  UNL     1      16.346   8.258   2.078  1.00  0.00     0.007 C 
HETATM   17  C1  UNL     1      15.686   7.060   2.682  1.00  0.00     0.065 C 
HETATM   18  N1  UNL     1      16.646   9.214   2.855  1.00  0.00    -0.315 N 
ATOM     19  H1  UNL     1      17.098  10.043   2.470  1.00  0.00     0.185 HD
BRANCH  18  20
HETATM   20  N2  UNL     1      16.370   9.161   4.240  1.00  0.00    -0.345 N 
ATOM     21  H22 UNL     1      17.106   8.831   4.865  1.00  0.00     0.176 HD
ATOM     22  H21 UNL     1      15.466   9.442   4.619  1.00  0.00     0.176 HD
ENDBRANCH  18  20
ENDBRANCH   1  16
BRANCH   9  23
HETATM   23  C10 UNL     1      16.323   9.638  -3.792  1.00  0.00     0.210 C 
HETATM   24  O2  UNL     1      17.541  10.006  -3.993  1.00  0.00    -0.644 OA
HETATM   25  O3  UNL     1      15.662   9.179  -4.911  1.00  0.00    -0.644 OA
ENDBRANCH   9  23
TORSDOF 3
ENDMDL
