MODEL 1
REMARK VINA RESULT: -9.065258476      0.000      0.000
REMARK  7 active torsions:
REMARK  status: ('A' for Active; 'I' for Inactive)
REMARK    1  A    between atoms: C1_2  and  C2_3 
REMARK       I    between atoms: C1_2  and  N3_22 
REMARK    2  A    between atoms: C2_3  and  C3_4 
REMARK    3  A    between atoms: C3_4  and  C4_5 
REMARK    4  A    between atoms: C5_10  and  C6_11 
REMARK    5  A    between atoms: N3_22  and  C16_24 
REMARK    6  A    between atoms: C16_24  and  C17_25 
REMARK    7  A    between atoms: C17_25  and  N4_26 
ROOT
HETATM    1  C4  UNL     1     -79.971 -64.839  54.117  1.00  0.00     0.140 A 
HETATM    2  N1  UNL     1     -80.287 -64.475  55.344  1.00  0.00    -0.281 N 
ATOM      3  H1  UNL     1     -81.178 -64.071  55.635  1.00  0.00     0.189 HD
HETATM    4  N2  UNL     1     -79.228 -64.726  56.157  1.00  0.00    -0.281 N 
ATOM      5  H2  UNL     1     -79.186 -64.546  57.160  1.00  0.00     0.189 HD
HETATM    6  C5  UNL     1     -78.279 -65.237  55.430  1.00  0.00     0.149 A 
HETATM    7  O2  UNL     1     -78.727 -65.307  54.189  1.00  0.00    -0.281 OA
ENDROOT
BRANCH   1   8
HETATM    8  C3  UNL     1     -80.662 -64.833  52.816  1.00  0.00     0.095 C 
BRANCH   8   9
HETATM    9  C2  UNL     1     -79.859 -65.686  51.839  1.00  0.00     0.111 C 
BRANCH   9  10
HETATM   10  C1  UNL     1     -79.273 -64.809  50.782  1.00  0.00     0.217 C 
HETATM   11  O1  UNL     1     -78.024 -64.487  50.882  1.00  0.00    -0.274 OA
HETATM   12  N3  UNL     1     -80.034 -64.338  49.714  1.00  0.00    -0.359 N 
ATOM     13  H3  UNL     1     -81.017 -64.578  49.585  1.00  0.00     0.162 HD
BRANCH  12  14
HETATM   14  C16 UNL     1     -79.292 -63.458  48.779  1.00  0.00     0.152 C 
BRANCH  14  15
HETATM   15  C17 UNL     1     -80.250 -62.695  47.955  1.00  0.00     0.292 C 
BRANCH  15  16
HETATM   16  N4  UNL     1     -80.615 -63.542  46.803  1.00  0.00     0.090 N 
HETATM   17  C18 UNL     1     -81.721 -63.024  46.063  1.00  0.00     0.272 C 
HETATM   18  C19 UNL     1     -81.213 -62.602  44.725  1.00  0.00     0.032 C 
HETATM   19  C20 UNL     1     -79.695 -62.663  44.814  1.00  0.00     0.032 C 
HETATM   20  C21 UNL     1     -79.473 -63.671  45.929  1.00  0.00     0.272 C 
ENDBRANCH  15  16
ENDBRANCH  14  15
ENDBRANCH  12  14
ENDBRANCH   9  10
ENDBRANCH   8   9
ENDBRANCH   1   8
BRANCH   6  21
HETATM   21  C6  UNL     1     -76.884 -65.738  55.683  1.00  0.00     0.028 C 
HETATM   22  C7  UNL     1     -76.016 -64.743  56.352  1.00  0.00     0.022 C 
HETATM   23  C8  UNL     1     -74.696 -65.439  56.682  1.00  0.00    -0.013 C 
HETATM   24  C9  UNL     1     -74.026 -65.951  55.432  1.00  0.00     0.009 C 
HETATM   25  C13 UNL     1     -74.931 -66.561  57.660  1.00  0.00     0.009 C 
HETATM   26  C10 UNL     1     -74.959 -66.899  54.729  1.00  0.00    -0.013 C 
HETATM   27  C11 UNL     1     -75.238 -68.060  55.644  1.00  0.00     0.009 C 
HETATM   28  C15 UNL     1     -76.234 -66.155  54.402  1.00  0.00     0.022 C 
HETATM   29  C12 UNL     1     -75.792 -67.584  56.961  1.00  0.00    -0.013 C 
HETATM   30  C14 UNL     1     -77.091 -66.897  56.658  1.00  0.00     0.022 C 
ENDBRANCH   6  21
TORSDOF 7
ENDMDL
MODEL 2
REMARK VINA RESULT: -9.008462722      3.068      4.255
REMARK  7 active torsions:
REMARK  status: ('A' for Active; 'I' for Inactive)
REMARK    1  A    between atoms: C1_2  and  C2_3 
REMARK       I    between atoms: C1_2  and  N3_22 
REMARK    2  A    between atoms: C2_3  and  C3_4 
REMARK    3  A    between atoms: C3_4  and  C4_5 
REMARK    4  A    between atoms: C5_10  and  C6_11 
REMARK    5  A    between atoms: N3_22  and  C16_24 
REMARK    6  A    between atoms: C16_24  and  C17_25 
REMARK    7  A    between atoms: C17_25  and  N4_26 
ROOT
HETATM    1  C4  UNL     1     -80.028 -65.087  54.107  1.00  0.00     0.140 A 
HETATM    2  N1  UNL     1     -80.268 -64.475  55.250  1.00  0.00    -0.281 N 
ATOM      3  H1  UNL     1     -81.133 -63.993  55.497  1.00  0.00     0.189 HD
HETATM    4  N2  UNL     1     -79.172 -64.592  56.043  1.00  0.00    -0.281 N 
ATOM      5  H2  UNL     1     -79.070 -64.216  56.985  1.00  0.00     0.189 HD
HETATM    6  C5  UNL     1     -78.275 -65.267  55.387  1.00  0.00     0.149 A 
HETATM    7  O2  UNL     1     -78.792 -65.569  54.209  1.00  0.00    -0.281 OA
ENDROOT
BRANCH   1   8
HETATM    8  C3  UNL     1     -80.789 -65.319  52.867  1.00  0.00     0.095 C 
BRANCH   8   9
HETATM    9  C2  UNL     1     -80.008 -64.721  51.702  1.00  0.00     0.111 C 
BRANCH   9  10
HETATM   10  C1  UNL     1     -79.255 -65.805  51.002  1.00  0.00     0.217 C 
HETATM   11  O1  UNL     1     -78.883 -65.593  49.781  1.00  0.00    -0.274 OA
HETATM   12  N3  UNL     1     -78.957 -67.014  51.626  1.00  0.00    -0.359 N 
ATOM     13  H3  UNL     1     -79.216 -67.218  52.592  1.00  0.00     0.162 HD
BRANCH  12  14
HETATM   14  C16 UNL     1     -78.230 -67.980  50.767  1.00  0.00     0.152 C 
BRANCH  14  15
HETATM   15  C17 UNL     1     -76.878 -68.205  51.315  1.00  0.00     0.292 C 
BRANCH  15  16
HETATM   16  N4  UNL     1     -75.914 -67.602  50.374  1.00  0.00     0.090 N 
HETATM   17  C18 UNL     1     -75.573 -66.258  50.718  1.00  0.00     0.272 C 
HETATM   18  C19 UNL     1     -74.139 -66.247  51.132  1.00  0.00     0.032 C 
HETATM   19  C20 UNL     1     -73.728 -67.706  51.261  1.00  0.00     0.032 C 
HETATM   20  C21 UNL     1     -74.715 -68.406  50.342  1.00  0.00     0.272 C 
ENDBRANCH  15  16
ENDBRANCH  14  15
ENDBRANCH  12  14
ENDBRANCH   9  10
ENDBRANCH   8   9
ENDBRANCH   1   8
BRANCH   6  21
HETATM   21  C6  UNL     1     -76.879 -65.750  55.666  1.00  0.00     0.028 C 
HETATM   22  C7  UNL     1     -76.027 -64.735  56.325  1.00  0.00     0.022 C 
HETATM   23  C8  UNL     1     -74.705 -65.413  56.684  1.00  0.00    -0.013 C 
HETATM   24  C9  UNL     1     -74.016 -65.943  55.452  1.00  0.00     0.009 C 
HETATM   25  C13 UNL     1     -74.942 -66.518  57.681  1.00  0.00     0.009 C 
HETATM   26  C10 UNL     1     -74.933 -66.912  54.757  1.00  0.00    -0.013 C 
HETATM   27  C11 UNL     1     -75.213 -68.058  55.691  1.00  0.00     0.009 C 
HETATM   28  C15 UNL     1     -76.210 -66.186  54.401  1.00  0.00     0.022 C 
HETATM   29  C12 UNL     1     -75.786 -67.562  56.992  1.00  0.00    -0.013 C 
HETATM   30  C14 UNL     1     -77.087 -66.892  56.661  1.00  0.00     0.022 C 
ENDBRANCH   6  21
TORSDOF 7
ENDMDL
MODEL 3
REMARK VINA RESULT: -8.987367448      3.098      4.502
REMARK  7 active torsions:
REMARK  status: ('A' for Active; 'I' for Inactive)
REMARK    1  A    between atoms: C1_2  and  C2_3 
REMARK       I    between atoms: C1_2  and  N3_22 
REMARK    2  A    between atoms: C2_3  and  C3_4 
REMARK    3  A    between atoms: C3_4  and  C4_5 
REMARK    4  A    between atoms: C5_10  and  C6_11 
REMARK    5  A    between atoms: N3_22  and  C16_24 
REMARK    6  A    between atoms: C16_24  and  C17_25 
REMARK    7  A    between atoms: C17_25  and  N4_26 
ROOT
HETATM    1  C4  UNL     1     -80.058 -65.051  54.095  1.00  0.00     0.140 A 
HETATM    2  N1  UNL     1     -80.302 -64.335  55.176  1.00  0.00    -0.281 N 
ATOM      3  H1  UNL     1     -81.134 -63.768  55.338  1.00  0.00     0.189 HD
HETATM    4  N2  UNL     1     -79.261 -64.480  56.036  1.00  0.00    -0.281 N 
ATOM      5  H2  UNL     1     -79.176 -64.043  56.953  1.00  0.00     0.189 HD
HETATM    6  C5  UNL     1     -78.393 -65.274  55.482  1.00  0.00     0.149 A 
HETATM    7  O2  UNL     1     -78.874 -65.622  54.302  1.00  0.00    -0.281 OA
ENDROOT
BRANCH   1   8
HETATM    8  C3  UNL     1     -80.772 -65.314  52.834  1.00  0.00     0.095 C 
BRANCH   8   9
HETATM    9  C2  UNL     1     -79.941 -64.757  51.683  1.00  0.00     0.111 C 
BRANCH   9  10
HETATM   10  C1  UNL     1     -79.216 -65.876  51.009  1.00  0.00     0.217 C 
HETATM   11  O1  UNL     1     -78.935 -65.747  49.752  1.00  0.00    -0.274 OA
HETATM   12  N3  UNL     1     -78.848 -67.032  51.694  1.00  0.00    -0.359 N 
ATOM     13  H3  UNL     1     -79.034 -67.170  52.688  1.00  0.00     0.162 HD
BRANCH  12  14
HETATM   14  C16 UNL     1     -78.162 -68.044  50.856  1.00  0.00     0.152 C 
BRANCH  14  15
HETATM   15  C17 UNL     1     -76.784 -68.240  51.348  1.00  0.00     0.292 C 
BRANCH  15  16
HETATM   16  N4  UNL     1     -75.878 -67.551  50.408  1.00  0.00     0.090 N 
HETATM   17  C18 UNL     1     -75.555 -66.223  50.824  1.00  0.00     0.272 C 
HETATM   18  C19 UNL     1     -74.106 -66.198  51.177  1.00  0.00     0.032 C 
HETATM   19  C20 UNL     1     -73.653 -67.651  51.193  1.00  0.00     0.032 C 
HETATM   20  C21 UNL     1     -74.662 -68.318  50.273  1.00  0.00     0.272 C 
ENDBRANCH  15  16
ENDBRANCH  14  15
ENDBRANCH  12  14
ENDBRANCH   9  10
ENDBRANCH   8   9
ENDBRANCH   1   8
BRANCH   6  21
HETATM   21  C6  UNL     1     -77.059 -65.847  55.874  1.00  0.00     0.028 C 
HETATM   22  C7  UNL     1     -77.163 -67.008  56.786  1.00  0.00     0.022 C 
HETATM   23  C8  UNL     1     -75.756 -67.574  56.967  1.00  0.00    -0.013 C 
HETATM   24  C9  UNL     1     -74.828 -66.539  57.554  1.00  0.00     0.009 C 
HETATM   25  C13 UNL     1     -75.226 -68.080  55.650  1.00  0.00     0.009 C 
HETATM   26  C10 UNL     1     -74.800 -65.337  56.649  1.00  0.00    -0.013 C 
HETATM   27  C11 UNL     1     -74.271 -65.762  55.307  1.00  0.00     0.009 C 
HETATM   28  C15 UNL     1     -76.210 -64.803  56.526  1.00  0.00     0.022 C 
HETATM   29  C12 UNL     1     -75.095 -66.887  54.737  1.00  0.00    -0.013 C 
HETATM   30  C14 UNL     1     -76.484 -66.351  54.551  1.00  0.00     0.022 C 
ENDBRANCH   6  21
TORSDOF 7
ENDMDL
MODEL 4
REMARK VINA RESULT: -8.954088506      0.737      1.033
REMARK  7 active torsions:
REMARK  status: ('A' for Active; 'I' for Inactive)
REMARK    1  A    between atoms: C1_2  and  C2_3 
REMARK       I    between atoms: C1_2  and  N3_22 
REMARK    2  A    between atoms: C2_3  and  C3_4 
REMARK    3  A    between atoms: C3_4  and  C4_5 
REMARK    4  A    between atoms: C5_10  and  C6_11 
REMARK    5  A    between atoms: N3_22  and  C16_24 
REMARK    6  A    between atoms: C16_24  and  C17_25 
REMARK    7  A    between atoms: C17_25  and  N4_26 
ROOT
HETATM    1  C4  UNL     1     -79.935 -64.820  54.076  1.00  0.00     0.140 A 
HETATM    2  N1  UNL     1     -80.261 -64.439  55.296  1.00  0.00    -0.281 N 
ATOM      3  H1  UNL     1     -81.151 -64.024  55.571  1.00  0.00     0.189 HD
HETATM    4  N2  UNL     1     -79.214 -64.690  56.123  1.00  0.00    -0.281 N 
ATOM      5  H2  UNL     1     -79.182 -64.499  57.125  1.00  0.00     0.189 HD
HETATM    6  C5  UNL     1     -78.262 -65.218  55.413  1.00  0.00     0.149 A 
HETATM    7  O2  UNL     1     -78.695 -65.297  54.168  1.00  0.00    -0.281 OA
ENDROOT
BRANCH   1   8
HETATM    8  C3  UNL     1     -80.610 -64.822  52.767  1.00  0.00     0.095 C 
BRANCH   8   9
HETATM    9  C2  UNL     1     -79.929 -65.855  51.875  1.00  0.00     0.111 C 
BRANCH   9  10
HETATM   10  C1  UNL     1     -79.612 -65.237  50.553  1.00  0.00     0.217 C 
HETATM   11  O1  UNL     1     -79.175 -64.018  50.542  1.00  0.00    -0.274 OA
HETATM   12  N3  UNL     1     -79.779 -65.932  49.358  1.00  0.00    -0.359 N 
ATOM     13  H3  UNL     1     -80.105 -66.898  49.320  1.00  0.00     0.162 HD
BRANCH  12  14
HETATM   14  C16 UNL     1     -79.442 -65.148  48.145  1.00  0.00     0.152 C 
BRANCH  14  15
HETATM   15  C17 UNL     1     -80.672 -64.877  47.375  1.00  0.00     0.292 C 
BRANCH  15  16
HETATM   16  N4  UNL     1     -80.683 -63.437  47.055  1.00  0.00     0.090 N 
HETATM   17  C18 UNL     1     -79.414 -62.959  46.609  1.00  0.00     0.272 C 
HETATM   18  C19 UNL     1     -79.548 -62.588  45.170  1.00  0.00     0.032 C 
HETATM   19  C20 UNL     1     -80.903 -63.118  44.725  1.00  0.00     0.032 C 
HETATM   20  C21 UNL     1     -81.673 -63.186  46.033  1.00  0.00     0.272 C 
ENDBRANCH  15  16
ENDBRANCH  14  15
ENDBRANCH  12  14
ENDBRANCH   9  10
ENDBRANCH   8   9
ENDBRANCH   1   8
BRANCH   6  21
HETATM   21  C6  UNL     1     -76.874 -65.728  55.688  1.00  0.00     0.028 C 
HETATM   22  C7  UNL     1     -76.011 -64.741  56.375  1.00  0.00     0.022 C 
HETATM   23  C8  UNL     1     -74.701 -65.445  56.725  1.00  0.00    -0.013 C 
HETATM   24  C9  UNL     1     -74.013 -65.958  55.484  1.00  0.00     0.009 C 
HETATM   25  C13 UNL     1     -74.960 -66.569  57.695  1.00  0.00     0.009 C 
HETATM   26  C10 UNL     1     -74.940 -66.898  54.763  1.00  0.00    -0.013 C 
HETATM   27  C11 UNL     1     -75.242 -68.060  55.670  1.00  0.00     0.009 C 
HETATM   28  C15 UNL     1     -76.205 -66.145  54.417  1.00  0.00     0.022 C 
HETATM   29  C12 UNL     1     -75.815 -67.585  56.979  1.00  0.00    -0.013 C 
HETATM   30  C14 UNL     1     -77.105 -66.888  56.656  1.00  0.00     0.022 C 
ENDBRANCH   6  21
TORSDOF 7
ENDMDL
MODEL 5
REMARK VINA RESULT: -8.941677927      0.235      1.431
REMARK  7 active torsions:
REMARK  status: ('A' for Active; 'I' for Inactive)
REMARK    1  A    between atoms: C1_2  and  C2_3 
REMARK       I    between atoms: C1_2  and  N3_22 
REMARK    2  A    between atoms: C2_3  and  C3_4 
REMARK    3  A    between atoms: C3_4  and  C4_5 
REMARK    4  A    between atoms: C5_10  and  C6_11 
REMARK    5  A    between atoms: N3_22  and  C16_24 
REMARK    6  A    between atoms: C16_24  and  C17_25 
REMARK    7  A    between atoms: C17_25  and  N4_26 
ROOT
HETATM    1  C4  UNL     1     -79.923 -64.817  53.938  1.00  0.00     0.140 A 
HETATM    2  N1  UNL     1     -80.350 -64.409  55.117  1.00  0.00    -0.281 N 
ATOM      3  H1  UNL     1     -81.243 -63.951  55.301  1.00  0.00     0.189 HD
HETATM    4  N2  UNL     1     -79.402 -64.700  56.045  1.00  0.00    -0.281 N 
ATOM      5  H2  UNL     1     -79.459 -64.501  57.044  1.00  0.00     0.189 HD
HETATM    6  C5  UNL     1     -78.410 -65.278  55.435  1.00  0.00     0.149 A 
HETATM    7  O2  UNL     1     -78.723 -65.349  54.153  1.00  0.00    -0.281 OA
ENDROOT
BRANCH   1   8
HETATM    8  C3  UNL     1     -80.466 -64.801  52.568  1.00  0.00     0.095 C 
BRANCH   8   9
HETATM    9  C2  UNL     1     -79.528 -65.599  51.668  1.00  0.00     0.111 C 
BRANCH   9  10
HETATM   10  C1  UNL     1     -79.058 -64.730  50.548  1.00  0.00     0.217 C 
HETATM   11  O1  UNL     1     -77.790 -64.491  50.456  1.00  0.00    -0.274 OA
HETATM   12  N3  UNL     1     -79.944 -64.181  49.623  1.00  0.00    -0.359 N 
ATOM     13  H3  UNL     1     -80.949 -64.355  49.648  1.00  0.00     0.162 HD
BRANCH  12  14
HETATM   14  C16 UNL     1     -79.300 -63.322  48.600  1.00  0.00     0.152 C 
BRANCH  14  15
HETATM   15  C17 UNL     1     -80.339 -62.602  47.837  1.00  0.00     0.292 C 
BRANCH  15  16
HETATM   16  N4  UNL     1     -80.717 -63.455  46.693  1.00  0.00     0.090 N 
HETATM   17  C18 UNL     1     -81.798 -62.915  45.933  1.00  0.00     0.272 C 
HETATM   18  C19 UNL     1     -81.263 -62.528  44.595  1.00  0.00     0.032 C 
HETATM   19  C20 UNL     1     -79.749 -62.633  44.702  1.00  0.00     0.032 C 
HETATM   20  C21 UNL     1     -79.570 -63.631  45.834  1.00  0.00     0.272 C 
ENDBRANCH  15  16
ENDBRANCH  14  15
ENDBRANCH  12  14
ENDBRANCH   9  10
ENDBRANCH   8   9
ENDBRANCH   1   8
BRANCH   6  21
HETATM   21  C6  UNL     1     -77.081 -65.848  55.848  1.00  0.00     0.028 C 
HETATM   22  C7  UNL     1     -77.198 -67.004  56.765  1.00  0.00     0.022 C 
HETATM   23  C8  UNL     1     -75.793 -67.568  56.969  1.00  0.00    -0.013 C 
HETATM   24  C9  UNL     1     -74.874 -66.530  57.562  1.00  0.00     0.009 C 
HETATM   25  C13 UNL     1     -75.245 -68.082  55.662  1.00  0.00     0.009 C 
HETATM   26  C10 UNL     1     -74.833 -65.334  56.651  1.00  0.00    -0.013 C 
HETATM   27  C11 UNL     1     -74.286 -65.766  55.319  1.00  0.00     0.009 C 
HETATM   28  C15 UNL     1     -76.241 -64.800  56.506  1.00  0.00     0.022 C 
HETATM   29  C12 UNL     1     -75.101 -66.894  54.744  1.00  0.00    -0.013 C 
HETATM   30  C14 UNL     1     -76.488 -66.359  54.536  1.00  0.00     0.022 C 
ENDBRANCH   6  21
TORSDOF 7
ENDMDL
