MODEL 1
REMARK VINA RESULT: -7.162752340      0.000      0.000
REMARK  6 active torsions:
REMARK  status: ('A' for Active; 'I' for Inactive)
REMARK    1  A    between atoms: C5_5  and  C6_6 
REMARK    2  A    between atoms: C11_15  and  N3_16 
REMARK    3  A    between atoms: N3_16  and  C12_18 
REMARK    4  A    between atoms: C12_18  and  C13_19 
REMARK    5  A    between atoms: C13_19  and  C14_20 
REMARK    6  A    between atoms: C14_20  and  N4_21 
ROOT
HETATM    1  C6  UNL     1      63.744  52.417  19.531  1.00  0.00     0.119 A 
HETATM    2  N1  UNL     1      63.115  53.408  18.913  1.00  0.00    -0.326 N 
ATOM      3  H1  UNL     1      63.574  54.077  18.295  1.00  0.00     0.169 HD
HETATM    4  C7  UNL     1      61.783  53.428  19.204  1.00  0.00     0.136 A 
HETATM    5  N2  UNL     1      60.797  54.253  18.796  1.00  0.00    -0.344 N 
ATOM      6  H2  UNL     1      60.996  55.023  18.157  1.00  0.00     0.167 HD
HETATM    7  C8  UNL     1      59.564  54.047  19.239  1.00  0.00     0.009 A 
HETATM    8  C9  UNL     1      58.415  54.936  18.818  1.00  0.00     0.068 C 
HETATM    9  C10 UNL     1      59.244  53.040  20.087  1.00  0.00     0.056 A 
HETATM   10  C11 UNL     1      60.287  52.164  20.522  1.00  0.00     0.060 A 
HETATM   11  C17 UNL     1      61.580  52.370  20.065  1.00  0.00     0.105 A 
HETATM   12  N5  UNL     1      62.769  51.778  20.248  1.00  0.00    -0.337 N 
ATOM     13  H5  UNL     1      62.926  50.962  20.839  1.00  0.00     0.167 HD
ENDROOT
BRANCH   1  14
HETATM   14  C5  UNL     1      65.154  52.036  19.498  1.00  0.00     0.023 A 
HETATM   15  C4  UNL     1      66.132  52.911  19.920  1.00  0.00     0.018 A 
HETATM   16  C3  UNL     1      67.460  52.514  19.873  1.00  0.00     0.025 A 
HETATM   17  C2  UNL     1      67.855  51.272  19.419  1.00  0.00     0.005 A 
HETATM   18  C1  UNL     1      69.290  50.850  19.371  1.00  0.00     0.068 C 
HETATM   19  N6  UNL     1      66.880  50.437  19.013  1.00  0.00    -0.369 N 
HETATM   20  C18 UNL     1      65.579  50.805  19.051  1.00  0.00     0.103 A 
ATOM     21  H6  UNL     1      67.128  49.509  18.671  1.00  0.00     0.165 HD
ENDBRANCH   1  14
BRANCH  10  22
HETATM   22  N3  UNL     1      59.998  51.245  21.294  1.00  0.00    -0.388 N 
ATOM     23  H3  UNL     1      60.481  51.370  22.183  1.00  0.00     0.159 HD
BRANCH  22  24
HETATM   24  C12 UNL     1      59.233  50.112  21.332  1.00  0.00     0.121 C 
BRANCH  24  25
HETATM   25  C13 UNL     1      59.534  49.101  20.212  1.00  0.00     0.050 C 
BRANCH  25  26
HETATM   26  C14 UNL     1      60.077  47.876  20.888  1.00  0.00     0.273 C 
BRANCH  26  27
HETATM   27  N4  UNL     1      59.647  46.652  20.246  1.00  0.00     0.080 N 
HETATM   28  C15 UNL     1      58.409  46.833  19.521  1.00  0.00     0.309 C 
HETATM   29  C16 UNL     1      59.603  45.542  21.168  1.00  0.00     0.309 C 
ENDBRANCH  26  27
ENDBRANCH  25  26
ENDBRANCH  24  25
ENDBRANCH  22  24
ENDBRANCH  10  22
TORSDOF 6
ENDMDL
MODEL 2
REMARK VINA RESULT: -7.111489577      0.690      1.030
REMARK  6 active torsions:
REMARK  status: ('A' for Active; 'I' for Inactive)
REMARK    1  A    between atoms: C5_5  and  C6_6 
REMARK    2  A    between atoms: C11_15  and  N3_16 
REMARK    3  A    between atoms: N3_16  and  C12_18 
REMARK    4  A    between atoms: C12_18  and  C13_19 
REMARK    5  A    between atoms: C13_19  and  C14_20 
REMARK    6  A    between atoms: C14_20  and  N4_21 
ROOT
HETATM    1  C6  UNL     1      63.777  52.295  19.342  1.00  0.00     0.119 A 
HETATM    2  N1  UNL     1      63.198  53.387  18.862  1.00  0.00    -0.326 N 
ATOM      3  H1  UNL     1      63.702  54.144  18.401  1.00  0.00     0.169 HD
HETATM    4  C7  UNL     1      61.849  53.377  19.058  1.00  0.00     0.136 A 
HETATM    5  N2  UNL     1      60.897  54.276  18.730  1.00  0.00    -0.344 N 
ATOM      6  H2  UNL     1      61.144  55.140  18.249  1.00  0.00     0.167 HD
HETATM    7  C8  UNL     1      59.635  54.016  19.044  1.00  0.00     0.009 A 
HETATM    8  C9  UNL     1      58.521  54.981  18.704  1.00  0.00     0.068 C 
HETATM    9  C10 UNL     1      59.252  52.884  19.682  1.00  0.00     0.056 A 
HETATM   10  C11 UNL     1      60.258  51.930  20.031  1.00  0.00     0.060 A 
HETATM   11  C17 UNL     1      61.581  52.191  19.708  1.00  0.00     0.105 A 
HETATM   12  N5  UNL     1      62.752  51.557  19.869  1.00  0.00    -0.337 N 
ATOM     13  H5  UNL     1      62.863  50.650  20.321  1.00  0.00     0.167 HD
ENDROOT
BRANCH   1  14
HETATM   14  C5  UNL     1      65.185  51.903  19.342  1.00  0.00     0.023 A 
HETATM   15  C4  UNL     1      65.547  50.573  19.335  1.00  0.00     0.018 A 
HETATM   16  C3  UNL     1      66.894  50.239  19.336  1.00  0.00     0.025 A 
HETATM   17  C2  UNL     1      67.900  51.184  19.346  1.00  0.00     0.005 A 
HETATM   18  C1  UNL     1      69.351  50.818  19.347  1.00  0.00     0.068 C 
HETATM   19  N6  UNL     1      67.518  52.475  19.353  1.00  0.00    -0.369 N 
HETATM   20  C18 UNL     1      66.210  52.822  19.351  1.00  0.00     0.103 A 
ATOM     21  H6  UNL     1      68.229  53.206  19.359  1.00  0.00     0.165 HD
ENDBRANCH   1  14
BRANCH  10  22
HETATM   22  N3  UNL     1      59.911  50.897  20.612  1.00  0.00    -0.388 N 
ATOM     23  H3  UNL     1      60.729  50.331  20.838  1.00  0.00     0.159 HD
BRANCH  22  24
HETATM   24  C12 UNL     1      58.775  50.272  21.046  1.00  0.00     0.121 C 
BRANCH  24  25
HETATM   25  C13 UNL     1      58.547  48.873  20.448  1.00  0.00     0.050 C 
BRANCH  25  26
HETATM   26  C14 UNL     1      59.877  48.179  20.488  1.00  0.00     0.273 C 
BRANCH  26  27
HETATM   27  N4  UNL     1      59.787  46.787  20.100  1.00  0.00     0.080 N 
HETATM   28  C15 UNL     1      58.445  46.426  19.705  1.00  0.00     0.309 C 
HETATM   29  C16 UNL     1      60.334  45.907  21.107  1.00  0.00     0.309 C 
ENDBRANCH  26  27
ENDBRANCH  25  26
ENDBRANCH  24  25
ENDBRANCH  22  24
ENDBRANCH  10  22
TORSDOF 6
ENDMDL
MODEL 3
REMARK VINA RESULT: -7.053356412      3.451      8.393
REMARK  6 active torsions:
REMARK  status: ('A' for Active; 'I' for Inactive)
REMARK    1  A    between atoms: C5_5  and  C6_6 
REMARK    2  A    between atoms: C11_15  and  N3_16 
REMARK    3  A    between atoms: N3_16  and  C12_18 
REMARK    4  A    between atoms: C12_18  and  C13_19 
REMARK    5  A    between atoms: C13_19  and  C14_20 
REMARK    6  A    between atoms: C14_20  and  N4_21 
ROOT
HETATM    1  C6  UNL     1      64.244  52.739  19.151  1.00  0.00     0.119 A 
HETATM    2  N1  UNL     1      65.032  51.812  18.624  1.00  0.00    -0.326 N 
ATOM      3  H1  UNL     1      64.738  51.159  17.898  1.00  0.00     0.169 HD
HETATM    4  C7  UNL     1      66.282  51.836  19.167  1.00  0.00     0.136 A 
HETATM    5  N2  UNL     1      67.372  51.078  18.922  1.00  0.00    -0.344 N 
ATOM      6  H2  UNL     1      67.341  50.337  18.223  1.00  0.00     0.167 HD
HETATM    7  C8  UNL     1      68.484  51.314  19.606  1.00  0.00     0.009 A 
HETATM    8  C9  UNL     1      69.739  50.502  19.378  1.00  0.00     0.068 C 
HETATM    9  C10 UNL     1      68.579  52.287  20.545  1.00  0.00     0.056 A 
HETATM   10  C11 UNL     1      67.426  53.091  20.808  1.00  0.00     0.060 A 
HETATM   11  C17 UNL     1      66.259  52.852  20.098  1.00  0.00     0.105 A 
HETATM   12  N5  UNL     1      65.026  53.381  20.072  1.00  0.00    -0.337 N 
ATOM     13  H5  UNL     1      64.715  54.155  20.658  1.00  0.00     0.167 HD
ENDROOT
BRANCH   1  14
HETATM   14  C5  UNL     1      62.848  53.059  18.861  1.00  0.00     0.023 A 
HETATM   15  C4  UNL     1      61.889  52.996  19.849  1.00  0.00     0.018 A 
HETATM   16  C3  UNL     1      60.574  53.306  19.535  1.00  0.00     0.025 A 
HETATM   17  C2  UNL     1      60.173  53.678  18.268  1.00  0.00     0.005 A 
HETATM   18  C1  UNL     1      58.753  54.011  17.937  1.00  0.00     0.068 C 
HETATM   19  N6  UNL     1      61.129  53.732  17.323  1.00  0.00    -0.369 N 
HETATM   20  C18 UNL     1      62.418  53.434  17.607  1.00  0.00     0.103 A 
ATOM     21  H6  UNL     1      60.878  54.002  16.372  1.00  0.00     0.165 HD
ENDBRANCH   1  14
BRANCH  10  22
HETATM   22  N3  UNL     1      67.511  53.977  21.662  1.00  0.00    -0.388 N 
ATOM     23  H3  UNL     1      68.010  54.782  21.283  1.00  0.00     0.159 HD
BRANCH  22  24
HETATM   24  C12 UNL     1      67.146  54.220  22.957  1.00  0.00     0.121 C 
BRANCH  24  25
HETATM   25  C13 UNL     1      67.231  52.996  23.885  1.00  0.00     0.050 C 
BRANCH  25  26
HETATM   26  C14 UNL     1      68.429  53.218  24.762  1.00  0.00     0.273 C 
BRANCH  26  27
HETATM   27  N4  UNL     1      69.610  52.542  24.269  1.00  0.00     0.080 N 
HETATM   28  C15 UNL     1      69.871  51.320  24.997  1.00  0.00     0.309 C 
HETATM   29  C16 UNL     1      70.755  53.420  24.213  1.00  0.00     0.309 C 
ENDBRANCH  26  27
ENDBRANCH  25  26
ENDBRANCH  24  25
ENDBRANCH  22  24
ENDBRANCH  10  22
TORSDOF 6
ENDMDL
MODEL 4
REMARK VINA RESULT: -6.972418243      1.722      2.964
REMARK  6 active torsions:
REMARK  status: ('A' for Active; 'I' for Inactive)
REMARK    1  A    between atoms: C5_5  and  C6_6 
REMARK    2  A    between atoms: C11_15  and  N3_16 
REMARK    3  A    between atoms: N3_16  and  C12_18 
REMARK    4  A    between atoms: C12_18  and  C13_19 
REMARK    5  A    between atoms: C13_19  and  C14_20 
REMARK    6  A    between atoms: C14_20  and  N4_21 
ROOT
HETATM    1  C6  UNL     1      63.795  52.397  19.454  1.00  0.00     0.119 A 
HETATM    2  N1  UNL     1      63.190  53.439  18.899  1.00  0.00    -0.326 N 
ATOM      3  H1  UNL     1      63.673  54.162  18.367  1.00  0.00     0.169 HD
HETATM    4  C7  UNL     1      61.845  53.428  19.125  1.00  0.00     0.136 A 
HETATM    5  N2  UNL     1      60.874  54.284  18.745  1.00  0.00    -0.344 N 
ATOM      6  H2  UNL     1      61.098  55.109  18.190  1.00  0.00     0.167 HD
HETATM    7  C8  UNL     1      59.622  54.035  19.106  1.00  0.00     0.009 A 
HETATM    8  C9  UNL     1      58.488  54.954  18.713  1.00  0.00     0.068 C 
HETATM    9  C10 UNL     1      59.269  52.953  19.842  1.00  0.00     0.056 A 
HETATM   10  C11 UNL     1      60.296  52.044  20.247  1.00  0.00     0.060 A 
HETATM   11  C17 UNL     1      61.608  52.296  19.875  1.00  0.00     0.105 A 
HETATM   12  N5  UNL     1      62.791  51.692  20.061  1.00  0.00    -0.337 N 
ATOM     13  H5  UNL     1      62.925  50.826  20.583  1.00  0.00     0.167 HD
ENDROOT
BRANCH   1  14
HETATM   14  C5  UNL     1      65.208  52.025  19.456  1.00  0.00     0.023 A 
HETATM   15  C4  UNL     1      66.172  52.914  19.881  1.00  0.00     0.018 A 
HETATM   16  C3  UNL     1      67.503  52.525  19.868  1.00  0.00     0.025 A 
HETATM   17  C2  UNL     1      67.915  51.278  19.444  1.00  0.00     0.005 A 
HETATM   18  C1  UNL     1      69.353  50.864  19.433  1.00  0.00     0.068 C 
HETATM   19  N6  UNL     1      66.954  50.430  19.035  1.00  0.00    -0.369 N 
HETATM   20  C18 UNL     1      65.649  50.789  19.040  1.00  0.00     0.103 A 
ATOM     21  H6  UNL     1      67.214  49.497  18.713  1.00  0.00     0.165 HD
ENDBRANCH   1  14
BRANCH  10  22
HETATM   22  N3  UNL     1      59.977  51.058  20.916  1.00  0.00    -0.388 N 
ATOM     23  H3  UNL     1      60.807  50.628  21.325  1.00  0.00     0.159 HD
BRANCH  22  24
HETATM   24  C12 UNL     1      58.860  50.360  21.283  1.00  0.00     0.121 C 
BRANCH  24  25
HETATM   25  C13 UNL     1      58.419  50.579  22.741  1.00  0.00     0.050 C 
BRANCH  25  26
HETATM   26  C14 UNL     1      57.316  51.595  22.696  1.00  0.00     0.273 C 
BRANCH  26  27
HETATM   27  N4  UNL     1      57.586  52.744  23.534  1.00  0.00     0.080 N 
HETATM   28  C15 UNL     1      57.361  53.986  22.829  1.00  0.00     0.309 C 
HETATM   29  C16 UNL     1      58.892  52.673  24.147  1.00  0.00     0.309 C 
ENDBRANCH  26  27
ENDBRANCH  25  26
ENDBRANCH  24  25
ENDBRANCH  22  24
ENDBRANCH  10  22
TORSDOF 6
ENDMDL
MODEL 5
REMARK VINA RESULT: -6.906418527      3.048      6.956
REMARK  6 active torsions:
REMARK  status: ('A' for Active; 'I' for Inactive)
REMARK    1  A    between atoms: C5_5  and  C6_6 
REMARK    2  A    between atoms: C11_15  and  N3_16 
REMARK    3  A    between atoms: N3_16  and  C12_18 
REMARK    4  A    between atoms: C12_18  and  C13_19 
REMARK    5  A    between atoms: C13_19  and  C14_20 
REMARK    6  A    between atoms: C14_20  and  N4_21 
ROOT
HETATM    1  C6  UNL     1      64.212  52.261  19.149  1.00  0.00     0.119 A 
HETATM    2  N1  UNL     1      65.335  52.949  19.305  1.00  0.00    -0.326 N 
ATOM      3  H1  UNL     1      65.393  53.966  19.249  1.00  0.00     0.169 HD
HETATM    4  C7  UNL     1      66.402  52.136  19.547  1.00  0.00     0.136 A 
HETATM    5  N2  UNL     1      67.704  52.419  19.761  1.00  0.00    -0.344 N 
ATOM      6  H2  UNL     1      68.032  53.384  19.758  1.00  0.00     0.167 HD
HETATM    7  C8  UNL     1      68.551  51.420  19.976  1.00  0.00     0.009 A 
HETATM    8  C9  UNL     1      70.021  51.671  20.222  1.00  0.00     0.068 C 
HETATM    9  C10 UNL     1      68.168  50.120  19.991  1.00  0.00     0.056 A 
HETATM   10  C11 UNL     1      66.789  49.817  19.764  1.00  0.00     0.060 A 
HETATM   11  C17 UNL     1      65.896  50.854  19.539  1.00  0.00     0.105 A 
HETATM   12  N5  UNL     1      64.580  50.952  19.298  1.00  0.00    -0.337 N 
ATOM     13  H5  UNL     1      63.941  50.159  19.235  1.00  0.00     0.167 HD
ENDROOT
BRANCH   1  14
HETATM   14  C5  UNL     1      62.855  52.730  18.879  1.00  0.00     0.023 A 
HETATM   15  C4  UNL     1      61.873  52.646  19.843  1.00  0.00     0.018 A 
HETATM   16  C3  UNL     1      60.596  53.101  19.549  1.00  0.00     0.025 A 
HETATM   17  C2  UNL     1      60.256  53.639  18.325  1.00  0.00     0.005 A 
HETATM   18  C1  UNL     1      58.876  54.128  18.014  1.00  0.00     0.068 C 
HETATM   19  N6  UNL     1      61.233  53.710  17.402  1.00  0.00    -0.369 N 
HETATM   20  C18 UNL     1      62.485  53.272  17.668  1.00  0.00     0.103 A 
ATOM     21  H6  UNL     1      61.025  54.101  16.483  1.00  0.00     0.165 HD
ENDBRANCH   1  14
BRANCH  10  22
HETATM   22  N3  UNL     1      66.439  48.634  19.779  1.00  0.00    -0.388 N 
ATOM     23  H3  UNL     1      65.866  48.428  18.960  1.00  0.00     0.159 HD
BRANCH  22  24
HETATM   24  C12 UNL     1      66.576  47.512  20.548  1.00  0.00     0.121 C 
BRANCH  24  25
HETATM   25  C13 UNL     1      67.031  46.261  19.777  1.00  0.00     0.050 C 
BRANCH  25  26
HETATM   26  C14 UNL     1      65.853  45.333  19.750  1.00  0.00     0.273 C 
BRANCH  26  27
HETATM   27  N4  UNL     1      65.633  44.679  21.023  1.00  0.00     0.080 N 
HETATM   28  C15 UNL     1      66.622  43.657  21.279  1.00  0.00     0.309 C 
HETATM   29  C16 UNL     1      64.278  44.198  21.159  1.00  0.00     0.309 C 
ENDBRANCH  26  27
ENDBRANCH  25  26
ENDBRANCH  24  25
ENDBRANCH  22  24
ENDBRANCH  10  22
TORSDOF 6
ENDMDL
