MODEL 1
REMARK VINA RESULT: -6.662031545      0.000      0.000
REMARK  5 active torsions:
REMARK  status: ('A' for Active; 'I' for Inactive)
REMARK    1  A    between atoms: N1_2  and  C2_3 
REMARK    2  A    between atoms: N1_2  and  C10_18 
REMARK    3  A    between atoms: C2_3  and  C3_4 
REMARK    4  A    between atoms: C3_4  and  N2_5 
REMARK       I    between atoms: N2_5  and  C4_7 
REMARK       I    between atoms: C4_7  and  N3_9 
REMARK    5  A    between atoms: N3_9  and  C5_11 
ROOT
HETATM    1  N2  UNL     1      64.487  53.009  18.279  1.00  0.00    -0.341 N 
ATOM      2  H2  UNL     1      64.676  54.011  18.268  1.00  0.00     0.164 HD
HETATM    3  C4  UNL     1      65.384  52.180  18.979  1.00  0.00     0.316 C 
HETATM    4  O1  UNL     1      65.205  50.944  19.023  1.00  0.00    -0.247 OA
HETATM    5  N3  UNL     1      66.503  52.761  19.643  1.00  0.00    -0.337 N 
ATOM      6  H3  UNL     1      66.658  53.769  19.606  1.00  0.00     0.164 HD
ENDROOT
BRANCH   1   7
HETATM    7  C3  UNL     1      63.324  52.543  17.578  1.00  0.00     0.154 C 
BRANCH   7   8
HETATM    8  C2  UNL     1      62.133  53.364  17.926  1.00  0.00     0.292 C 
BRANCH   8   9
HETATM    9  N1  UNL     1      61.793  53.155  19.323  1.00  0.00     0.090 N 
HETATM   10  C1  UNL     1      61.716  51.772  19.673  1.00  0.00     0.310 C 
BRANCH   9  11
HETATM   11  C10 UNL     1      60.676  53.961  19.659  1.00  0.00     0.222 C 
HETATM   12  C11 UNL     1      60.013  53.428  20.908  1.00  0.00     0.036 C 
HETATM   13  C12 UNL     1      58.758  54.202  21.248  1.00  0.00     0.002 C 
HETATM   14  C13 UNL     1      57.821  54.073  20.056  1.00  0.00     0.000 C 
HETATM   15  C14 UNL     1      58.455  54.832  18.909  1.00  0.00     0.002 C 
HETATM   16  C15 UNL     1      59.718  54.085  18.510  1.00  0.00     0.036 C 
ENDBRANCH   9  11
ENDBRANCH   8   9
ENDBRANCH   7   8
ENDBRANCH   1   7
BRANCH   5  17
HETATM   17  C5  UNL     1      67.412  51.912  20.364  1.00  0.00     0.104 C 
HETATM   18  C6  UNL     1      68.866  52.274  20.108  1.00  0.00     0.100 C 
HETATM   19  S1  UNL     1      69.825  52.261  21.654  1.00  0.00    -0.166 SA
HETATM   20  C7  UNL     1      69.859  53.984  22.258  1.00  0.00     0.084 C 
HETATM   21  C8  UNL     1      68.459  54.546  21.978  1.00  0.00     0.084 C 
HETATM   22  S2  UNL     1      67.269  53.413  22.696  1.00  0.00    -0.166 SA
HETATM   23  C9  UNL     1      67.110  51.858  21.844  1.00  0.00     0.100 C 
ENDBRANCH   5  17
TORSDOF 5
ENDMDL
MODEL 2
REMARK VINA RESULT: -6.547979665      1.444      2.187
REMARK  5 active torsions:
REMARK  status: ('A' for Active; 'I' for Inactive)
REMARK    1  A    between atoms: N1_2  and  C2_3 
REMARK    2  A    between atoms: N1_2  and  C10_18 
REMARK    3  A    between atoms: C2_3  and  C3_4 
REMARK    4  A    between atoms: C3_4  and  N2_5 
REMARK       I    between atoms: N2_5  and  C4_7 
REMARK       I    between atoms: C4_7  and  N3_9 
REMARK    5  A    between atoms: N3_9  and  C5_11 
ROOT
HETATM    1  N2  UNL     1      63.373  53.356  18.960  1.00  0.00    -0.341 N 
ATOM      2  H2  UNL     1      63.708  54.216  19.393  1.00  0.00     0.164 HD
HETATM    3  C4  UNL     1      64.223  52.232  18.991  1.00  0.00     0.316 C 
HETATM    4  O1  UNL     1      63.868  51.153  18.471  1.00  0.00    -0.247 OA
HETATM    5  N3  UNL     1      65.496  52.334  19.622  1.00  0.00    -0.337 N 
ATOM      6  H3  UNL     1      65.794  53.214  20.044  1.00  0.00     0.164 HD
ENDROOT
BRANCH   1   7
HETATM    7  C3  UNL     1      62.069  53.374  18.360  1.00  0.00     0.154 C 
BRANCH   7   8
HETATM    8  C2  UNL     1      61.065  53.946  19.297  1.00  0.00     0.292 C 
BRANCH   8   9
HETATM    9  N1  UNL     1      59.756  53.390  18.999  1.00  0.00     0.090 N 
HETATM   10  C1  UNL     1      59.038  54.154  18.029  1.00  0.00     0.310 C 
BRANCH   9  11
HETATM   11  C10 UNL     1      59.081  53.105  20.213  1.00  0.00     0.222 C 
HETATM   12  C11 UNL     1      57.606  52.914  19.950  1.00  0.00     0.036 C 
HETATM   13  C12 UNL     1      56.831  52.703  21.233  1.00  0.00     0.002 C 
HETATM   14  C13 UNL     1      57.059  53.935  22.096  1.00  0.00     0.000 C 
HETATM   15  C14 UNL     1      58.517  53.926  22.507  1.00  0.00     0.002 C 
HETATM   16  C15 UNL     1      59.346  54.154  21.253  1.00  0.00     0.036 C 
ENDBRANCH   9  11
ENDBRANCH   8   9
ENDBRANCH   7   8
ENDBRANCH   1   7
BRANCH   5  17
HETATM   17  C5  UNL     1      66.356  51.182  19.659  1.00  0.00     0.104 C 
HETATM   18  C6  UNL     1      67.667  51.418  18.926  1.00  0.00     0.100 C 
HETATM   19  S1  UNL     1      69.074  50.765  19.875  1.00  0.00    -0.166 SA
HETATM   20  C7  UNL     1      69.752  52.168  20.829  1.00  0.00     0.084 C 
HETATM   21  C8  UNL     1      68.533  52.968  21.308  1.00  0.00     0.084 C 
HETATM   22  S2  UNL     1      67.430  51.824  22.138  1.00  0.00    -0.166 SA
HETATM   23  C9  UNL     1      66.594  50.677  21.063  1.00  0.00     0.100 C 
ENDBRANCH   5  17
TORSDOF 5
ENDMDL
MODEL 3
REMARK VINA RESULT: -6.536494775      1.973      3.011
REMARK  5 active torsions:
REMARK  status: ('A' for Active; 'I' for Inactive)
REMARK    1  A    between atoms: N1_2  and  C2_3 
REMARK    2  A    between atoms: N1_2  and  C10_18 
REMARK    3  A    between atoms: C2_3  and  C3_4 
REMARK    4  A    between atoms: C3_4  and  N2_5 
REMARK       I    between atoms: N2_5  and  C4_7 
REMARK       I    between atoms: C4_7  and  N3_9 
REMARK    5  A    between atoms: N3_9  and  C5_11 
ROOT
HETATM    1  N2  UNL     1      61.634  53.937  18.711  1.00  0.00    -0.341 N 
ATOM      2  H2  UNL     1      61.881  54.780  19.229  1.00  0.00     0.164 HD
HETATM    3  C4  UNL     1      62.652  52.993  18.471  1.00  0.00     0.316 C 
HETATM    4  O1  UNL     1      62.409  51.944  17.837  1.00  0.00    -0.247 OA
HETATM    5  N3  UNL     1      63.968  53.242  18.957  1.00  0.00    -0.337 N 
ATOM      6  H3  UNL     1      64.174  54.100  19.469  1.00  0.00     0.164 HD
ENDROOT
BRANCH   1   7
HETATM    7  C3  UNL     1      60.273  53.795  18.278  1.00  0.00     0.154 C 
BRANCH   7   8
HETATM    8  C2  UNL     1      59.336  53.944  19.424  1.00  0.00     0.292 C 
BRANCH   8   9
HETATM    9  N1  UNL     1      59.716  53.024  20.481  1.00  0.00     0.090 N 
HETATM   10  C1  UNL     1      59.535  51.654  20.115  1.00  0.00     0.310 C 
BRANCH   9  11
HETATM   11  C10 UNL     1      59.124  53.441  21.701  1.00  0.00     0.222 C 
HETATM   12  C11 UNL     1      59.191  52.323  22.715  1.00  0.00     0.036 C 
HETATM   13  C12 UNL     1      58.484  52.692  24.001  1.00  0.00     0.002 C 
HETATM   14  C13 UNL     1      57.036  52.993  23.641  1.00  0.00     0.000 C 
HETATM   15  C14 UNL     1      57.039  54.261  22.813  1.00  0.00     0.002 C 
HETATM   16  C15 UNL     1      57.725  53.943  21.493  1.00  0.00     0.036 C 
ENDBRANCH   9  11
ENDBRANCH   8   9
ENDBRANCH   7   8
ENDBRANCH   1   7
BRANCH   5  17
HETATM   17  C5  UNL     1      65.002  52.273  18.717  1.00  0.00     0.104 C 
HETATM   18  C6  UNL     1      66.355  52.921  18.470  1.00  0.00     0.100 C 
HETATM   19  S1  UNL     1      67.673  52.045  19.365  1.00  0.00    -0.166 SA
HETATM   20  C7  UNL     1      67.915  52.941  20.939  1.00  0.00     0.084 C 
HETATM   21  C8  UNL     1      66.508  53.339  21.407  1.00  0.00     0.084 C 
HETATM   22  S2  UNL     1      65.504  51.854  21.415  1.00  0.00    -0.166 SA
HETATM   23  C9  UNL     1      65.084  51.226  19.803  1.00  0.00     0.100 C 
ENDBRANCH   5  17
TORSDOF 5
ENDMDL
MODEL 4
REMARK VINA RESULT: -6.488749939      1.462      1.987
REMARK  5 active torsions:
REMARK  status: ('A' for Active; 'I' for Inactive)
REMARK    1  A    between atoms: N1_2  and  C2_3 
REMARK    2  A    between atoms: N1_2  and  C10_18 
REMARK    3  A    between atoms: C2_3  and  C3_4 
REMARK    4  A    between atoms: C3_4  and  N2_5 
REMARK       I    between atoms: N2_5  and  C4_7 
REMARK       I    between atoms: C4_7  and  N3_9 
REMARK    5  A    between atoms: N3_9  and  C5_11 
ROOT
HETATM    1  N2  UNL     1      64.984  52.610  20.120  1.00  0.00    -0.341 N 
ATOM      2  H2  UNL     1      64.665  52.273  21.028  1.00  0.00     0.164 HD
HETATM    3  C4  UNL     1      66.336  52.987  19.999  1.00  0.00     0.316 C 
HETATM    4  O1  UNL     1      66.783  53.412  18.913  1.00  0.00    -0.247 OA
HETATM    5  N3  UNL     1      67.197  52.880  21.129  1.00  0.00    -0.337 N 
ATOM      6  H3  UNL     1      66.837  52.539  22.021  1.00  0.00     0.164 HD
ENDROOT
BRANCH   1   7
HETATM    7  C3  UNL     1      64.024  52.668  19.054  1.00  0.00     0.154 C 
BRANCH   7   8
HETATM    8  C2  UNL     1      62.664  52.325  19.549  1.00  0.00     0.292 C 
BRANCH   8   9
HETATM    9  N1  UNL     1      61.677  52.717  18.559  1.00  0.00     0.090 N 
HETATM   10  C1  UNL     1      62.263  53.097  17.312  1.00  0.00     0.310 C 
BRANCH   9  11
HETATM   11  C10 UNL     1      60.768  53.637  19.142  1.00  0.00     0.222 C 
HETATM   12  C11 UNL     1      60.329  53.137  20.498  1.00  0.00     0.036 C 
HETATM   13  C12 UNL     1      59.283  54.041  21.115  1.00  0.00     0.002 C 
HETATM   14  C13 UNL     1      58.102  54.072  20.155  1.00  0.00     0.000 C 
HETATM   15  C14 UNL     1      58.563  54.794  18.907  1.00  0.00     0.002 C 
HETATM   16  C15 UNL     1      59.608  53.918  18.232  1.00  0.00     0.036 C 
ENDBRANCH   9  11
ENDBRANCH   8   9
ENDBRANCH   7   8
ENDBRANCH   1   7
BRANCH   5  17
HETATM   17  C5  UNL     1      68.578  53.256  21.000  1.00  0.00     0.104 C 
HETATM   18  C6  UNL     1      68.996  54.281  22.042  1.00  0.00     0.100 C 
HETATM   19  S1  UNL     1      70.621  53.870  22.748  1.00  0.00    -0.166 SA
HETATM   20  C7  UNL     1      70.298  52.943  24.288  1.00  0.00     0.084 C 
HETATM   21  C8  UNL     1      69.105  52.029  23.976  1.00  0.00     0.084 C 
HETATM   22  S2  UNL     1      69.506  51.107  22.492  1.00  0.00    -0.166 SA
HETATM   23  C9  UNL     1      69.510  52.067  20.993  1.00  0.00     0.100 C 
ENDBRANCH   5  17
TORSDOF 5
ENDMDL
MODEL 5
REMARK VINA RESULT: -6.477631521      1.279      1.585
REMARK  5 active torsions:
REMARK  status: ('A' for Active; 'I' for Inactive)
REMARK    1  A    between atoms: N1_2  and  C2_3 
REMARK    2  A    between atoms: N1_2  and  C10_18 
REMARK    3  A    between atoms: C2_3  and  C3_4 
REMARK    4  A    between atoms: C3_4  and  N2_5 
REMARK       I    between atoms: N2_5  and  C4_7 
REMARK       I    between atoms: C4_7  and  N3_9 
REMARK    5  A    between atoms: N3_9  and  C5_11 
ROOT
HETATM    1  N2  UNL     1      64.767  53.040  19.076  1.00  0.00    -0.341 N 
ATOM      2  H2  UNL     1      65.369  53.621  18.492  1.00  0.00     0.164 HD
HETATM    3  C4  UNL     1      65.189  52.778  20.394  1.00  0.00     0.316 C 
HETATM    4  O1  UNL     1      64.495  52.069  21.154  1.00  0.00    -0.247 OA
HETATM    5  N3  UNL     1      66.417  53.329  20.860  1.00  0.00    -0.337 N 
ATOM      6  H3  UNL     1      66.991  53.904  20.243  1.00  0.00     0.164 HD
ENDROOT
BRANCH   1   7
HETATM    7  C3  UNL     1      63.550  52.547  18.497  1.00  0.00     0.154 C 
BRANCH   7   8
HETATM    8  C2  UNL     1      62.428  53.493  18.742  1.00  0.00     0.292 C 
BRANCH   8   9
HETATM    9  N1  UNL     1      61.602  52.991  19.827  1.00  0.00     0.090 N 
HETATM   10  C1  UNL     1      61.309  51.598  19.700  1.00  0.00     0.310 C 
BRANCH   9  11
HETATM   11  C10 UNL     1      60.498  53.860  20.016  1.00  0.00     0.222 C 
HETATM   12  C11 UNL     1      59.689  53.413  21.211  1.00  0.00     0.036 C 
HETATM   13  C12 UNL     1      58.446  54.257  21.393  1.00  0.00     0.002 C 
HETATM   14  C13 UNL     1      57.626  54.117  20.118  1.00  0.00     0.000 C 
HETATM   15  C14 UNL     1      58.407  54.795  19.011  1.00  0.00     0.002 C 
HETATM   16  C15 UNL     1      59.666  53.975  18.773  1.00  0.00     0.036 C 
ENDBRANCH   9  11
ENDBRANCH   8   9
ENDBRANCH   7   8
ENDBRANCH   1   7
BRANCH   5  17
HETATM   17  C5  UNL     1      66.840  53.066  22.209  1.00  0.00     0.104 C 
HETATM   18  C6  UNL     1      67.469  51.690  22.358  1.00  0.00     0.100 C 
HETATM   19  S1  UNL     1      68.969  51.765  23.385  1.00  0.00    -0.166 SA
HETATM   20  C7  UNL     1      70.379  51.908  22.232  1.00  0.00     0.084 C 
HETATM   21  C8  UNL     1      69.906  52.850  21.117  1.00  0.00     0.084 C 
HETATM   22  S2  UNL     1      69.287  54.341  21.898  1.00  0.00    -0.166 SA
HETATM   23  C9  UNL     1      67.741  54.146  22.760  1.00  0.00     0.100 C 
ENDBRANCH   5  17
TORSDOF 5
ENDMDL
