MODEL 1
REMARK VINA RESULT: -7.780316264      0.000      0.000
REMARK  6 active torsions:
REMARK  status: ('A' for Active; 'I' for Inactive)
REMARK    1  A    between atoms: C2_2  and  C3_3 
REMARK    2  A    between atoms: C3_3  and  C4_4 
REMARK    3  A    between atoms: C4_4  and  N1_5 
REMARK    4  A    between atoms: C7_9  and  O1_10 
REMARK    5  A    between atoms: C9_14  and  C10_15 
REMARK    6  A    between atoms: N4_25  and  O2_26 
ROOT
HETATM    1  N1  UNL     1      66.237  48.477  20.066  1.00  0.00    -0.376 N 
ATOM      2  H1  UNL     1      65.358  47.967  20.144  1.00  0.00     0.161 HD
HETATM    3  C5  UNL     1      66.159  49.715  19.742  1.00  0.00     0.106 A 
HETATM    4  C6  UNL     1      67.297  50.472  19.615  1.00  0.00     0.104 A 
HETATM    5  C7  UNL     1      67.169  51.812  19.262  1.00  0.00     0.146 A 
HETATM    6  N2  UNL     1      65.937  52.263  19.071  1.00  0.00    -0.322 N 
ATOM      7  H2  UNL     1      65.844  53.245  18.812  1.00  0.00     0.169 HD
HETATM    8  C9  UNL     1      64.799  51.558  19.184  1.00  0.00     0.119 A 
HETATM    9  N5  UNL     1      64.927  50.266  19.525  1.00  0.00    -0.328 N 
ATOM     10  H5  UNL     1      64.093  49.686  19.623  1.00  0.00     0.169 HD
ENDROOT
BRANCH   8  11
HETATM   11  C10 UNL     1      63.491  52.181  18.943  1.00  0.00     0.010 A 
HETATM   12  C11 UNL     1      63.207  52.551  17.624  1.00  0.00     0.018 A 
HETATM   13  C12 UNL     1      62.009  53.137  17.320  1.00  0.00     0.035 A 
HETATM   14  C13 UNL     1      61.093  53.358  18.318  1.00  0.00     0.091 A 
HETATM   15  C14 UNL     1      61.347  53.002  19.630  1.00  0.00     0.064 A 
HETATM   16  N4  UNL     1      59.842  53.908  18.336  1.00  0.00    -0.211 N 
HETATM   17  C15 UNL     1      62.578  52.404  19.924  1.00  0.00     0.047 A 
HETATM   18  N3  UNL     1      60.276  53.341  20.360  1.00  0.00    -0.342 N 
HETATM   19  C16 UNL     1      59.336  53.902  19.578  1.00  0.00     0.106 A 
ATOM     20  H3  UNL     1      60.186  53.195  21.366  1.00  0.00     0.167 HD
HETATM   21  C17 UNL     1      57.990  54.422  19.985  1.00  0.00     0.091 C 
BRANCH  16  22
HETATM   22  O2  UNL     1      59.255  54.382  17.179  1.00  0.00    -0.281 OA
ATOM     23  H2  UNL     1      58.616  53.863  16.705  1.00  0.00     0.245 HD
ENDBRANCH  16  22
ENDBRANCH   8  11
BRANCH   5  24
HETATM   24  O1  UNL     1      68.317  52.572  19.136  1.00  0.00    -0.341 OA
HETATM   25  C8  UNL     1      69.459  52.195  19.918  1.00  0.00     0.211 C 
ENDBRANCH   5  24
BRANCH   1  26
HETATM   26  C4  UNL     1      67.435  47.741  20.329  1.00  0.00     0.121 C 
BRANCH  26  27
HETATM   27  C3  UNL     1      67.146  46.341  20.888  1.00  0.00     0.019 C 
BRANCH  27  28
HETATM   28  C2  UNL     1      66.778  45.487  19.694  1.00  0.00    -0.003 C 
HETATM   29  C1  UNL     1      65.345  45.026  19.745  1.00  0.00     0.005 C 
ENDBRANCH  27  28
ENDBRANCH  26  27
ENDBRANCH   1  26
TORSDOF 6
ENDMDL
MODEL 2
REMARK VINA RESULT: -7.459060399      1.746      3.918
REMARK  6 active torsions:
REMARK  status: ('A' for Active; 'I' for Inactive)
REMARK    1  A    between atoms: C2_2  and  C3_3 
REMARK    2  A    between atoms: C3_3  and  C4_4 
REMARK    3  A    between atoms: C4_4  and  N1_5 
REMARK    4  A    between atoms: C7_9  and  O1_10 
REMARK    5  A    between atoms: C9_14  and  C10_15 
REMARK    6  A    between atoms: N4_25  and  O2_26 
ROOT
HETATM    1  N1  UNL     1      68.885  52.592  20.210  1.00  0.00    -0.376 N 
ATOM      2  H1  UNL     1      68.655  53.585  20.238  1.00  0.00     0.161 HD
HETATM    3  C5  UNL     1      67.928  51.785  19.929  1.00  0.00     0.106 A 
HETATM    4  C6  UNL     1      68.155  50.433  19.873  1.00  0.00     0.104 A 
HETATM    5  C7  UNL     1      67.089  49.593  19.565  1.00  0.00     0.146 A 
HETATM    6  N2  UNL     1      65.917  50.171  19.346  1.00  0.00    -0.322 N 
ATOM      7  H2  UNL     1      65.136  49.554  19.121  1.00  0.00     0.169 HD
HETATM    8  C9  UNL     1      65.653  51.488  19.391  1.00  0.00     0.119 A 
HETATM    9  N5  UNL     1      66.683  52.295  19.689  1.00  0.00    -0.328 N 
ATOM     10  H5  UNL     1      66.535  53.303  19.736  1.00  0.00     0.169 HD
ENDROOT
BRANCH   8  11
HETATM   11  C10 UNL     1      64.302  52.002  19.127  1.00  0.00     0.010 A 
HETATM   12  C11 UNL     1      64.094  52.605  17.882  1.00  0.00     0.018 A 
HETATM   13  C12 UNL     1      62.863  53.109  17.563  1.00  0.00     0.035 A 
HETATM   14  C13 UNL     1      61.839  53.017  18.473  1.00  0.00     0.091 A 
HETATM   15  C14 UNL     1      62.017  52.427  19.710  1.00  0.00     0.064 A 
HETATM   16  N4  UNL     1      60.532  53.414  18.454  1.00  0.00    -0.211 N 
HETATM   17  C15 UNL     1      63.283  51.917  20.021  1.00  0.00     0.047 A 
HETATM   18  N3  UNL     1      60.849  52.489  20.364  1.00  0.00    -0.342 N 
HETATM   19  C16 UNL     1      59.920  53.095  19.604  1.00  0.00     0.106 A 
ATOM     20  H3  UNL     1      60.688  52.128  21.304  1.00  0.00     0.167 HD
HETATM   21  C17 UNL     1      58.486  53.371  19.946  1.00  0.00     0.091 C 
BRANCH  16  22
HETATM   22  O2  UNL     1      59.996  54.052  17.351  1.00  0.00    -0.281 OA
ATOM     23  H2  UNL     1      59.070  54.257  17.306  1.00  0.00     0.245 HD
ENDBRANCH  16  22
ENDBRANCH   8  11
BRANCH   5  24
HETATM   24  O1  UNL     1      67.321  48.230  19.508  1.00  0.00    -0.341 OA
HETATM   25  C8  UNL     1      66.821  47.421  20.583  1.00  0.00     0.211 C 
ENDBRANCH   5  24
BRANCH   1  26
HETATM   26  C4  UNL     1      70.243  52.236  20.488  1.00  0.00     0.121 C 
BRANCH  26  27
HETATM   27  C3  UNL     1      70.998  53.354  21.219  1.00  0.00     0.019 C 
BRANCH  27  28
HETATM   28  C2  UNL     1      71.767  52.676  22.332  1.00  0.00    -0.003 C 
HETATM   29  C1  UNL     1      71.562  51.184  22.337  1.00  0.00     0.005 C 
ENDBRANCH  27  28
ENDBRANCH  26  27
ENDBRANCH   1  26
TORSDOF 6
ENDMDL
MODEL 3
REMARK VINA RESULT: -7.417104883      3.222      8.001
REMARK  6 active torsions:
REMARK  status: ('A' for Active; 'I' for Inactive)
REMARK    1  A    between atoms: C2_2  and  C3_3 
REMARK    2  A    between atoms: C3_3  and  C4_4 
REMARK    3  A    between atoms: C4_4  and  N1_5 
REMARK    4  A    between atoms: C7_9  and  O1_10 
REMARK    5  A    between atoms: C9_14  and  C10_15 
REMARK    6  A    between atoms: N4_25  and  O2_26 
ROOT
HETATM    1  N1  UNL     1      62.231  51.948  19.886  1.00  0.00    -0.376 N 
ATOM      2  H1  UNL     1      62.314  51.665  20.862  1.00  0.00     0.161 HD
HETATM    3  C5  UNL     1      63.316  52.268  19.283  1.00  0.00     0.106 A 
HETATM    4  C6  UNL     1      63.289  52.661  17.968  1.00  0.00     0.104 A 
HETATM    5  C7  UNL     1      64.490  53.000  17.351  1.00  0.00     0.146 A 
HETATM    6  N2  UNL     1      65.586  52.918  18.092  1.00  0.00    -0.322 N 
ATOM      7  H2  UNL     1      66.465  53.167  17.639  1.00  0.00     0.169 HD
HETATM    8  C9  UNL     1      65.656  52.539  19.379  1.00  0.00     0.119 A 
HETATM    9  N5  UNL     1      64.496  52.213  19.971  1.00  0.00    -0.328 N 
ATOM     10  H5  UNL     1      64.495  51.919  20.948  1.00  0.00     0.169 HD
ENDROOT
BRANCH   8  11
HETATM   11  C10 UNL     1      66.941  52.491  20.089  1.00  0.00     0.010 A 
HETATM   12  C11 UNL     1      67.911  51.626  19.569  1.00  0.00     0.018 A 
HETATM   13  C12 UNL     1      69.133  51.526  20.176  1.00  0.00     0.035 A 
HETATM   14  C13 UNL     1      69.397  52.279  21.293  1.00  0.00     0.091 A 
HETATM   15  C14 UNL     1      68.457  53.141  21.827  1.00  0.00     0.064 A 
HETATM   16  N4  UNL     1      70.490  52.399  22.104  1.00  0.00    -0.211 N 
HETATM   17  C15 UNL     1      67.211  53.231  21.195  1.00  0.00     0.047 A 
HETATM   18  N3  UNL     1      69.003  53.726  22.901  1.00  0.00    -0.342 N 
HETATM   19  C16 UNL     1      70.259  53.281  23.088  1.00  0.00     0.106 A 
ATOM     20  H3  UNL     1      68.534  54.412  23.493  1.00  0.00     0.167 HD
HETATM   21  C17 UNL     1      71.224  53.672  24.167  1.00  0.00     0.091 C 
BRANCH  16  22
HETATM   22  O2  UNL     1      71.639  51.670  21.865  1.00  0.00    -0.281 OA
ATOM     23  H2  UNL     1      72.398  51.751  22.431  1.00  0.00     0.245 HD
ENDBRANCH  16  22
ENDBRANCH   8  11
BRANCH   5  24
HETATM   24  O1  UNL     1      64.460  53.395  16.025  1.00  0.00    -0.341 OA
HETATM   25  C8  UNL     1      65.600  54.097  15.510  1.00  0.00     0.211 C 
ENDBRANCH   5  24
BRANCH   1  26
HETATM   26  C4  UNL     1      60.915  51.948  19.325  1.00  0.00     0.121 C 
BRANCH  26  27
HETATM   27  C3  UNL     1      60.010  53.010  19.965  1.00  0.00     0.019 C 
BRANCH  27  28
HETATM   28  C2  UNL     1      60.063  54.208  19.042  1.00  0.00    -0.003 C 
HETATM   29  C1  UNL     1      58.949  54.194  18.028  1.00  0.00     0.005 C 
ENDBRANCH  27  28
ENDBRANCH  26  27
ENDBRANCH   1  26
TORSDOF 6
ENDMDL
MODEL 4
REMARK VINA RESULT: -7.362306397      3.937      5.740
REMARK  6 active torsions:
REMARK  status: ('A' for Active; 'I' for Inactive)
REMARK    1  A    between atoms: C2_2  and  C3_3 
REMARK    2  A    between atoms: C3_3  and  C4_4 
REMARK    3  A    between atoms: C4_4  and  N1_5 
REMARK    4  A    between atoms: C7_9  and  O1_10 
REMARK    5  A    between atoms: C9_14  and  C10_15 
REMARK    6  A    between atoms: N4_25  and  O2_26 
ROOT
HETATM    1  N1  UNL     1      71.965  48.779  22.457  1.00  0.00    -0.376 N 
ATOM      2  H1  UNL     1      71.405  47.960  22.219  1.00  0.00     0.161 HD
HETATM    3  C5  UNL     1      71.476  49.923  22.148  1.00  0.00     0.106 A 
HETATM    4  C6  UNL     1      72.169  51.073  22.433  1.00  0.00     0.104 A 
HETATM    5  C7  UNL     1      71.602  52.295  22.081  1.00  0.00     0.146 A 
HETATM    6  N2  UNL     1      70.419  52.254  21.486  1.00  0.00    -0.322 N 
ATOM      7  H2  UNL     1      70.005  53.150  21.228  1.00  0.00     0.169 HD
HETATM    8  C9  UNL     1      69.709  51.153  21.189  1.00  0.00     0.119 A 
HETATM    9  N5  UNL     1      70.258  49.977  21.530  1.00  0.00    -0.328 N 
ATOM     10  H5  UNL     1      69.760  49.110  21.326  1.00  0.00     0.169 HD
ENDROOT
BRANCH   8  11
HETATM   11  C10 UNL     1      68.402  51.246  20.524  1.00  0.00     0.010 A 
HETATM   12  C11 UNL     1      68.087  50.227  19.618  1.00  0.00     0.018 A 
HETATM   13  C12 UNL     1      66.888  50.245  18.959  1.00  0.00     0.035 A 
HETATM   14  C13 UNL     1      66.003  51.268  19.194  1.00  0.00     0.091 A 
HETATM   15  C14 UNL     1      66.289  52.286  20.083  1.00  0.00     0.064 A 
HETATM   16  N4  UNL     1      64.761  51.561  18.707  1.00  0.00    -0.211 N 
HETATM   17  C15 UNL     1      67.520  52.254  20.749  1.00  0.00     0.047 A 
HETATM   18  N3  UNL     1      65.243  53.124  20.096  1.00  0.00    -0.342 N 
HETATM   19  C16 UNL     1      64.289  52.692  19.252  1.00  0.00     0.106 A 
ATOM     20  H3  UNL     1      65.180  53.968  20.664  1.00  0.00     0.167 HD
HETATM   21  C17 UNL     1      62.961  53.325  18.961  1.00  0.00     0.091 C 
BRANCH  16  22
HETATM   22  O2  UNL     1      64.148  50.742  17.778  1.00  0.00    -0.281 OA
ATOM     23  H2  UNL     1      64.496  50.651  16.899  1.00  0.00     0.245 HD
ENDBRANCH  16  22
ENDBRANCH   8  11
BRANCH   5  24
HETATM   24  O1  UNL     1      72.302  53.452  22.370  1.00  0.00    -0.341 OA
HETATM   25  C8  UNL     1      71.986  54.139  23.590  1.00  0.00     0.211 C 
ENDBRANCH   5  24
BRANCH   1  26
HETATM   26  C4  UNL     1      73.219  48.536  23.103  1.00  0.00     0.121 C 
BRANCH  26  27
HETATM   27  C3  UNL     1      73.788  47.151  22.765  1.00  0.00     0.019 C 
BRANCH  27  28
HETATM   28  C2  UNL     1      72.822  46.536  21.776  1.00  0.00    -0.003 C 
HETATM   29  C1  UNL     1      73.493  46.171  20.478  1.00  0.00     0.005 C 
ENDBRANCH  27  28
ENDBRANCH  26  27
ENDBRANCH   1  26
TORSDOF 6
ENDMDL
MODEL 5
REMARK VINA RESULT: -7.263329904      3.205      8.133
REMARK  6 active torsions:
REMARK  status: ('A' for Active; 'I' for Inactive)
REMARK    1  A    between atoms: C2_2  and  C3_3 
REMARK    2  A    between atoms: C3_3  and  C4_4 
REMARK    3  A    between atoms: C4_4  and  N1_5 
REMARK    4  A    between atoms: C7_9  and  O1_10 
REMARK    5  A    between atoms: C9_14  and  C10_15 
REMARK    6  A    between atoms: N4_25  and  O2_26 
ROOT
HETATM    1  N1  UNL     1      62.118  51.951  19.886  1.00  0.00    -0.376 N 
ATOM      2  H1  UNL     1      62.175  51.695  20.871  1.00  0.00     0.161 HD
HETATM    3  C5  UNL     1      63.217  52.273  19.310  1.00  0.00     0.106 A 
HETATM    4  C6  UNL     1      63.227  52.632  17.985  1.00  0.00     0.104 A 
HETATM    5  C7  UNL     1      64.441  52.974  17.397  1.00  0.00     0.146 A 
HETATM    6  N2  UNL     1      65.514  52.927  18.174  1.00  0.00    -0.322 N 
ATOM      7  H2  UNL     1      66.403  53.179  17.743  1.00  0.00     0.169 HD
HETATM    8  C9  UNL     1      65.549  52.582  19.472  1.00  0.00     0.119 A 
HETATM    9  N5  UNL     1      64.375  52.253  20.035  1.00  0.00    -0.328 N 
ATOM     10  H5  UNL     1      64.347  51.984  21.019  1.00  0.00     0.169 HD
ENDROOT
BRANCH   8  11
HETATM   11  C10 UNL     1      66.811  52.572  20.223  1.00  0.00     0.010 A 
HETATM   12  C11 UNL     1      67.084  53.701  21.004  1.00  0.00     0.018 A 
HETATM   13  C12 UNL     1      68.241  53.766  21.732  1.00  0.00     0.035 A 
HETATM   14  C13 UNL     1      69.125  52.717  21.689  1.00  0.00     0.091 A 
HETATM   15  C14 UNL     1      68.881  51.590  20.927  1.00  0.00     0.064 A 
HETATM   16  N4  UNL     1      70.333  52.486  22.285  1.00  0.00    -0.211 N 
HETATM   17  C15 UNL     1      67.693  51.540  20.187  1.00  0.00     0.047 A 
HETATM   18  N3  UNL     1      69.915  50.754  21.089  1.00  0.00    -0.342 N 
HETATM   19  C16 UNL     1      70.822  51.290  21.925  1.00  0.00     0.106 A 
ATOM     20  H3  UNL     1      70.002  49.841  20.642  1.00  0.00     0.167 HD
HETATM   21  C17 UNL     1      72.121  50.695  22.379  1.00  0.00     0.091 C 
BRANCH  16  22
HETATM   22  O2  UNL     1      70.899  53.418  23.134  1.00  0.00    -0.281 OA
ATOM     23  H2  UNL     1      70.981  53.248  24.064  1.00  0.00     0.245 HD
ENDBRANCH  16  22
ENDBRANCH   8  11
BRANCH   5  24
HETATM   24  O1  UNL     1      64.447  53.335  16.062  1.00  0.00    -0.341 OA
HETATM   25  C8  UNL     1      65.580  54.066  15.572  1.00  0.00     0.211 C 
ENDBRANCH   5  24
BRANCH   1  26
HETATM   26  C4  UNL     1      60.821  51.917  19.284  1.00  0.00     0.121 C 
BRANCH  26  27
HETATM   27  C3  UNL     1      59.854  52.918  19.930  1.00  0.00     0.019 C 
BRANCH  27  28
HETATM   28  C2  UNL     1      59.961  54.185  19.111  1.00  0.00    -0.003 C 
HETATM   29  C1  UNL     1      58.962  54.219  17.983  1.00  0.00     0.005 C 
ENDBRANCH  27  28
ENDBRANCH  26  27
ENDBRANCH   1  26
TORSDOF 6
ENDMDL
