MODEL 1
REMARK VINA RESULT: -6.463379920      0.000      0.000
REMARK  7 active torsions:
REMARK  status: ('A' for Active; 'I' for Inactive)
REMARK    1  A    between atoms: C2_2  and  C3_3 
REMARK    2  A    between atoms: C8_8  and  N1_9 
REMARK    3  A    between atoms: N1_9  and  C9_11 
REMARK    4  A    between atoms: C9_11  and  N2_13 
REMARK    5  A    between atoms: N2_13  and  C10_15 
REMARK    6  A    between atoms: C10_15  and  C11_16 
REMARK    7  A    between atoms: C11_16  and  N3_17 
ROOT
HETATM    1  N1  UNL     1      67.606  52.861  20.047  1.00  0.00    -0.333 N 
ATOM      2  H1  UNL     1      67.857  53.712  19.546  1.00  0.00     0.168 HD
ENDROOT
BRANCH   1   3
HETATM    3  C8  UNL     1      67.675  52.978  21.446  1.00  0.00     0.043 A 
HETATM    4  C3  UNL     1      68.948  53.137  22.030  1.00  0.00    -0.029 A 
HETATM    5  C4  UNL     1      69.022  53.242  23.416  1.00  0.00     0.049 A 
HETATM    6  C5  UNL     1      67.915  53.199  24.232  1.00  0.00     0.105 A 
HETATM    7  C6  UNL     1      66.674  53.044  23.663  1.00  0.00     0.107 A 
HETATM    8  O2  UNL     1      67.709  53.278  25.614  1.00  0.00    -0.323 OA
HETATM    9  C7  UNL     1      66.597  52.938  22.274  1.00  0.00     0.069 A 
HETATM   10  O1  UNL     1      65.725  53.028  24.666  1.00  0.00    -0.323 OA
HETATM   11  C16 UNL     1      66.385  52.820  25.917  1.00  0.00     0.352 C 
BRANCH   4  12
HETATM   12  C2  UNL     1      70.143  53.185  21.193  1.00  0.00     0.036 C 
HETATM   13  C1  UNL     1      71.195  54.167  21.630  1.00  0.00     0.010 C 
ENDBRANCH   4  12
ENDBRANCH   1   3
BRANCH   1  14
HETATM   14  C9  UNL     1      67.261  51.803  19.223  1.00  0.00     0.172 C 
HETATM   15  S1  UNL     1      68.131  50.445  19.077  1.00  0.00    -0.041 SA
BRANCH  14  16
HETATM   16  N2  UNL     1      66.016  51.907  18.470  1.00  0.00    -0.365 N 
ATOM     17  H2  UNL     1      66.036  52.379  17.566  1.00  0.00     0.161 HD
BRANCH  16  18
HETATM   18  C10 UNL     1      64.764  51.381  18.937  1.00  0.00     0.152 C 
BRANCH  18  19
HETATM   19  C11 UNL     1      63.843  52.484  19.314  1.00  0.00     0.292 C 
BRANCH  19  20
HETATM   20  N3  UNL     1      62.442  52.163  19.035  1.00  0.00     0.090 N 
HETATM   21  C12 UNL     1      61.651  52.129  20.223  1.00  0.00     0.272 C 
HETATM   22  C13 UNL     1      60.647  53.257  20.134  1.00  0.00     0.032 C 
HETATM   23  C14 UNL     1      61.374  54.202  19.176  1.00  0.00     0.032 C 
HETATM   24  C15 UNL     1      61.942  53.228  18.186  1.00  0.00     0.272 C 
ENDBRANCH  19  20
ENDBRANCH  18  19
ENDBRANCH  16  18
ENDBRANCH  14  16
ENDBRANCH   1  14
TORSDOF 7
ENDMDL
MODEL 2
REMARK VINA RESULT: -6.365083649      1.810      2.919
REMARK  7 active torsions:
REMARK  status: ('A' for Active; 'I' for Inactive)
REMARK    1  A    between atoms: C2_2  and  C3_3 
REMARK    2  A    between atoms: C8_8  and  N1_9 
REMARK    3  A    between atoms: N1_9  and  C9_11 
REMARK    4  A    between atoms: C9_11  and  N2_13 
REMARK    5  A    between atoms: N2_13  and  C10_15 
REMARK    6  A    between atoms: C10_15  and  C11_16 
REMARK    7  A    between atoms: C11_16  and  N3_17 
ROOT
HETATM    1  N1  UNL     1      65.557  53.262  19.815  1.00  0.00    -0.333 N 
ATOM      2  H1  UNL     1      65.722  54.028  19.164  1.00  0.00     0.168 HD
ENDROOT
BRANCH   1   3
HETATM    3  C8  UNL     1      66.580  53.086  20.763  1.00  0.00     0.043 A 
HETATM    4  C3  UNL     1      67.712  52.340  20.377  1.00  0.00    -0.029 A 
HETATM    5  C4  UNL     1      68.723  52.153  21.316  1.00  0.00     0.049 A 
HETATM    6  C5  UNL     1      68.665  52.663  22.592  1.00  0.00     0.105 A 
HETATM    7  C6  UNL     1      67.562  53.390  22.969  1.00  0.00     0.107 A 
HETATM    8  O2  UNL     1      69.514  52.628  23.704  1.00  0.00    -0.323 OA
HETATM    9  C7  UNL     1      66.547  53.578  22.030  1.00  0.00     0.069 A 
HETATM   10  O1  UNL     1      67.724  53.794  24.279  1.00  0.00    -0.323 OA
HETATM   11  C16 UNL     1      68.779  53.030  24.867  1.00  0.00     0.352 C 
BRANCH   4  12
HETATM   12  C2  UNL     1      67.805  51.783  19.030  1.00  0.00     0.036 C 
HETATM   13  C1  UNL     1      68.087  50.308  18.962  1.00  0.00     0.010 C 
ENDBRANCH   4  12
ENDBRANCH   1   3
BRANCH   1  14
HETATM   14  C9  UNL     1      64.367  52.587  19.603  1.00  0.00     0.172 C 
HETATM   15  S1  UNL     1      64.126  51.031  19.981  1.00  0.00    -0.041 SA
BRANCH  14  16
HETATM   16  N2  UNL     1      63.252  53.339  19.037  1.00  0.00    -0.365 N 
ATOM     17  H2  UNL     1      63.168  54.328  19.271  1.00  0.00     0.161 HD
BRANCH  16  18
HETATM   18  C10 UNL     1      62.268  52.758  18.167  1.00  0.00     0.152 C 
BRANCH  18  19
HETATM   19  C11 UNL     1      60.951  52.677  18.851  1.00  0.00     0.292 C 
BRANCH  19  20
HETATM   20  N3  UNL     1      60.464  53.989  19.283  1.00  0.00     0.090 N 
HETATM   21  C12 UNL     1      59.324  54.412  18.536  1.00  0.00     0.272 C 
HETATM   22  C13 UNL     1      58.152  54.478  19.491  1.00  0.00     0.032 C 
HETATM   23  C14 UNL     1      58.614  53.491  20.565  1.00  0.00     0.032 C 
HETATM   24  C15 UNL     1      60.070  53.839  20.671  1.00  0.00     0.272 C 
ENDBRANCH  19  20
ENDBRANCH  18  19
ENDBRANCH  16  18
ENDBRANCH  14  16
ENDBRANCH   1  14
TORSDOF 7
ENDMDL
MODEL 3
REMARK VINA RESULT: -6.308244871      3.112      4.112
REMARK  7 active torsions:
REMARK  status: ('A' for Active; 'I' for Inactive)
REMARK    1  A    between atoms: C2_2  and  C3_3 
REMARK    2  A    between atoms: C8_8  and  N1_9 
REMARK    3  A    between atoms: N1_9  and  C9_11 
REMARK    4  A    between atoms: C9_11  and  N2_13 
REMARK    5  A    between atoms: N2_13  and  C10_15 
REMARK    6  A    between atoms: C10_15  and  C11_16 
REMARK    7  A    between atoms: C11_16  and  N3_17 
ROOT
HETATM    1  N1  UNL     1      66.161  50.951  18.634  1.00  0.00    -0.333 N 
ATOM      2  H1  UNL     1      66.258  50.537  17.708  1.00  0.00     0.168 HD
ENDROOT
BRANCH   1   3
HETATM    3  C8  UNL     1      67.367  51.032  19.352  1.00  0.00     0.043 A 
HETATM    4  C3  UNL     1      67.832  49.865  19.990  1.00  0.00    -0.029 A 
HETATM    5  C4  UNL     1      69.020  49.943  20.713  1.00  0.00     0.049 A 
HETATM    6  C5  UNL     1      69.752  51.102  20.828  1.00  0.00     0.105 A 
HETATM    7  C6  UNL     1      69.299  52.240  20.207  1.00  0.00     0.107 A 
HETATM    8  O2  UNL     1      70.944  51.452  21.473  1.00  0.00    -0.323 OA
HETATM    9  C7  UNL     1      68.109  52.164  19.482  1.00  0.00     0.069 A 
HETATM   10  O1  UNL     1      70.187  53.267  20.460  1.00  0.00    -0.323 OA
HETATM   11  C16 UNL     1      71.038  52.880  21.541  1.00  0.00     0.352 C 
BRANCH   4  12
HETATM   12  C2  UNL     1      67.078  48.618  19.889  1.00  0.00     0.036 C 
HETATM   13  C1  UNL     1      66.306  48.232  21.121  1.00  0.00     0.010 C 
ENDBRANCH   4  12
ENDBRANCH   1   3
BRANCH   1  14
HETATM   14  C9  UNL     1      64.868  51.328  18.952  1.00  0.00     0.172 C 
HETATM   15  S1  UNL     1      64.292  51.412  20.463  1.00  0.00    -0.041 SA
BRANCH  14  16
HETATM   16  N2  UNL     1      63.984  51.709  17.855  1.00  0.00    -0.365 N 
ATOM     17  H2  UNL     1      63.895  51.073  17.063  1.00  0.00     0.161 HD
BRANCH  16  18
HETATM   18  C10 UNL     1      63.233  52.933  17.835  1.00  0.00     0.152 C 
BRANCH  18  19
HETATM   19  C11 UNL     1      61.779  52.654  17.963  1.00  0.00     0.292 C 
BRANCH  19  20
HETATM   20  N3  UNL     1      61.083  53.670  18.755  1.00  0.00     0.090 N 
HETATM   21  C12 UNL     1      59.793  53.976  18.224  1.00  0.00     0.272 C 
HETATM   22  C13 UNL     1      58.765  53.532  19.242  1.00  0.00     0.032 C 
HETATM   23  C14 UNL     1      59.558  52.457  19.986  1.00  0.00     0.032 C 
HETATM   24  C15 UNL     1      60.908  53.105  20.079  1.00  0.00     0.272 C 
ENDBRANCH  19  20
ENDBRANCH  18  19
ENDBRANCH  16  18
ENDBRANCH  14  16
ENDBRANCH   1  14
TORSDOF 7
ENDMDL
MODEL 4
REMARK VINA RESULT: -6.291457863      3.096      3.724
REMARK  7 active torsions:
REMARK  status: ('A' for Active; 'I' for Inactive)
REMARK    1  A    between atoms: C2_2  and  C3_3 
REMARK    2  A    between atoms: C8_8  and  N1_9 
REMARK    3  A    between atoms: N1_9  and  C9_11 
REMARK    4  A    between atoms: C9_11  and  N2_13 
REMARK    5  A    between atoms: N2_13  and  C10_15 
REMARK    6  A    between atoms: C10_15  and  C11_16 
REMARK    7  A    between atoms: C11_16  and  N3_17 
ROOT
HETATM    1  N1  UNL     1      68.785  50.022  20.090  1.00  0.00    -0.333 N 
ATOM      2  H1  UNL     1      69.220  49.190  19.692  1.00  0.00     0.168 HD
ENDROOT
BRANCH   1   3
HETATM    3  C8  UNL     1      69.692  50.902  20.706  1.00  0.00     0.043 A 
HETATM    4  C3  UNL     1      70.588  50.365  21.652  1.00  0.00    -0.029 A 
HETATM    5  C4  UNL     1      71.480  51.235  22.274  1.00  0.00     0.049 A 
HETATM    6  C5  UNL     1      71.523  52.583  22.006  1.00  0.00     0.105 A 
HETATM    7  C6  UNL     1      70.649  53.107  21.085  1.00  0.00     0.107 A 
HETATM    8  O2  UNL     1      72.294  53.655  22.471  1.00  0.00    -0.323 OA
HETATM    9  C7  UNL     1      69.754  52.237  20.460  1.00  0.00     0.069 A 
HETATM   10  O1  UNL     1      70.874  54.466  20.982  1.00  0.00    -0.323 OA
HETATM   11  C16 UNL     1      71.661  54.885  22.099  1.00  0.00     0.352 C 
BRANCH   4  12
HETATM   12  C2  UNL     1      70.569  48.938  21.962  1.00  0.00     0.036 C 
HETATM   13  C1  UNL     1      71.919  48.287  22.079  1.00  0.00     0.010 C 
ENDBRANCH   4  12
ENDBRANCH   1   3
BRANCH   1  14
HETATM   14  C9  UNL     1      67.412  50.075  19.924  1.00  0.00     0.172 C 
HETATM   15  S1  UNL     1      66.356  49.245  20.827  1.00  0.00    -0.041 SA
BRANCH  14  16
HETATM   16  N2  UNL     1      66.888  50.964  18.892  1.00  0.00    -0.365 N 
ATOM     17  H2  UNL     1      66.882  50.635  17.927  1.00  0.00     0.161 HD
BRANCH  16  18
HETATM   18  C10 UNL     1      66.379  52.279  19.168  1.00  0.00     0.152 C 
BRANCH  18  19
HETATM   19  C11 UNL     1      65.317  52.641  18.193  1.00  0.00     0.292 C 
BRANCH  19  20
HETATM   20  N3  UNL     1      64.093  51.861  18.386  1.00  0.00     0.090 N 
HETATM   21  C12 UNL     1      63.465  52.145  19.636  1.00  0.00     0.272 C 
HETATM   22  C13 UNL     1      62.131  52.795  19.340  1.00  0.00     0.032 C 
HETATM   23  C14 UNL     1      62.407  53.372  17.950  1.00  0.00     0.032 C 
HETATM   24  C15 UNL     1      63.188  52.256  17.323  1.00  0.00     0.272 C 
ENDBRANCH  19  20
ENDBRANCH  18  19
ENDBRANCH  16  18
ENDBRANCH  14  16
ENDBRANCH   1  14
TORSDOF 7
ENDMDL
MODEL 5
REMARK VINA RESULT: -6.249642726      3.231      7.054
REMARK  7 active torsions:
REMARK  status: ('A' for Active; 'I' for Inactive)
REMARK    1  A    between atoms: C2_2  and  C3_3 
REMARK    2  A    between atoms: C8_8  and  N1_9 
REMARK    3  A    between atoms: N1_9  and  C9_11 
REMARK    4  A    between atoms: C9_11  and  N2_13 
REMARK    5  A    between atoms: N2_13  and  C10_15 
REMARK    6  A    between atoms: C10_15  and  C11_16 
REMARK    7  A    between atoms: C11_16  and  N3_17 
ROOT
HETATM    1  N1  UNL     1      68.128  52.948  20.854  1.00  0.00    -0.333 N 
ATOM      2  H1  UNL     1      68.973  52.565  20.431  1.00  0.00     0.168 HD
ENDROOT
BRANCH   1   3
HETATM    3  C8  UNL     1      66.936  52.472  20.281  1.00  0.00     0.043 A 
HETATM    4  C3  UNL     1      66.959  51.198  19.678  1.00  0.00    -0.029 A 
HETATM    5  C4  UNL     1      65.784  50.728  19.099  1.00  0.00     0.049 A 
HETATM    6  C5  UNL     1      64.611  51.447  19.091  1.00  0.00     0.105 A 
HETATM    7  C6  UNL     1      64.588  52.689  19.678  1.00  0.00     0.107 A 
HETATM    8  O2  UNL     1      63.322  51.222  18.595  1.00  0.00    -0.323 OA
HETATM    9  C7  UNL     1      65.765  53.163  20.259  1.00  0.00     0.069 A 
HETATM   10  O1  UNL     1      63.319  53.218  19.549  1.00  0.00    -0.323 OA
HETATM   11  C16 UNL     1      62.607  52.463  18.566  1.00  0.00     0.352 C 
BRANCH   4  12
HETATM   12  C2  UNL     1      68.187  50.409  19.667  1.00  0.00     0.036 C 
HETATM   13  C1  UNL     1      68.333  49.430  20.800  1.00  0.00     0.010 C 
ENDBRANCH   4  12
ENDBRANCH   1   3
BRANCH   1  14
HETATM   14  C9  UNL     1      68.368  53.840  21.885  1.00  0.00     0.172 C 
HETATM   15  S1  UNL     1      67.646  53.770  23.332  1.00  0.00    -0.041 SA
BRANCH  14  16
HETATM   16  N2  UNL     1      69.362  54.885  21.660  1.00  0.00    -0.365 N 
ATOM     17  H2  UNL     1      69.059  55.754  21.222  1.00  0.00     0.161 HD
BRANCH  16  18
HETATM   18  C10 UNL     1      70.745  54.751  22.025  1.00  0.00     0.152 C 
BRANCH  18  19
HETATM   19  C11 UNL     1      71.299  53.473  21.505  1.00  0.00     0.292 C 
BRANCH  19  20
HETATM   20  N3  UNL     1      72.020  52.718  22.532  1.00  0.00     0.090 N 
HETATM   21  C12 UNL     1      71.597  53.063  23.851  1.00  0.00     0.272 C 
HETATM   22  C13 UNL     1      70.942  51.840  24.454  1.00  0.00     0.032 C 
HETATM   23  C14 UNL     1      70.511  51.102  23.185  1.00  0.00     0.032 C 
HETATM   24  C15 UNL     1      71.706  51.321  22.304  1.00  0.00     0.272 C 
ENDBRANCH  19  20
ENDBRANCH  18  19
ENDBRANCH  16  18
ENDBRANCH  14  16
ENDBRANCH   1  14
TORSDOF 7
ENDMDL
