MODEL 1
REMARK VINA RESULT: -7.482849419      0.000      0.000
REMARK  14 active torsions:
REMARK  status: ('A' for Active; 'I' for Inactive)
REMARK    1  A    between atoms: N1_1  and  C1_4 
REMARK    2  A    between atoms: C2_7  and  C3_8 
REMARK    3  A    between atoms: C4_13  and  S1_14 
REMARK    4  A    between atoms: S1_14  and  C5_15 
REMARK    5  A    between atoms: C5_15  and  C6_16 
REMARK    6  A    between atoms: C6_16  and  O1_17 
REMARK    7  A    between atoms: C6_16  and  C7_19 
REMARK    8  A    between atoms: C7_19  and  O2_20 
REMARK    9  A    between atoms: C7_19  and  C8_22 
REMARK   10  A    between atoms: C8_22  and  O3_23 
REMARK   11  A    between atoms: N5_25  and  N6_26 
REMARK   12  A    between atoms: C11_35  and  O4_36 
REMARK   13  A    between atoms: C11_35  and  C12_38 
REMARK   14  A    between atoms: C13_44  and  N13_45 
ROOT
HETATM    1  C3  UNL     1      23.277  27.363   1.259  1.00  0.00     0.190 A 
HETATM    2  N3  UNL     1      23.813  28.043   0.199  1.00  0.00    -0.279 N 
ATOM      3  H3  UNL     1      24.561  28.732   0.271  1.00  0.00     0.189 HD
HETATM    4  N4  UNL     1      23.246  27.697  -0.895  1.00  0.00    -0.277 N 
ATOM      5  H4  UNL     1      23.463  28.056  -1.825  1.00  0.00     0.189 HD
HETATM    6  C4  UNL     1      22.294  26.757  -0.592  1.00  0.00     0.183 A 
HETATM    7  N5  UNL     1      22.325  26.566   0.735  1.00  0.00    -0.202 N 
ENDROOT
BRANCH   7   8
HETATM    8  N6  UNL     1      21.476  25.717   1.484  1.00  0.00    -0.192 N 
HETATM    9  C9  UNL     1      20.244  26.364   1.878  1.00  0.00     0.216 C 
HETATM   10  N7  UNL     1      20.068  27.771   1.767  1.00  0.00    -0.061 NA
HETATM   11  N8  UNL     1      19.232  25.702   2.353  1.00  0.00    -0.303 N 
HETATM   12  C10 UNL     1      19.338  24.291   2.523  1.00  0.00     0.194 C 
ATOM     13  H8  UNL     1      18.371  26.187   2.603  1.00  0.00     0.171 HD
HETATM   14  N9  UNL     1      18.237  23.533   3.004  1.00  0.00    -0.063 NA
HETATM   15  N10 UNL     1      20.408  23.700   2.249  1.00  0.00    -0.308 N 
HETATM   16  C11 UNL     1      21.652  24.352   1.760  1.00  0.00     0.290 C 
ATOM     17  H10 UNL     1      20.428  22.687   2.371  1.00  0.00     0.167 HD
BRANCH  16  18
HETATM   18  O4  UNL     1      22.098  23.660   0.640  1.00  0.00    -0.347 OA
ATOM     19  H4  UNL     1      22.145  22.727   0.805  1.00  0.00     0.215 HD
ENDBRANCH  16  18
BRANCH  16  20
HETATM   20  C12 UNL     1      22.592  23.971   2.861  1.00  0.00     0.158 A 
HETATM   21  N11 UNL     1      22.369  24.302   4.150  1.00  0.00    -0.235 N 
HETATM   22  O5  UNL     1      23.328  23.852   4.905  1.00  0.00    -0.155 OA
ATOM     23  H11 UNL     1      21.563  24.829   4.486  1.00  0.00     0.197 HD
HETATM   24  N12 UNL     1      24.187  23.226   4.134  1.00  0.00    -0.224 N 
HETATM   25  C13 UNL     1      23.767  23.277   2.867  1.00  0.00     0.153 A 
ATOM     26  H12 UNL     1      25.043  22.770   4.454  1.00  0.00     0.198 HD
BRANCH  25  27
HETATM   27  N13 UNL     1      24.345  22.777   1.864  1.00  0.00    -0.382 N 
ATOM     28 2H13 UNL     1      23.988  22.752   0.908  1.00  0.00     0.157 HD
ATOM     29 1H13 UNL     1      25.259  22.324   1.857  1.00  0.00     0.157 HD
ENDBRANCH  25  27
ENDBRANCH  16  20
ENDBRANCH   7   8
BRANCH   1  30
HETATM   30  C2  UNL     1      23.730  27.489   2.671  1.00  0.00     0.162 A 
HETATM   31  N2  UNL     1      24.832  26.869   3.084  1.00  0.00    -0.318 N 
HETATM   32  C1  UNL     1      25.158  26.984   4.370  1.00  0.00     0.160 A 
ATOM     33  H2  UNL     1      25.406  26.326   2.439  1.00  0.00     0.169 HD
HETATM   34  S2  UNL     1      23.921  27.961   4.999  1.00  0.00     0.024 SA
HETATM   35  N14 UNL     1      23.053  28.170   3.592  1.00  0.00    -0.306 N 
ATOM     36  H14 UNL     1      22.192  28.703   3.465  1.00  0.00     0.176 HD
BRANCH  32  37
HETATM   37  N1  UNL     1      26.207  26.445   4.955  1.00  0.00    -0.379 N 
ATOM     38  H12 UNL     1      26.858  26.830   5.639  1.00  0.00     0.158 HD
ATOM     39  H11 UNL     1      26.557  25.499   4.807  1.00  0.00     0.158 HD
ENDBRANCH  32  37
ENDBRANCH   1  30
BRANCH   6  40
HETATM   40  S1  UNL     1      21.278  25.941  -1.799  1.00  0.00    -0.088 SA
BRANCH  40  41
HETATM   41  C5  UNL     1      19.540  26.118  -1.570  1.00  0.00     0.116 C 
BRANCH  41  42
HETATM   42  C6  UNL     1      18.749  24.920  -1.208  1.00  0.00     0.158 C 
BRANCH  42  43
HETATM   43  O1  UNL     1      19.514  23.815  -0.939  1.00  0.00    -0.392 OA
ATOM     44  H1  UNL     1      19.477  23.537  -0.031  1.00  0.00     0.210 HD
ENDBRANCH  42  43
BRANCH  42  45
HETATM   45  C7  UNL     1      17.613  24.623  -2.159  1.00  0.00     0.171 C 
BRANCH  45  46
HETATM   46  O2  UNL     1      16.373  24.907  -1.655  1.00  0.00    -0.391 OA
ATOM     47  H2  UNL     1      15.694  24.304  -1.931  1.00  0.00     0.210 HD
ENDBRANCH  45  46
BRANCH  45  48
HETATM   48  C8  UNL     1      17.834  25.471  -3.392  1.00  0.00     0.198 C 
BRANCH  48  49
HETATM   49  O3  UNL     1      18.247  24.755  -4.486  1.00  0.00    -0.398 OA
ATOM     50  H3  UNL     1      18.707  25.277  -5.134  1.00  0.00     0.209 HD
ENDBRANCH  48  49
ENDBRANCH  45  48
ENDBRANCH  42  45
ENDBRANCH  41  42
ENDBRANCH  40  41
ENDBRANCH   6  40
TORSDOF 14
ENDMDL
MODEL 2
REMARK VINA RESULT: -7.411763580      2.764      6.907
REMARK  14 active torsions:
REMARK  status: ('A' for Active; 'I' for Inactive)
REMARK    1  A    between atoms: N1_1  and  C1_4 
REMARK    2  A    between atoms: C2_7  and  C3_8 
REMARK    3  A    between atoms: C4_13  and  S1_14 
REMARK    4  A    between atoms: S1_14  and  C5_15 
REMARK    5  A    between atoms: C5_15  and  C6_16 
REMARK    6  A    between atoms: C6_16  and  O1_17 
REMARK    7  A    between atoms: C6_16  and  C7_19 
REMARK    8  A    between atoms: C7_19  and  O2_20 
REMARK    9  A    between atoms: C7_19  and  C8_22 
REMARK   10  A    between atoms: C8_22  and  O3_23 
REMARK   11  A    between atoms: N5_25  and  N6_26 
REMARK   12  A    between atoms: C11_35  and  O4_36 
REMARK   13  A    between atoms: C11_35  and  C12_38 
REMARK   14  A    between atoms: C13_44  and  N13_45 
ROOT
HETATM    1  C3  UNL     1      22.729  27.788   1.871  1.00  0.00     0.190 A 
HETATM    2  N3  UNL     1      22.665  29.059   2.374  1.00  0.00    -0.279 N 
ATOM      3  H3  UNL     1      22.276  29.860   1.878  1.00  0.00     0.189 HD
HETATM    4  N4  UNL     1      23.161  29.105   3.554  1.00  0.00    -0.277 N 
ATOM      5  H4  UNL     1      23.232  29.934   4.144  1.00  0.00     0.189 HD
HETATM    6  C4  UNL     1      23.581  27.840   3.879  1.00  0.00     0.183 A 
HETATM    7  N5  UNL     1      23.311  27.045   2.833  1.00  0.00    -0.202 N 
ENDROOT
BRANCH   7   8
HETATM    8  N6  UNL     1      23.623  25.669   2.719  1.00  0.00    -0.192 N 
HETATM    9  C9  UNL     1      25.009  25.436   2.381  1.00  0.00     0.216 C 
HETATM   10  N7  UNL     1      25.858  26.486   1.932  1.00  0.00    -0.061 NA
HETATM   11  N8  UNL     1      25.558  24.262   2.465  1.00  0.00    -0.303 N 
HETATM   12  C10 UNL     1      24.768  23.150   2.879  1.00  0.00     0.194 C 
ATOM     13  H8  UNL     1      26.544  24.136   2.238  1.00  0.00     0.171 HD
HETATM   14  N9  UNL     1      25.346  21.860   3.019  1.00  0.00    -0.063 NA
HETATM   15  N10 UNL     1      23.548  23.298   3.125  1.00  0.00    -0.308 N 
HETATM   16  C11 UNL     1      22.793  24.573   3.004  1.00  0.00     0.290 C 
ATOM     17  H10 UNL     1      23.030  22.476   3.435  1.00  0.00     0.167 HD
BRANCH  16  18
HETATM   18  O4  UNL     1      22.075  24.771   4.178  1.00  0.00    -0.347 OA
ATOM     19  H4  UNL     1      21.140  24.704   4.028  1.00  0.00     0.215 HD
ENDBRANCH  16  18
BRANCH  16  20
HETATM   20  C12 UNL     1      21.776  24.174   1.981  1.00  0.00     0.158 A 
HETATM   21  N11 UNL     1      22.120  23.703   0.764  1.00  0.00    -0.235 N 
HETATM   22  O5  UNL     1      21.055  23.428   0.069  1.00  0.00    -0.155 OA
ATOM     23  H11 UNL     1      23.078  23.581   0.435  1.00  0.00     0.197 HD
HETATM   24  N12 UNL     1      20.007  23.708   0.808  1.00  0.00    -0.224 N 
HETATM   25  C13 UNL     1      20.412  24.170   1.994  1.00  0.00     0.153 A 
ATOM     26  H12 UNL     1      19.035  23.591   0.520  1.00  0.00     0.198 HD
BRANCH  25  27
HETATM   27  N13 UNL     1      19.673  24.533   2.949  1.00  0.00    -0.382 N 
ATOM     28 2H13 UNL     1      18.892  24.010   3.346  1.00  0.00     0.157 HD
ATOM     29 1H13 UNL     1      19.745  25.407   3.471  1.00  0.00     0.157 HD
ENDBRANCH  25  27
ENDBRANCH  16  20
ENDBRANCH   7   8
BRANCH   1  30
HETATM   30  C2  UNL     1      22.204  27.367   0.543  1.00  0.00     0.162 A 
HETATM   31  N2  UNL     1      23.019  27.263  -0.502  1.00  0.00    -0.318 N 
HETATM   32  C1  UNL     1      22.480  26.927  -1.673  1.00  0.00     0.160 A 
ATOM     33  H2  UNL     1      24.021  27.434  -0.411  1.00  0.00     0.169 HD
HETATM   34  S2  UNL     1      20.832  26.757  -1.307  1.00  0.00     0.024 SA
HETATM   35  N14 UNL     1      20.916  27.124   0.317  1.00  0.00    -0.306 N 
ATOM     36  H14 UNL     1      20.149  27.154   0.988  1.00  0.00     0.176 HD
BRANCH  32  37
HETATM   37  N1  UNL     1      23.127  26.776  -2.809  1.00  0.00    -0.379 N 
ATOM     38  H12 UNL     1      24.116  26.608  -2.994  1.00  0.00     0.158 HD
ATOM     39  H11 UNL     1      22.717  26.806  -3.742  1.00  0.00     0.158 HD
ENDBRANCH  32  37
ENDBRANCH   1  30
BRANCH   6  40
HETATM   40  S1  UNL     1      24.295  27.398   5.443  1.00  0.00    -0.088 SA
BRANCH  40  41
HETATM   41  C5  UNL     1      25.771  28.259   5.873  1.00  0.00     0.116 C 
BRANCH  41  42
HETATM   42  C6  UNL     1      25.710  29.729   6.037  1.00  0.00     0.158 C 
BRANCH  42  43
HETATM   43  O1  UNL     1      24.494  30.185   6.476  1.00  0.00    -0.392 OA
ATOM     44  H1  UNL     1      24.550  30.965   7.014  1.00  0.00     0.210 HD
ENDBRANCH  42  43
BRANCH  42  45
HETATM   45  C7  UNL     1      26.225  30.503   4.846  1.00  0.00     0.171 C 
BRANCH  45  46
HETATM   46  O2  UNL     1      26.123  29.835   3.657  1.00  0.00    -0.391 OA
ATOM     47  H2  UNL     1      26.735  29.115   3.562  1.00  0.00     0.210 HD
ENDBRANCH  45  46
BRANCH  45  48
HETATM   48  C8  UNL     1      25.405  31.772   4.755  1.00  0.00     0.198 C 
BRANCH  48  49
HETATM   49  O3  UNL     1      24.291  31.652   3.964  1.00  0.00    -0.398 OA
ATOM     50  H3  UNL     1      23.899  32.485   3.728  1.00  0.00     0.209 HD
ENDBRANCH  48  49
ENDBRANCH  45  48
ENDBRANCH  42  45
ENDBRANCH  41  42
ENDBRANCH  40  41
ENDBRANCH   6  40
TORSDOF 14
ENDMDL
MODEL 3
REMARK VINA RESULT: -7.406921968      2.224      4.832
REMARK  14 active torsions:
REMARK  status: ('A' for Active; 'I' for Inactive)
REMARK    1  A    between atoms: N1_1  and  C1_4 
REMARK    2  A    between atoms: C2_7  and  C3_8 
REMARK    3  A    between atoms: C4_13  and  S1_14 
REMARK    4  A    between atoms: S1_14  and  C5_15 
REMARK    5  A    between atoms: C5_15  and  C6_16 
REMARK    6  A    between atoms: C6_16  and  O1_17 
REMARK    7  A    between atoms: C6_16  and  C7_19 
REMARK    8  A    between atoms: C7_19  and  O2_20 
REMARK    9  A    between atoms: C7_19  and  C8_22 
REMARK   10  A    between atoms: C8_22  and  O3_23 
REMARK   11  A    between atoms: N5_25  and  N6_26 
REMARK   12  A    between atoms: C11_35  and  O4_36 
REMARK   13  A    between atoms: C11_35  and  C12_38 
REMARK   14  A    between atoms: C13_44  and  N13_45 
ROOT
HETATM    1  C3  UNL     1      21.157  23.158   2.358  1.00  0.00     0.190 A 
HETATM    2  N3  UNL     1      20.039  22.377   2.468  1.00  0.00    -0.279 N 
ATOM      3  H3  UNL     1      19.968  21.543   3.051  1.00  0.00     0.189 HD
HETATM    4  N4  UNL     1      19.092  22.835   1.738  1.00  0.00    -0.277 N 
ATOM      5  H4  UNL     1      18.158  22.437   1.644  1.00  0.00     0.189 HD
HETATM    6  C4  UNL     1      19.561  23.959   1.105  1.00  0.00     0.183 A 
HETATM    7  N5  UNL     1      20.831  24.140   1.495  1.00  0.00    -0.202 N 
ENDROOT
BRANCH   7   8
HETATM    8  N6  UNL     1      21.713  25.153   1.048  1.00  0.00    -0.192 N 
HETATM    9  C9  UNL     1      21.689  26.328   1.891  1.00  0.00     0.216 C 
HETATM   10  N7  UNL     1      20.675  26.527   2.869  1.00  0.00    -0.061 NA
HETATM   11  N8  UNL     1      22.585  27.264   1.805  1.00  0.00    -0.303 N 
HETATM   12  C10 UNL     1      23.618  27.154   0.830  1.00  0.00     0.194 C 
ATOM     13  H8  UNL     1      22.549  28.070   2.429  1.00  0.00     0.171 HD
HETATM   14  N9  UNL     1      24.636  28.142   0.736  1.00  0.00    -0.063 NA
HETATM   15  N10 UNL     1      23.642  26.181   0.041  1.00  0.00    -0.308 N 
HETATM   16  C11 UNL     1      22.641  25.082  -0.002  1.00  0.00     0.290 C 
ATOM     17  H10 UNL     1      24.412  26.140  -0.627  1.00  0.00     0.167 HD
BRANCH  16  18
HETATM   18  O4  UNL     1      23.321  23.870   0.000  1.00  0.00    -0.347 OA
ATOM     19  H4  UNL     1      23.707  23.687  -0.847  1.00  0.00     0.215 HD
ENDBRANCH  16  18
BRANCH  16  20
HETATM   20  C12 UNL     1      22.136  25.250  -1.402  1.00  0.00     0.158 A 
HETATM   21  N11 UNL     1      22.243  24.278  -2.332  1.00  0.00    -0.235 N 
HETATM   22  O5  UNL     1      21.727  24.672  -3.459  1.00  0.00    -0.155 OA
ATOM     23  H11 UNL     1      22.667  23.364  -2.173  1.00  0.00     0.197 HD
HETATM   24  N12 UNL     1      21.279  25.894  -3.291  1.00  0.00    -0.224 N 
HETATM   25  C13 UNL     1      21.512  26.285  -2.036  1.00  0.00     0.153 A 
ATOM     26  H12 UNL     1      20.822  26.458  -4.009  1.00  0.00     0.198 HD
BRANCH  25  27
HETATM   27  N13 UNL     1      21.212  27.400  -1.528  1.00  0.00    -0.382 N 
ATOM     28 2H13 UNL     1      21.602  27.804  -0.676  1.00  0.00     0.157 HD
ATOM     29 1H13 UNL     1      20.533  28.067  -1.895  1.00  0.00     0.157 HD
ENDBRANCH  25  27
ENDBRANCH  16  20
ENDBRANCH   7   8
BRANCH   1  30
HETATM   30  C2  UNL     1      22.427  22.939   3.103  1.00  0.00     0.162 A 
HETATM   31  N2  UNL     1      23.373  22.148   2.605  1.00  0.00    -0.318 N 
HETATM   32  C1  UNL     1      24.467  21.957   3.340  1.00  0.00     0.160 A 
ATOM     33  H2  UNL     1      23.265  21.704   1.693  1.00  0.00     0.169 HD
HETATM   34  S2  UNL     1      24.169  22.887   4.728  1.00  0.00     0.024 SA
HETATM   35  N14 UNL     1      22.668  23.469   4.299  1.00  0.00    -0.306 N 
ATOM     36  H14 UNL     1      22.065  24.093   4.836  1.00  0.00     0.176 HD
BRANCH  32  37
HETATM   37  N1  UNL     1      25.502  21.213   3.012  1.00  0.00    -0.379 N 
ATOM     38  H12 UNL     1      25.567  20.395   2.405  1.00  0.00     0.158 HD
ATOM     39  H11 UNL     1      26.461  21.342   3.333  1.00  0.00     0.158 HD
ENDBRANCH  32  37
ENDBRANCH   1  30
BRANCH   6  40
HETATM   40  S1  UNL     1      18.587  24.972   0.020  1.00  0.00    -0.088 SA
BRANCH  40  41
HETATM   41  C5  UNL     1      18.211  24.260  -1.548  1.00  0.00     0.116 C 
BRANCH  41  42
HETATM   42  C6  UNL     1      17.199  24.923  -2.400  1.00  0.00     0.158 C 
BRANCH  42  43
HETATM   43  O1  UNL     1      16.142  24.115  -2.732  1.00  0.00    -0.392 OA
ATOM     44  H1  UNL     1      15.330  24.587  -2.870  1.00  0.00     0.210 HD
ENDBRANCH  42  43
BRANCH  42  45
HETATM   45  C7  UNL     1      17.778  25.643  -3.596  1.00  0.00     0.171 C 
BRANCH  45  46
HETATM   46  O2  UNL     1      18.552  24.855  -4.403  1.00  0.00    -0.391 OA
ATOM     47  H2  UNL     1      19.247  25.322  -4.852  1.00  0.00     0.210 HD
ENDBRANCH  45  46
BRANCH  45  48
HETATM   48  C8  UNL     1      16.610  26.159  -4.409  1.00  0.00     0.198 C 
BRANCH  48  49
HETATM   49  O3  UNL     1      16.359  25.425  -5.540  1.00  0.00    -0.398 OA
ATOM     50  H3  UNL     1      15.884  24.619  -5.374  1.00  0.00     0.209 HD
ENDBRANCH  48  49
ENDBRANCH  45  48
ENDBRANCH  42  45
ENDBRANCH  41  42
ENDBRANCH  40  41
ENDBRANCH   6  40
TORSDOF 14
ENDMDL
MODEL 4
REMARK VINA RESULT: -7.369297907      3.051      6.738
REMARK  14 active torsions:
REMARK  status: ('A' for Active; 'I' for Inactive)
REMARK    1  A    between atoms: N1_1  and  C1_4 
REMARK    2  A    between atoms: C2_7  and  C3_8 
REMARK    3  A    between atoms: C4_13  and  S1_14 
REMARK    4  A    between atoms: S1_14  and  C5_15 
REMARK    5  A    between atoms: C5_15  and  C6_16 
REMARK    6  A    between atoms: C6_16  and  O1_17 
REMARK    7  A    between atoms: C6_16  and  C7_19 
REMARK    8  A    between atoms: C7_19  and  O2_20 
REMARK    9  A    between atoms: C7_19  and  C8_22 
REMARK   10  A    between atoms: C8_22  and  O3_23 
REMARK   11  A    between atoms: N5_25  and  N6_26 
REMARK   12  A    between atoms: C11_35  and  O4_36 
REMARK   13  A    between atoms: C11_35  and  C12_38 
REMARK   14  A    between atoms: C13_44  and  N13_45 
ROOT
HETATM    1  C3  UNL     1      22.095  26.367  -0.336  1.00  0.00     0.190 A 
HETATM    2  N3  UNL     1      22.634  27.079  -1.373  1.00  0.00    -0.279 N 
ATOM      3  H3  UNL     1      22.343  26.995  -2.347  1.00  0.00     0.189 HD
HETATM    4  N4  UNL     1      23.553  27.865  -0.954  1.00  0.00    -0.277 N 
ATOM      5  H4  UNL     1      24.107  28.502  -1.526  1.00  0.00     0.189 HD
HETATM    6  C4  UNL     1      23.658  27.696   0.404  1.00  0.00     0.183 A 
HETATM    7  N5  UNL     1      22.757  26.771   0.765  1.00  0.00    -0.202 N 
ENDROOT
BRANCH   7   8
HETATM    8  N6  UNL     1      22.557  26.254   2.068  1.00  0.00    -0.192 N 
HETATM    9  C9  UNL     1      23.452  25.161   2.380  1.00  0.00     0.216 C 
HETATM   10  N7  UNL     1      24.223  24.514   1.375  1.00  0.00    -0.061 NA
HETATM   11  N8  UNL     1      23.602  24.710   3.589  1.00  0.00    -0.303 N 
HETATM   12  C10 UNL     1      22.844  25.285   4.649  1.00  0.00     0.194 C 
ATOM     13  H8  UNL     1      24.257  23.951   3.777  1.00  0.00     0.171 HD
HETATM   14  N9  UNL     1      23.013  24.840   5.987  1.00  0.00    -0.063 NA
HETATM   15  N10 UNL     1      22.015  26.194   4.412  1.00  0.00    -0.308 N 
HETATM   16  C11 UNL     1      21.706  26.750   3.068  1.00  0.00     0.290 C 
ATOM     17  H10 UNL     1      21.509  26.585   5.207  1.00  0.00     0.167 HD
BRANCH  16  18
HETATM   18  O4  UNL     1      21.765  28.137   3.143  1.00  0.00    -0.347 OA
ATOM     19  H4  UNL     1      21.132  28.478   3.763  1.00  0.00     0.215 HD
ENDBRANCH  16  18
BRANCH  16  20
HETATM   20  C12 UNL     1      20.248  26.420   2.981  1.00  0.00     0.158 A 
HETATM   21  N11 UNL     1      19.795  25.150   2.933  1.00  0.00    -0.235 N 
HETATM   22  O5  UNL     1      18.496  25.136   2.864  1.00  0.00    -0.155 OA
ATOM     23  H11 UNL     1      20.387  24.319   2.949  1.00  0.00     0.197 HD
HETATM   24  N12 UNL     1      18.079  26.381   2.866  1.00  0.00    -0.224 N 
HETATM   25  C13 UNL     1      19.131  27.201   2.938  1.00  0.00     0.153 A 
ATOM     26  H12 UNL     1      17.103  26.675   2.820  1.00  0.00     0.198 HD
BRANCH  25  27
HETATM   27  N13 UNL     1      19.098  28.462   2.963  1.00  0.00    -0.382 N 
ATOM     28 2H13 UNL     1      18.527  29.043   3.578  1.00  0.00     0.157 HD
ATOM     29 1H13 UNL     1      19.641  29.092   2.371  1.00  0.00     0.157 HD
ENDBRANCH  25  27
ENDBRANCH  16  20
ENDBRANCH   7   8
BRANCH   1  30
HETATM   30  C2  UNL     1      20.975  25.393  -0.459  1.00  0.00     0.162 A 
HETATM   31  N2  UNL     1      21.212  24.085  -0.429  1.00  0.00    -0.318 N 
HETATM   32  C1  UNL     1      20.174  23.267  -0.590  1.00  0.00     0.160 A 
ATOM     33  H2  UNL     1      22.155  23.722  -0.287  1.00  0.00     0.169 HD
HETATM   34  S2  UNL     1      18.867  24.331  -0.783  1.00  0.00     0.024 SA
HETATM   35  N14 UNL     1      19.711  25.762  -0.650  1.00  0.00    -0.306 N 
ATOM     36  H14 UNL     1      19.340  26.711  -0.703  1.00  0.00     0.176 HD
BRANCH  32  37
HETATM   37  N1  UNL     1      20.216  21.951  -0.588  1.00  0.00    -0.379 N 
ATOM     38  H12 UNL     1      20.418  21.291  -1.339  1.00  0.00     0.158 HD
ATOM     39  H11 UNL     1      20.043  21.346   0.214  1.00  0.00     0.158 HD
ENDBRANCH  32  37
ENDBRANCH   1  30
BRANCH   6  40
HETATM   40  S1  UNL     1      24.771  28.613   1.440  1.00  0.00    -0.088 SA
BRANCH  40  41
HETATM   41  C5  UNL     1      24.156  30.150   2.041  1.00  0.00     0.116 C 
BRANCH  41  42
HETATM   42  C6  UNL     1      24.241  30.426   3.493  1.00  0.00     0.158 C 
BRANCH  42  43
HETATM   43  O1  UNL     1      23.825  31.686   3.840  1.00  0.00    -0.392 OA
ATOM     44  H1  UNL     1      24.521  32.240   4.171  1.00  0.00     0.210 HD
ENDBRANCH  42  43
BRANCH  42  45
HETATM   45  C7  UNL     1      25.570  30.062   4.112  1.00  0.00     0.171 C 
BRANCH  45  46
HETATM   46  O2  UNL     1      26.249  31.124   4.644  1.00  0.00    -0.391 OA
ATOM     47  H2  UNL     1      27.007  30.880   5.163  1.00  0.00     0.210 HD
ENDBRANCH  45  46
BRANCH  45  48
HETATM   48  C8  UNL     1      25.286  29.071   5.219  1.00  0.00     0.198 C 
BRANCH  48  49
HETATM   49  O3  UNL     1      23.997  28.603   5.222  1.00  0.00    -0.398 OA
ATOM     50  H3  UNL     1      23.393  29.149   5.713  1.00  0.00     0.209 HD
ENDBRANCH  48  49
ENDBRANCH  45  48
ENDBRANCH  42  45
ENDBRANCH  41  42
ENDBRANCH  40  41
ENDBRANCH   6  40
TORSDOF 14
ENDMDL
MODEL 5
REMARK VINA RESULT: -7.333476807      1.445      3.361
REMARK  14 active torsions:
REMARK  status: ('A' for Active; 'I' for Inactive)
REMARK    1  A    between atoms: N1_1  and  C1_4 
REMARK    2  A    between atoms: C2_7  and  C3_8 
REMARK    3  A    between atoms: C4_13  and  S1_14 
REMARK    4  A    between atoms: S1_14  and  C5_15 
REMARK    5  A    between atoms: C5_15  and  C6_16 
REMARK    6  A    between atoms: C6_16  and  O1_17 
REMARK    7  A    between atoms: C6_16  and  C7_19 
REMARK    8  A    between atoms: C7_19  and  O2_20 
REMARK    9  A    between atoms: C7_19  and  C8_22 
REMARK   10  A    between atoms: C8_22  and  O3_23 
REMARK   11  A    between atoms: N5_25  and  N6_26 
REMARK   12  A    between atoms: C11_35  and  O4_36 
REMARK   13  A    between atoms: C11_35  and  C12_38 
REMARK   14  A    between atoms: C13_44  and  N13_45 
ROOT
HETATM    1  C3  UNL     1      23.754  27.218   1.736  1.00  0.00     0.190 A 
HETATM    2  N3  UNL     1      23.993  28.011   0.647  1.00  0.00    -0.279 N 
ATOM      3  H3  UNL     1      24.563  28.857   0.660  1.00  0.00     0.189 HD
HETATM    4  N4  UNL     1      23.406  27.546  -0.391  1.00  0.00    -0.277 N 
ATOM      5  H4  UNL     1      23.428  27.951  -1.327  1.00  0.00     0.189 HD
HETATM    6  C4  UNL     1      22.741  26.405  -0.017  1.00  0.00     0.183 A 
HETATM    7  N5  UNL     1      22.963  26.221   1.293  1.00  0.00    -0.202 N 
ENDROOT
BRANCH   7   8
HETATM    8  N6  UNL     1      22.425  25.191   2.101  1.00  0.00    -0.192 N 
HETATM    9  C9  UNL     1      23.242  23.998   2.103  1.00  0.00     0.216 C 
HETATM   10  N7  UNL     1      24.293  23.807   1.163  1.00  0.00    -0.061 NA
HETATM   11  N8  UNL     1      23.064  23.035   2.957  1.00  0.00    -0.303 N 
HETATM   12  C10 UNL     1      22.012  23.135   3.913  1.00  0.00     0.194 C 
ATOM     13  H8  UNL     1      23.671  22.215   2.943  1.00  0.00     0.171 HD
HETATM   14  N9  UNL     1      21.816  22.118   4.885  1.00  0.00    -0.063 NA
HETATM   15  N10 UNL     1      21.245  24.126   3.908  1.00  0.00    -0.308 N 
HETATM   16  C11 UNL     1      21.306  25.257   2.945  1.00  0.00     0.290 C 
ATOM     17  H10 UNL     1      20.519  24.159   4.624  1.00  0.00     0.167 HD
BRANCH  16  18
HETATM   18  O4  UNL     1      21.281  26.446   3.664  1.00  0.00    -0.347 OA
ATOM     19  H4  UNL     1      20.398  26.786   3.742  1.00  0.00     0.215 HD
ENDBRANCH  16  18
BRANCH  16  20
HETATM   20  C12 UNL     1      19.948  25.140   2.326  1.00  0.00     0.158 A 
HETATM   21  N11 UNL     1      19.502  23.995   1.769  1.00  0.00    -0.235 N 
HETATM   22  O5  UNL     1      18.296  24.156   1.308  1.00  0.00    -0.155 OA
ATOM     23  H11 UNL     1      20.034  23.126   1.718  1.00  0.00     0.197 HD
HETATM   24  N12 UNL     1      17.934  25.395   1.550  1.00  0.00    -0.224 N 
HETATM   25  C13 UNL     1      18.926  26.032   2.177  1.00  0.00     0.153 A 
ATOM     26  H12 UNL     1      17.035  25.805   1.298  1.00  0.00     0.198 HD
BRANCH  25  27
HETATM   27  N13 UNL     1      18.921  27.234   2.562  1.00  0.00    -0.382 N 
ATOM     28 2H13 UNL     1      19.017  28.060   1.972  1.00  0.00     0.157 HD
ATOM     29 1H13 UNL     1      18.818  27.560   3.524  1.00  0.00     0.157 HD
ENDBRANCH  25  27
ENDBRANCH  16  20
ENDBRANCH   7   8
BRANCH   1  30
HETATM   30  C2  UNL     1      24.319  27.440   3.095  1.00  0.00     0.162 A 
HETATM   31  N2  UNL     1      23.949  28.496   3.814  1.00  0.00    -0.318 N 
HETATM   32  C1  UNL     1      24.525  28.664   5.004  1.00  0.00     0.160 A 
ATOM     33  H2  UNL     1      23.251  29.154   3.468  1.00  0.00     0.169 HD
HETATM   34  S2  UNL     1      25.582  27.341   5.113  1.00  0.00     0.024 SA
HETATM   35  N14 UNL     1      25.236  26.646   3.639  1.00  0.00    -0.306 N 
ATOM     36  H14 UNL     1      25.640  25.797   3.241  1.00  0.00     0.176 HD
BRANCH  32  37
HETATM   37  N1  UNL     1      24.286  29.643   5.849  1.00  0.00    -0.379 N 
ATOM     38  H12 UNL     1      23.731  30.493   5.744  1.00  0.00     0.158 HD
ATOM     39  H11 UNL     1      24.639  29.714   6.803  1.00  0.00     0.158 HD
ENDBRANCH  32  37
ENDBRANCH   1  30
BRANCH   6  40
HETATM   40  S1  UNL     1      21.816  25.379  -1.132  1.00  0.00    -0.088 SA
BRANCH  40  41
HETATM   41  C5  UNL     1      20.402  26.134  -1.863  1.00  0.00     0.116 C 
BRANCH  41  42
HETATM   42  C6  UNL     1      19.086  25.477  -1.700  1.00  0.00     0.158 C 
BRANCH  42  43
HETATM   43  O1  UNL     1      19.167  24.184  -1.252  1.00  0.00    -0.392 OA
ATOM     44  H1  UNL     1      19.740  23.634  -1.773  1.00  0.00     0.210 HD
ENDBRANCH  42  43
BRANCH  42  45
HETATM   45  C7  UNL     1      18.174  25.622  -2.895  1.00  0.00     0.171 C 
BRANCH  45  46
HETATM   46  O2  UNL     1      18.696  25.132  -4.061  1.00  0.00    -0.391 OA
ATOM     47  H2  UNL     1      18.613  25.721  -4.802  1.00  0.00     0.210 HD
ENDBRANCH  45  46
BRANCH  45  48
HETATM   48  C8  UNL     1      16.907  24.856  -2.580  1.00  0.00     0.198 C 
BRANCH  48  49
HETATM   49  O3  UNL     1      16.552  24.900  -1.256  1.00  0.00    -0.398 OA
ATOM     50  H3  UNL     1      16.599  25.770  -0.876  1.00  0.00     0.209 HD
ENDBRANCH  48  49
ENDBRANCH  45  48
ENDBRANCH  42  45
ENDBRANCH  41  42
ENDBRANCH  40  41
ENDBRANCH   6  40
TORSDOF 14
ENDMDL
