MODEL 1
REMARK VINA RESULT: -9.563297181      0.000      0.000
REMARK  14 active torsions:
REMARK  status: ('A' for Active; 'I' for Inactive)
REMARK    1  A    between atoms: N1_1  and  C1_4 
REMARK    2  A    between atoms: C2_7  and  N3_8 
REMARK    3  A    between atoms: N6_15  and  C4_16 
REMARK    4  A    between atoms: C4_16  and  C5_17 
REMARK    5  A    between atoms: C5_17  and  C6_18 
REMARK    6  A    between atoms: C6_18  and  N7_19 
REMARK       I    between atoms: N7_19  and  C7_21 
REMARK    7  A    between atoms: C7_21  and  C8_23 
REMARK    8  A    between atoms: C8_23  and  O2_24 
REMARK    9  A    between atoms: O2_24  and  C9_25 
REMARK   10  A    between atoms: C11_29  and  O3_30 
REMARK   11  A    between atoms: C12_32  and  N9_33 
REMARK   12  A    between atoms: C14_40  and  N13_41 
REMARK   13  A    between atoms: N14_45  and  N15_46 
REMARK   14  A    between atoms: N16_50  and  N17_51 
ROOT
HETATM    1  C9  UNL     1      19.243  25.695  -1.839  1.00  0.00     0.247 A 
HETATM    2  N8  UNL     1      20.382  26.261  -2.352  1.00  0.00    -0.315 N 
ATOM      3  H8  UNL     1      20.574  26.357  -3.349  1.00  0.00     0.170 HD
HETATM    4  C10 UNL     1      21.205  26.667  -1.393  1.00  0.00     0.121 A 
HETATM    5  C11 UNL     1      22.423  27.273  -1.068  1.00  0.00     0.143 A 
HETATM    6  C12 UNL     1      22.514  27.318   0.300  1.00  0.00     0.170 A 
HETATM    7  N14 UNL     1      21.393  26.761   0.795  1.00  0.00    -0.223 N 
HETATM    8  C15 UNL     1      20.581  26.356  -0.211  1.00  0.00     0.183 A 
HETATM    9  N16 UNL     1      19.410  25.776  -0.485  1.00  0.00    -0.205 N 
ENDROOT
BRANCH   1  10
HETATM   10  O2  UNL     1      18.273  25.220  -2.556  1.00  0.00    -0.311 OA
BRANCH  10  11
HETATM   11  C8  UNL     1      17.116  24.987  -3.082  1.00  0.00     0.281 C 
BRANCH  11  12
HETATM   12  C7  UNL     1      16.567  25.953  -4.109  1.00  0.00     0.241 C 
HETATM   13  N7  UNL     1      15.969  27.175  -3.692  1.00  0.00    -0.359 N 
ATOM     14  H7  UNL     1      15.916  27.377  -2.694  1.00  0.00     0.162 HD
HETATM   15  O1  UNL     1      16.632  25.684  -5.309  1.00  0.00    -0.271 OA
BRANCH  13  16
HETATM   16  C6  UNL     1      15.437  28.141  -4.624  1.00  0.00     0.124 C 
BRANCH  16  17
HETATM   17  C5  UNL     1      14.499  29.109  -3.896  1.00  0.00     0.041 C 
BRANCH  17  18
HETATM   18  C4  UNL     1      14.131  30.283  -4.773  1.00  0.00     0.150 C 
BRANCH  18  19
HETATM   19  N6  UNL     1      13.403  29.822  -5.937  1.00  0.00    -0.258 N 
HETATM   20  N5  UNL     1      13.869  29.673  -7.164  1.00  0.00    -0.018 NA
HETATM   21  N4  UNL     1      12.912  29.237  -7.985  1.00  0.00    -0.277 N 
HETATM   22  C3  UNL     1      11.793  29.098  -7.269  1.00  0.00     0.136 A 
ATOM     23  H4  UNL     1      13.016  29.044  -8.981  1.00  0.00     0.184 HD
HETATM   24  C2  UNL     1      10.530  28.686  -7.587  1.00  0.00     0.146 A 
HETATM   25  C16 UNL     1      12.108  29.465  -5.992  1.00  0.00     0.168 A 
HETATM   26  N2  UNL     1       9.591  28.641  -6.639  1.00  0.00    -0.175 N 
HETATM   27  C1  UNL     1       9.890  29.002  -5.372  1.00  0.00     0.679 A 
ATOM     28  H2  UNL     1       8.647  28.335  -6.872  1.00  0.00     0.186 HD
HETATM   29  N18 UNL     1      11.127  29.406  -5.064  1.00  0.00    -0.173 N 
ATOM     30  H18 UNL     1      11.337  29.675  -4.102  1.00  0.00     0.186 HD
BRANCH  24  31
HETATM   31  N3  UNL     1      10.224  28.332  -8.805  1.00  0.00    -0.383 N 
ATOM     32  H32 UNL     1       9.355  27.838  -9.008  1.00  0.00     0.157 HD
ATOM     33  H31 UNL     1      10.866  28.555  -9.566  1.00  0.00     0.157 HD
ENDBRANCH  24  31
BRANCH  27  34
HETATM   34  N1  UNL     1       8.981  28.963  -4.436  1.00  0.00    -0.234 N 
ATOM     35  H12 UNL     1       8.061  29.365  -4.619  1.00  0.00     0.174 HD
ATOM     36  H11 UNL     1       9.183  28.537  -3.532  1.00  0.00     0.174 HD
ENDBRANCH  27  34
ENDBRANCH  18  19
ENDBRANCH  17  18
ENDBRANCH  16  17
ENDBRANCH  13  16
ENDBRANCH  11  12
ENDBRANCH  10  11
ENDBRANCH   1  10
BRANCH   9  37
HETATM   37  N17 UNL     1      18.479  25.312   0.444  1.00  0.00    -0.334 N 
ATOM     38 2H17 UNL     1      17.470  25.463   0.418  1.00  0.00     0.177 HD
ATOM     39 1H17 UNL     1      18.722  24.762   1.267  1.00  0.00     0.177 HD
ENDBRANCH   9  37
BRANCH   5  40
HETATM   40  O3  UNL     1      23.349  27.732  -1.984  1.00  0.00    -0.355 OA
ATOM     41  H3  UNL     1      24.229  28.019  -1.772  1.00  0.00     0.218 HD
ENDBRANCH   5  40
BRANCH   7  42
HETATM   42  N15 UNL     1      21.058  26.600   2.141  1.00  0.00    -0.335 N 
ATOM     43 2H15 UNL     1      21.231  25.733   2.650  1.00  0.00     0.177 HD
ATOM     44 1H15 UNL     1      20.618  27.290   2.751  1.00  0.00     0.177 HD
ENDBRANCH   7  42
BRANCH   6  45
HETATM   45  N9  UNL     1      23.568  27.834   1.140  1.00  0.00    -0.281 N 
HETATM   46  C13 UNL     1      23.393  29.122   1.760  1.00  0.00     0.206 C 
HETATM   47  N10 UNL     1      24.084  29.409   2.784  1.00  0.00    -0.284 N 
HETATM   48  N11 UNL     1      24.998  28.502   3.306  1.00  0.00    -0.242 N 
ATOM     49  H10 UNL     1      23.967  30.318   3.230  1.00  0.00     0.188 HD
HETATM   50  N12 UNL     1      25.105  27.192   2.848  1.00  0.00    -0.070 NA
ATOM     51  H11 UNL     1      25.617  28.809   4.056  1.00  0.00     0.204 HD
HETATM   52  C14 UNL     1      24.783  27.129   1.406  1.00  0.00     0.406 C 
BRANCH  52  53
HETATM   53  N13 UNL     1      24.760  25.737   1.006  1.00  0.00    -0.042 N 
ATOM     54 3H13 UNL     1      24.277  25.172   1.704  1.00  0.00     0.278 HD
ATOM     55 2H13 UNL     1      24.134  25.603   0.212  1.00  0.00     0.278 HD
ATOM     56 1H13 UNL     1      25.681  25.345   0.804  1.00  0.00     0.278 HD
ENDBRANCH  52  53
ENDBRANCH   6  45
TORSDOF 14
ENDMDL
MODEL 2
REMARK VINA RESULT: -9.289436202      0.970      1.075
REMARK  14 active torsions:
REMARK  status: ('A' for Active; 'I' for Inactive)
REMARK    1  A    between atoms: N1_1  and  C1_4 
REMARK    2  A    between atoms: C2_7  and  N3_8 
REMARK    3  A    between atoms: N6_15  and  C4_16 
REMARK    4  A    between atoms: C4_16  and  C5_17 
REMARK    5  A    between atoms: C5_17  and  C6_18 
REMARK    6  A    between atoms: C6_18  and  N7_19 
REMARK       I    between atoms: N7_19  and  C7_21 
REMARK    7  A    between atoms: C7_21  and  C8_23 
REMARK    8  A    between atoms: C8_23  and  O2_24 
REMARK    9  A    between atoms: O2_24  and  C9_25 
REMARK   10  A    between atoms: C11_29  and  O3_30 
REMARK   11  A    between atoms: C12_32  and  N9_33 
REMARK   12  A    between atoms: C14_40  and  N13_41 
REMARK   13  A    between atoms: N14_45  and  N15_46 
REMARK   14  A    between atoms: N16_50  and  N17_51 
ROOT
HETATM    1  C9  UNL     1      18.464  25.470  -1.811  1.00  0.00     0.247 A 
HETATM    2  N8  UNL     1      19.560  25.834  -2.550  1.00  0.00    -0.315 N 
ATOM      3  H8  UNL     1      19.554  25.946  -3.564  1.00  0.00     0.170 HD
HETATM    4  C10 UNL     1      20.629  26.023  -1.787  1.00  0.00     0.121 A 
HETATM    5  C11 UNL     1      21.983  26.366  -1.725  1.00  0.00     0.143 A 
HETATM    6  C12 UNL     1      22.365  26.319  -0.408  1.00  0.00     0.170 A 
HETATM    7  N14 UNL     1      21.285  25.960   0.310  1.00  0.00    -0.223 N 
HETATM    8  C15 UNL     1      20.217  25.773  -0.502  1.00  0.00     0.183 A 
HETATM    9  N16 UNL     1      18.923  25.444  -0.524  1.00  0.00    -0.205 N 
ENDROOT
BRANCH   1  10
HETATM   10  O2  UNL     1      17.291  25.228  -2.307  1.00  0.00    -0.311 OA
BRANCH  10  11
HETATM   11  C8  UNL     1      16.306  24.999  -3.111  1.00  0.00     0.281 C 
BRANCH  11  12
HETATM   12  C7  UNL     1      15.971  26.019  -4.177  1.00  0.00     0.241 C 
HETATM   13  N7  UNL     1      15.668  27.360  -3.810  1.00  0.00    -0.359 N 
ATOM     14  H7  UNL     1      15.676  27.610  -2.822  1.00  0.00     0.162 HD
HETATM   15  O1  UNL     1      15.957  25.693  -5.364  1.00  0.00    -0.271 OA
BRANCH  13  16
HETATM   16  C6  UNL     1      15.351  28.382  -4.781  1.00  0.00     0.124 C 
BRANCH  16  17
HETATM   17  C5  UNL     1      14.096  29.143  -4.348  1.00  0.00     0.041 C 
BRANCH  17  18
HETATM   18  C4  UNL     1      13.740  30.228  -5.338  1.00  0.00     0.150 C 
BRANCH  18  19
HETATM   19  N6  UNL     1      12.889  29.687  -6.379  1.00  0.00    -0.258 N 
HETATM   20  N5  UNL     1      13.226  29.420  -7.628  1.00  0.00    -0.018 NA
HETATM   21  N4  UNL     1      12.183  28.939  -8.307  1.00  0.00    -0.277 N 
HETATM   22  C3  UNL     1      11.140  28.892  -7.474  1.00  0.00     0.136 A 
ATOM     23  H4  UNL     1      12.181  28.658  -9.287  1.00  0.00     0.184 HD
HETATM   24  C2  UNL     1       9.844  28.488  -7.627  1.00  0.00     0.146 A 
HETATM   25  C16 UNL     1      11.589  29.361  -6.272  1.00  0.00     0.168 A 
HETATM   26  N2  UNL     1       9.006  28.550  -6.589  1.00  0.00    -0.175 N 
HETATM   27  C1  UNL     1       9.438  29.011  -5.395  1.00  0.00     0.679 A 
ATOM     28  H2  UNL     1       8.038  28.249  -6.699  1.00  0.00     0.186 HD
HETATM   29  N18 UNL     1      10.707  29.407  -5.249  1.00  0.00    -0.173 N 
ATOM     30  H18 UNL     1      11.018  29.754  -4.341  1.00  0.00     0.186 HD
BRANCH  24  31
HETATM   31  N3  UNL     1       9.410  28.037  -8.772  1.00  0.00    -0.383 N 
ATOM     32  H32 UNL     1       8.510  28.336  -9.148  1.00  0.00     0.157 HD
ATOM     33  H31 UNL     1       9.982  27.378  -9.298  1.00  0.00     0.157 HD
ENDBRANCH  24  31
BRANCH  27  34
HETATM   34  N1  UNL     1       8.629  29.078  -4.374  1.00  0.00    -0.234 N 
ATOM     35  H12 UNL     1       7.623  29.006  -4.531  1.00  0.00     0.174 HD
ATOM     36  H11 UNL     1       8.992  29.199  -3.429  1.00  0.00     0.174 HD
ENDBRANCH  27  34
ENDBRANCH  18  19
ENDBRANCH  17  18
ENDBRANCH  16  17
ENDBRANCH  13  16
ENDBRANCH  11  12
ENDBRANCH  10  11
ENDBRANCH   1  10
BRANCH   9  37
HETATM   37  N17 UNL     1      18.134  25.117   0.579  1.00  0.00    -0.334 N 
ATOM     38 2H17 UNL     1      17.209  25.491   0.794  1.00  0.00     0.177 HD
ATOM     39 1H17 UNL     1      18.411  24.454   1.301  1.00  0.00     0.177 HD
ENDBRANCH   9  37
BRANCH   5  40
HETATM   40  O3  UNL     1      22.769  26.689  -2.814  1.00  0.00    -0.355 OA
ATOM     41  H3  UNL     1      23.522  27.267  -2.791  1.00  0.00     0.218 HD
ENDBRANCH   5  40
BRANCH   7  42
HETATM   42  N15 UNL     1      21.213  25.794   1.695  1.00  0.00    -0.335 N 
ATOM     43 2H15 UNL     1      22.012  25.956   2.308  1.00  0.00     0.177 HD
ATOM     44 1H15 UNL     1      20.400  25.503   2.237  1.00  0.00     0.177 HD
ENDBRANCH   7  42
BRANCH   6  45
HETATM   45  N9  UNL     1      23.653  26.577   0.190  1.00  0.00    -0.281 N 
HETATM   46  C13 UNL     1      23.983  27.928   0.567  1.00  0.00     0.206 C 
HETATM   47  N10 UNL     1      24.892  28.118   1.431  1.00  0.00    -0.284 N 
HETATM   48  N11 UNL     1      25.564  27.048   2.009  1.00  0.00    -0.242 N 
ATOM     49  H10 UNL     1      25.133  29.070   1.705  1.00  0.00     0.188 HD
HETATM   50  N12 UNL     1      25.190  25.724   1.802  1.00  0.00    -0.070 NA
ATOM     51  H11 UNL     1      26.365  27.241   2.611  1.00  0.00     0.204 HD
HETATM   52  C14 UNL     1      24.624  25.560   0.446  1.00  0.00     0.406 C 
BRANCH  52  53
HETATM   53  N13 UNL     1      24.113  24.209   0.326  1.00  0.00    -0.042 N 
ATOM     54 3H13 UNL     1      24.430  23.637   1.108  1.00  0.00     0.278 HD
ATOM     55 2H13 UNL     1      23.107  24.191   0.495  1.00  0.00     0.278 HD
ATOM     56 1H13 UNL     1      24.335  23.757  -0.561  1.00  0.00     0.278 HD
ENDBRANCH  52  53
ENDBRANCH   6  45
TORSDOF 14
ENDMDL
MODEL 3
REMARK VINA RESULT: -9.249211595      1.114      1.594
REMARK  14 active torsions:
REMARK  status: ('A' for Active; 'I' for Inactive)
REMARK    1  A    between atoms: N1_1  and  C1_4 
REMARK    2  A    between atoms: C2_7  and  N3_8 
REMARK    3  A    between atoms: N6_15  and  C4_16 
REMARK    4  A    between atoms: C4_16  and  C5_17 
REMARK    5  A    between atoms: C5_17  and  C6_18 
REMARK    6  A    between atoms: C6_18  and  N7_19 
REMARK       I    between atoms: N7_19  and  C7_21 
REMARK    7  A    between atoms: C7_21  and  C8_23 
REMARK    8  A    between atoms: C8_23  and  O2_24 
REMARK    9  A    between atoms: O2_24  and  C9_25 
REMARK   10  A    between atoms: C11_29  and  O3_30 
REMARK   11  A    between atoms: C12_32  and  N9_33 
REMARK   12  A    between atoms: C14_40  and  N13_41 
REMARK   13  A    between atoms: N14_45  and  N15_46 
REMARK   14  A    between atoms: N16_50  and  N17_51 
ROOT
HETATM    1  C9  UNL     1      19.203  25.655  -1.578  1.00  0.00     0.247 A 
HETATM    2  N8  UNL     1      19.210  25.867  -0.223  1.00  0.00    -0.315 N 
ATOM      3  H8  UNL     1      18.443  25.613   0.400  1.00  0.00     0.170 HD
HETATM    4  C10 UNL     1      20.336  26.444   0.180  1.00  0.00     0.121 A 
HETATM    5  C11 UNL     1      21.080  26.948   1.251  1.00  0.00     0.143 A 
HETATM    6  C12 UNL     1      22.270  27.413   0.750  1.00  0.00     0.170 A 
HETATM    7  N14 UNL     1      22.254  27.201  -0.579  1.00  0.00    -0.223 N 
HETATM    8  C15 UNL     1      21.092  26.615  -0.952  1.00  0.00     0.183 A 
HETATM    9  N16 UNL     1      20.410  26.141  -1.998  1.00  0.00    -0.205 N 
ENDROOT
BRANCH   1  10
HETATM   10  O2  UNL     1      18.228  25.103  -2.229  1.00  0.00    -0.311 OA
BRANCH  10  11
HETATM   11  C8  UNL     1      17.132  24.892  -2.880  1.00  0.00     0.281 C 
BRANCH  11  12
HETATM   12  C7  UNL     1      16.696  25.889  -3.932  1.00  0.00     0.241 C 
HETATM   13  N7  UNL     1      16.011  27.076  -3.550  1.00  0.00    -0.359 N 
ATOM     14  H7  UNL     1      15.817  27.232  -2.561  1.00  0.00     0.162 HD
HETATM   15  O1  UNL     1      16.930  25.676  -5.122  1.00  0.00    -0.271 OA
BRANCH  13  16
HETATM   16  C6  UNL     1      15.578  28.069  -4.505  1.00  0.00     0.124 C 
BRANCH  16  17
HETATM   17  C5  UNL     1      14.575  29.023  -3.850  1.00  0.00     0.041 C 
BRANCH  17  18
HETATM   18  C4  UNL     1      14.292  30.216  -4.734  1.00  0.00     0.150 C 
BRANCH  18  19
HETATM   19  N6  UNL     1      13.558  29.796  -5.910  1.00  0.00    -0.258 N 
HETATM   20  N5  UNL     1      14.018  29.687  -7.144  1.00  0.00    -0.018 NA
HETATM   21  N4  UNL     1      13.056  29.281  -7.974  1.00  0.00    -0.277 N 
HETATM   22  C3  UNL     1      11.940  29.121  -7.258  1.00  0.00     0.136 A 
ATOM     23  H4  UNL     1      13.155  29.121  -8.977  1.00  0.00     0.184 HD
HETATM   24  C2  UNL     1      10.675  28.722  -7.585  1.00  0.00     0.146 A 
HETATM   25  C16 UNL     1      12.262  29.444  -5.971  1.00  0.00     0.168 A 
HETATM   26  N2  UNL     1       9.740  28.648  -6.634  1.00  0.00    -0.175 N 
HETATM   27  C1  UNL     1      10.045  28.965  -5.357  1.00  0.00     0.679 A 
ATOM     28  H2  UNL     1       8.794  28.351  -6.873  1.00  0.00     0.186 HD
HETATM   29  N18 UNL     1      11.285  29.355  -5.041  1.00  0.00    -0.173 N 
ATOM     30  H18 UNL     1      11.499  29.592  -4.072  1.00  0.00     0.186 HD
BRANCH  24  31
HETATM   31  N3  UNL     1      10.363  28.410  -8.813  1.00  0.00    -0.383 N 
ATOM     32  H32 UNL     1      10.398  27.444  -9.136  1.00  0.00     0.157 HD
ATOM     33  H31 UNL     1      10.078  29.147  -9.458  1.00  0.00     0.157 HD
ENDBRANCH  24  31
BRANCH  27  34
HETATM   34  N1  UNL     1       9.141  28.897  -4.419  1.00  0.00    -0.234 N 
ATOM     35  H12 UNL     1       8.214  28.536  -4.647  1.00  0.00     0.174 HD
ATOM     36  H11 UNL     1       9.353  29.197  -3.468  1.00  0.00     0.174 HD
ENDBRANCH  27  34
ENDBRANCH  18  19
ENDBRANCH  17  18
ENDBRANCH  16  17
ENDBRANCH  13  16
ENDBRANCH  11  12
ENDBRANCH  10  11
ENDBRANCH   1  10
BRANCH   9  37
HETATM   37  N17 UNL     1      20.834  26.130  -3.326  1.00  0.00    -0.334 N 
ATOM     38 2H17 UNL     1      20.741  26.893  -3.998  1.00  0.00     0.177 HD
ATOM     39 1H17 UNL     1      21.292  25.336  -3.772  1.00  0.00     0.177 HD
ENDBRANCH   9  37
BRANCH   5  40
HETATM   40  O3  UNL     1      20.664  26.963   2.568  1.00  0.00    -0.355 OA
ATOM     41  H3  UNL     1      20.945  27.591   3.222  1.00  0.00     0.218 HD
ENDBRANCH   5  40
BRANCH   7  42
HETATM   42  N15 UNL     1      23.264  27.514  -1.491  1.00  0.00    -0.335 N 
ATOM     43 2H15 UNL     1      23.997  26.851  -1.747  1.00  0.00     0.177 HD
ATOM     44 1H15 UNL     1      23.393  28.396  -1.987  1.00  0.00     0.177 HD
ENDBRANCH   7  42
BRANCH   6  45
HETATM   45  N9  UNL     1      23.381  28.032   1.432  1.00  0.00    -0.281 N 
HETATM   46  C13 UNL     1      23.244  29.390   1.890  1.00  0.00     0.206 C 
HETATM   47  N10 UNL     1      24.009  29.807   2.811  1.00  0.00    -0.284 N 
HETATM   48  N11 UNL     1      24.967  28.973   3.376  1.00  0.00    -0.242 N 
ATOM     49  H10 UNL     1      23.919  30.767   3.143  1.00  0.00     0.188 HD
HETATM   50  N12 UNL     1      25.048  27.615   3.087  1.00  0.00    -0.070 NA
ATOM     51  H11 UNL     1      25.639  29.374   4.030  1.00  0.00     0.204 HD
HETATM   52  C14 UNL     1      24.618  27.364   1.694  1.00  0.00     0.406 C 
BRANCH  52  53
HETATM   53  N13 UNL     1      24.575  25.931   1.482  1.00  0.00    -0.042 N 
ATOM     54 3H13 UNL     1      23.792  25.683   0.878  1.00  0.00     0.278 HD
ATOM     55 2H13 UNL     1      25.351  25.634   0.890  1.00  0.00     0.278 HD
ATOM     56 1H13 UNL     1      24.551  25.383   2.342  1.00  0.00     0.278 HD
ENDBRANCH  52  53
ENDBRANCH   6  45
TORSDOF 14
ENDMDL
MODEL 4
REMARK VINA RESULT: -9.230655897      4.196      6.641
REMARK  14 active torsions:
REMARK  status: ('A' for Active; 'I' for Inactive)
REMARK    1  A    between atoms: N1_1  and  C1_4 
REMARK    2  A    between atoms: C2_7  and  N3_8 
REMARK    3  A    between atoms: N6_15  and  C4_16 
REMARK    4  A    between atoms: C4_16  and  C5_17 
REMARK    5  A    between atoms: C5_17  and  C6_18 
REMARK    6  A    between atoms: C6_18  and  N7_19 
REMARK       I    between atoms: N7_19  and  C7_21 
REMARK    7  A    between atoms: C7_21  and  C8_23 
REMARK    8  A    between atoms: C8_23  and  O2_24 
REMARK    9  A    between atoms: O2_24  and  C9_25 
REMARK   10  A    between atoms: C11_29  and  O3_30 
REMARK   11  A    between atoms: C12_32  and  N9_33 
REMARK   12  A    between atoms: C14_40  and  N13_41 
REMARK   13  A    between atoms: N14_45  and  N15_46 
REMARK   14  A    between atoms: N16_50  and  N17_51 
ROOT
HETATM    1  C9  UNL     1      19.532  25.758  -0.356  1.00  0.00     0.247 A 
HETATM    2  N8  UNL     1      20.600  26.291  -1.030  1.00  0.00    -0.315 N 
ATOM      3  H8  UNL     1      20.725  26.233  -2.041  1.00  0.00     0.170 HD
HETATM    4  C10 UNL     1      21.452  26.891  -0.208  1.00  0.00     0.121 A 
HETATM    5  C11 UNL     1      22.648  27.604  -0.070  1.00  0.00     0.143 A 
HETATM    6  C12 UNL     1      22.818  27.876   1.264  1.00  0.00     0.170 A 
HETATM    7  N14 UNL     1      21.767  27.349   1.918  1.00  0.00    -0.223 N 
HETATM    8  C15 UNL     1      20.923  26.744   1.048  1.00  0.00     0.183 A 
HETATM    9  N16 UNL     1      19.775  26.068   0.953  1.00  0.00    -0.205 N 
ENDROOT
BRANCH   1  10
HETATM   10  O2  UNL     1      18.552  25.122  -0.917  1.00  0.00    -0.311 OA
BRANCH  10  11
HETATM   11  C8  UNL     1      17.402  24.594  -1.179  1.00  0.00     0.281 C 
BRANCH  11  12
HETATM   12  C7  UNL     1      16.733  24.903  -2.501  1.00  0.00     0.241 C 
HETATM   13  N7  UNL     1      17.077  26.083  -3.216  1.00  0.00    -0.359 N 
ATOM     14  H7  UNL     1      17.772  26.712  -2.815  1.00  0.00     0.162 HD
HETATM   15  O1  UNL     1      15.887  24.135  -2.962  1.00  0.00    -0.271 OA
BRANCH  13  16
HETATM   16  C6  UNL     1      16.481  26.428  -4.486  1.00  0.00     0.124 C 
BRANCH  16  17
HETATM   17  C5  UNL     1      17.410  26.011  -5.630  1.00  0.00     0.041 C 
BRANCH  17  18
HETATM   18  C4  UNL     1      18.564  25.175  -5.126  1.00  0.00     0.150 C 
BRANCH  18  19
HETATM   19  N6  UNL     1      19.357  24.703  -6.242  1.00  0.00    -0.258 N 
HETATM   20  N5  UNL     1      19.293  25.111  -7.497  1.00  0.00    -0.018 NA
HETATM   21  N4  UNL     1      20.168  24.447  -8.255  1.00  0.00    -0.277 N 
HETATM   22  C3  UNL     1      20.817  23.585  -7.469  1.00  0.00     0.136 A 
ATOM     23  H4  UNL     1      20.314  24.575  -9.257  1.00  0.00     0.184 HD
HETATM   24  C2  UNL     1      21.806  22.673  -7.707  1.00  0.00     0.146 A 
HETATM   25  C16 UNL     1      20.306  23.751  -6.214  1.00  0.00     0.168 A 
HETATM   26  N2  UNL     1      22.279  21.934  -6.700  1.00  0.00    -0.175 N 
HETATM   27  C1  UNL     1      21.781  22.088  -5.454  1.00  0.00     0.679 A 
ATOM     28  H2  UNL     1      23.017  21.251  -6.873  1.00  0.00     0.186 HD
HETATM   29  N18 UNL     1      20.812  22.982  -5.225  1.00  0.00    -0.173 N 
ATOM     30  H18 UNL     1      20.446  23.086  -4.278  1.00  0.00     0.186 HD
BRANCH  24  31
HETATM   31  N3  UNL     1      22.300  22.512  -8.904  1.00  0.00    -0.383 N 
ATOM     32  H32 UNL     1      23.304  22.402  -9.049  1.00  0.00     0.157 HD
ATOM     33  H31 UNL     1      21.671  22.494  -9.706  1.00  0.00     0.157 HD
ENDBRANCH  24  31
BRANCH  27  34
HETATM   34  N1  UNL     1      22.234  21.372  -4.462  1.00  0.00    -0.234 N 
ATOM     35  H12 UNL     1      22.412  21.822  -3.564  1.00  0.00     0.174 HD
ATOM     36  H11 UNL     1      22.407  20.373  -4.577  1.00  0.00     0.174 HD
ENDBRANCH  27  34
ENDBRANCH  18  19
ENDBRANCH  17  18
ENDBRANCH  16  17
ENDBRANCH  13  16
ENDBRANCH  11  12
ENDBRANCH  10  11
ENDBRANCH   1  10
BRANCH   9  37
HETATM   37  N17 UNL     1      18.934  25.714   2.007  1.00  0.00    -0.334 N 
ATOM     38 2H17 UNL     1      17.954  25.979   2.116  1.00  0.00     0.177 HD
ATOM     39 1H17 UNL     1      19.222  25.139   2.799  1.00  0.00     0.177 HD
ENDBRANCH   9  37
BRANCH   5  40
HETATM   40  O3  UNL     1      23.486  27.955  -1.111  1.00  0.00    -0.355 OA
ATOM     41  H3  UNL     1      23.890  28.807  -1.221  1.00  0.00     0.218 HD
ENDBRANCH   5  40
BRANCH   7  42
HETATM   42  N15 UNL     1      21.524  27.393   3.293  1.00  0.00    -0.335 N 
ATOM     43 2H15 UNL     1      21.683  26.592   3.904  1.00  0.00     0.177 HD
ATOM     44 1H15 UNL     1      21.174  28.187   3.829  1.00  0.00     0.177 HD
ENDBRANCH   7  42
BRANCH   6  45
HETATM   45  N9  UNL     1      23.887  28.576   1.934  1.00  0.00    -0.281 N 
HETATM   46  C13 UNL     1      23.793  30.006   2.085  1.00  0.00     0.206 C 
HETATM   47  N10 UNL     1      24.478  30.574   2.987  1.00  0.00    -0.284 N 
HETATM   48  N11 UNL     1      25.310  29.838   3.823  1.00  0.00    -0.242 N 
ATOM     49  H10 UNL     1      24.418  31.585   3.102  1.00  0.00     0.188 HD
HETATM   50  N12 UNL     1      25.330  28.447   3.830  1.00  0.00    -0.070 NA
ATOM     51  H11 UNL     1      25.931  30.339   4.458  1.00  0.00     0.204 HD
HETATM   52  C14 UNL     1      25.039  27.926   2.476  1.00  0.00     0.406 C 
BRANCH  52  53
HETATM   53  N13 UNL     1      24.923  26.485   2.559  1.00  0.00    -0.042 N 
ATOM     54 3H13 UNL     1      25.330  26.143   3.429  1.00  0.00     0.278 HD
ATOM     55 2H13 UNL     1      23.951  26.212   2.703  1.00  0.00     0.278 HD
ATOM     56 1H13 UNL     1      25.319  25.988   1.760  1.00  0.00     0.278 HD
ENDBRANCH  52  53
ENDBRANCH   6  45
TORSDOF 14
ENDMDL
MODEL 5
REMARK VINA RESULT: -9.227641305      2.825     13.580
REMARK  14 active torsions:
REMARK  status: ('A' for Active; 'I' for Inactive)
REMARK    1  A    between atoms: N1_1  and  C1_4 
REMARK    2  A    between atoms: C2_7  and  N3_8 
REMARK    3  A    between atoms: N6_15  and  C4_16 
REMARK    4  A    between atoms: C4_16  and  C5_17 
REMARK    5  A    between atoms: C5_17  and  C6_18 
REMARK    6  A    between atoms: C6_18  and  N7_19 
REMARK       I    between atoms: N7_19  and  C7_21 
REMARK    7  A    between atoms: C7_21  and  C8_23 
REMARK    8  A    between atoms: C8_23  and  O2_24 
REMARK    9  A    between atoms: O2_24  and  C9_25 
REMARK   10  A    between atoms: C11_29  and  O3_30 
REMARK   11  A    between atoms: C12_32  and  N9_33 
REMARK   12  A    between atoms: C14_40  and  N13_41 
REMARK   13  A    between atoms: N14_45  and  N15_46 
REMARK   14  A    between atoms: N16_50  and  N17_51 
ROOT
HETATM    1  C9  UNL     1      12.017  29.437  -6.105  1.00  0.00     0.247 A 
HETATM    2  N8  UNL     1      10.740  29.240  -5.645  1.00  0.00    -0.315 N 
ATOM      3  H8  UNL     1      10.449  29.394  -4.680  1.00  0.00     0.170 HD
HETATM    4  C10 UNL     1       9.928  28.825  -6.610  1.00  0.00     0.121 A 
HETATM    5  C11 UNL     1       8.633  28.437  -6.970  1.00  0.00     0.143 A 
HETATM    6  C12 UNL     1       8.647  28.133  -8.308  1.00  0.00     0.170 A 
HETATM    7  N14 UNL     1       9.903  28.328  -8.750  1.00  0.00    -0.223 N 
HETATM    8  C15 UNL     1      10.701  28.747  -7.740  1.00  0.00     0.183 A 
HETATM    9  N16 UNL     1      11.948  29.115  -7.432  1.00  0.00    -0.205 N 
ENDROOT
BRANCH   1  10
HETATM   10  O2  UNL     1      13.006  29.845  -5.373  1.00  0.00    -0.311 OA
BRANCH  10  11
HETATM   11  C8  UNL     1      14.183  30.075  -4.893  1.00  0.00     0.281 C 
BRANCH  11  12
HETATM   12  C7  UNL     1      15.286  29.067  -5.130  1.00  0.00     0.241 C 
HETATM   13  N7  UNL     1      15.150  27.734  -4.650  1.00  0.00    -0.359 N 
ATOM     14  H7  UNL     1      14.302  27.482  -4.142  1.00  0.00     0.162 HD
HETATM   15  O1  UNL     1      16.306  29.395  -5.737  1.00  0.00    -0.271 OA
BRANCH  13  16
HETATM   16  C6  UNL     1      16.162  26.724  -4.854  1.00  0.00     0.124 C 
BRANCH  16  17
HETATM   17  C5  UNL     1      16.347  25.904  -3.574  1.00  0.00     0.041 C 
BRANCH  17  18
HETATM   18  C4  UNL     1      17.728  25.294  -3.506  1.00  0.00     0.150 C 
BRANCH  18  19
HETATM   19  N6  UNL     1      18.219  25.334  -2.144  1.00  0.00    -0.258 N 
HETATM   20  N5  UNL     1      17.593  24.924  -1.055  1.00  0.00    -0.018 NA
HETATM   21  N4  UNL     1      18.346  25.123   0.028  1.00  0.00    -0.277 N 
HETATM   22  C3  UNL     1      19.494  25.676  -0.370  1.00  0.00     0.136 A 
ATOM     23  H4  UNL     1      18.091  24.893   0.988  1.00  0.00     0.184 HD
HETATM   24  C2  UNL     1      20.614  26.080   0.301  1.00  0.00     0.146 A 
HETATM   25  C16 UNL     1      19.408  25.804  -1.727  1.00  0.00     0.168 A 
HETATM   26  N2  UNL     1      21.636  26.607  -0.378  1.00  0.00    -0.175 N 
HETATM   27  C1  UNL     1      21.563  26.739  -1.720  1.00  0.00     0.679 A 
ATOM     28  H2  UNL     1      22.474  26.910   0.118  1.00  0.00     0.186 HD
HETATM   29  N18 UNL     1      20.465  26.343  -2.374  1.00  0.00    -0.173 N 
ATOM     30  H18 UNL     1      20.425  26.450  -3.388  1.00  0.00     0.186 HD
BRANCH  24  31
HETATM   31  N3  UNL     1      20.703  25.958   1.597  1.00  0.00    -0.383 N 
ATOM     32  H32 UNL     1      20.697  26.777   2.205  1.00  0.00     0.157 HD
ATOM     33  H31 UNL     1      20.779  25.028   2.006  1.00  0.00     0.157 HD
ENDBRANCH  24  31
BRANCH  27  34
HETATM   34  N1  UNL     1      22.555  27.253  -2.395  1.00  0.00    -0.234 N 
ATOM     35  H12 UNL     1      23.137  27.967  -1.957  1.00  0.00     0.174 HD
ATOM     36  H11 UNL     1      22.750  26.947  -3.348  1.00  0.00     0.174 HD
ENDBRANCH  27  34
ENDBRANCH  18  19
ENDBRANCH  17  18
ENDBRANCH  16  17
ENDBRANCH  13  16
ENDBRANCH  11  12
ENDBRANCH  10  11
ENDBRANCH   1  10
BRANCH   9  37
HETATM   37  N17 UNL     1      13.034  29.169  -8.304  1.00  0.00    -0.334 N 
ATOM     38 2H17 UNL     1      13.593  29.994  -8.525  1.00  0.00     0.177 HD
ATOM     39 1H17 UNL     1      13.387  28.368  -8.826  1.00  0.00     0.177 HD
ENDBRANCH   9  37
BRANCH   5  40
HETATM   40  O3  UNL     1       7.555  28.379  -6.109  1.00  0.00    -0.355 OA
ATOM     41  H3  UNL     1       6.820  27.784  -6.196  1.00  0.00     0.218 HD
ENDBRANCH   5  40
BRANCH   7  42
HETATM   42  N15 UNL     1      10.373  28.146 -10.053  1.00  0.00    -0.335 N 
ATOM     43 2H15 UNL     1      10.235  27.277 -10.569  1.00  0.00     0.177 HD
ATOM     44 1H15 UNL     1      10.888  28.820 -10.619  1.00  0.00     0.177 HD
ENDBRANCH   7  42
BRANCH   6  45
HETATM   45  N9  UNL     1       7.577  27.677  -9.163  1.00  0.00    -0.281 N 
HETATM   46  C13 UNL     1       6.723  28.654  -9.786  1.00  0.00     0.206 C 
HETATM   47  N10 UNL     1       6.066  28.325 -10.819  1.00  0.00    -0.284 N 
HETATM   48  N11 UNL     1       6.162  27.044 -11.349  1.00  0.00    -0.242 N 
ATOM     49  H10 UNL     1       5.458  29.011 -11.267  1.00  0.00     0.188 HD
HETATM   50  N12 UNL     1       7.080  26.106 -10.888  1.00  0.00    -0.070 NA
ATOM     51  H11 UNL     1       5.534  26.781 -12.109  1.00  0.00     0.204 HD
HETATM   52  C14 UNL     1       7.323  26.298  -9.442  1.00  0.00     0.406 C 
BRANCH  52  53
HETATM   53  N13 UNL     1       8.388  25.404  -9.036  1.00  0.00    -0.042 N 
ATOM     54 3H13 UNL     1       8.951  25.132  -9.841  1.00  0.00     0.278 HD
ATOM     55 2H13 UNL     1       9.091  25.908  -8.496  1.00  0.00     0.278 HD
ATOM     56 1H13 UNL     1       8.070  24.579  -8.527  1.00  0.00     0.278 HD
ENDBRANCH  52  53
ENDBRANCH   6  45
TORSDOF 14
ENDMDL
