MODEL 1
REMARK VINA RESULT: -6.620645007      0.000      0.000
REMARK  15 active torsions:
REMARK  status: ('A' for Active; 'I' for Inactive)
REMARK    1  A    between atoms: C2_2  and  C3_3 
REMARK    2  A    between atoms: C3_3  and  C4_4 
REMARK    3  A    between atoms: C4_4  and  C5_5 
REMARK    4  A    between atoms: C8_10  and  C9_11 
REMARK    5  A    between atoms: C9_11  and  C10_12 
REMARK    6  A    between atoms: C9_11  and  O6_35 
REMARK    7  A    between atoms: C10_12  and  C11_13 
REMARK    8  A    between atoms: C11_13  and  O1_14 
REMARK    9  A    between atoms: C11_13  and  C12_16 
REMARK   10  A    between atoms: C13_17  and  O2_18 
REMARK   11  A    between atoms: C14_20  and  C15_21 
REMARK   12  A    between atoms: C15_21  and  O3_23 
REMARK   13  A    between atoms: C19_27  and  C20_28 
REMARK   14  A    between atoms: C20_28  and  O4_30 
REMARK   15  A    between atoms: C22_32  and  O5_33 
ROOT
HETATM    1  C12 UNL     1      22.756  33.131  12.821  1.00  0.00     0.061 A 
HETATM    2  C13 UNL     1      23.755  32.283  12.586  1.00  0.00     0.094 A 
HETATM    3  C14 UNL     1      25.123  32.642  12.368  1.00  0.00     0.034 A 
HETATM    4  C17 UNL     1      25.428  33.984  12.404  1.00  0.00    -0.031 A 
HETATM    5  C18 UNL     1      26.864  34.374  12.432  1.00  0.00     0.050 C 
HETATM    6  C19 UNL     1      24.441  34.913  12.621  1.00  0.00     0.034 A 
HETATM    7  C22 UNL     1      23.089  34.510  12.836  1.00  0.00     0.094 A 
ENDROOT
BRANCH   1   8
HETATM    8  C11 UNL     1      21.415  32.806  13.342  1.00  0.00     0.061 C 
BRANCH   8   9
HETATM    9  C10 UNL     1      21.017  32.416  14.690  1.00  0.00     0.103 C 
BRANCH   9  10
HETATM   10  C9  UNL     1      20.772  30.904  14.774  1.00  0.00     0.177 C 
BRANCH  10  11
HETATM   11  C8  UNL     1      21.858  30.300  15.616  1.00  0.00     0.045 A 
HETATM   12  N1  UNL     1      23.066  29.936  15.164  1.00  0.00    -0.360 N 
HETATM   13  C6  UNL     1      23.811  29.373  16.146  1.00  0.00     0.012 A 
ATOM     14  H1  UNL     1      23.384  30.066  14.203  1.00  0.00     0.165 HD
HETATM   15  C5  UNL     1      23.062  29.375  17.274  1.00  0.00    -0.028 A 
HETATM   16  C7  UNL     1      25.183  28.792  15.982  1.00  0.00     0.068 C 
HETATM   17  C24 UNL     1      21.820  29.964  16.937  1.00  0.00    -0.029 A 
HETATM   18  C25 UNL     1      20.731  30.160  17.919  1.00  0.00     0.051 C 
BRANCH  15  19
HETATM   19  C4  UNL     1      23.399  28.952  18.644  1.00  0.00     0.041 C 
BRANCH  19  20
HETATM   20  C3  UNL     1      23.961  30.063  19.453  1.00  0.00     0.004 C 
BRANCH  20  21
HETATM   21  C2  UNL     1      25.455  30.160  19.419  1.00  0.00    -0.004 C 
HETATM   22  C1  UNL     1      25.892  31.285  20.363  1.00  0.00     0.005 C 
ENDBRANCH  20  21
ENDBRANCH  19  20
ENDBRANCH  15  19
ENDBRANCH  10  11
BRANCH  10  23
HETATM   23  O6  UNL     1      20.756  30.355  13.522  1.00  0.00    -0.384 OA
HETATM   24  C23 UNL     1      20.530  29.035  13.359  1.00  0.00     0.202 C 
ENDBRANCH  10  23
ENDBRANCH   9  10
ENDBRANCH   8   9
BRANCH   8  25
HETATM   25  O1  UNL     1      20.462  32.901  12.460  1.00  0.00    -0.364 OA
ATOM     26  H1  UNL     1      20.615  33.494  11.734  1.00  0.00     0.217 HD
ENDBRANCH   8  25
ENDBRANCH   1   8
BRANCH   2  27
HETATM   27  O2  UNL     1      23.529  30.874  12.499  1.00  0.00    -0.359 OA
ATOM     28  H2  UNL     1      24.160  30.298  12.084  1.00  0.00     0.217 HD
ENDBRANCH   2  27
BRANCH   7  29
HETATM   29  O5  UNL     1      22.182  35.442  13.044  1.00  0.00    -0.359 OA
ATOM     30  H5  UNL     1      22.408  36.365  13.074  1.00  0.00     0.217 HD
ENDBRANCH   7  29
BRANCH   3  31
HETATM   31  C15 UNL     1      26.035  31.579  12.053  1.00  0.00     0.053 C 
HETATM   32  C16 UNL     1      26.976  30.849  12.877  1.00  0.00     0.077 C 
BRANCH  31  33
HETATM   33  O3  UNL     1      26.039  31.194  10.794  1.00  0.00    -0.364 OA
ATOM     34  H3  UNL     1      26.567  30.426  10.605  1.00  0.00     0.217 HD
ENDBRANCH  31  33
ENDBRANCH   3  31
BRANCH   6  35
HETATM   35  C20 UNL     1      24.678  36.349  12.569  1.00  0.00     0.053 C 
HETATM   36  C21 UNL     1      24.832  37.297  11.483  1.00  0.00     0.077 C 
BRANCH  35  37
HETATM   37  O4  UNL     1      24.766  36.910  13.746  1.00  0.00    -0.364 OA
ATOM     38  H4  UNL     1      23.925  37.138  14.125  1.00  0.00     0.217 HD
ENDBRANCH  35  37
ENDBRANCH   6  35
TORSDOF 15
ENDMDL
MODEL 2
REMARK VINA RESULT: -6.553631769      1.634      1.918
REMARK  15 active torsions:
REMARK  status: ('A' for Active; 'I' for Inactive)
REMARK    1  A    between atoms: C2_2  and  C3_3 
REMARK    2  A    between atoms: C3_3  and  C4_4 
REMARK    3  A    between atoms: C4_4  and  C5_5 
REMARK    4  A    between atoms: C8_10  and  C9_11 
REMARK    5  A    between atoms: C9_11  and  C10_12 
REMARK    6  A    between atoms: C9_11  and  O6_35 
REMARK    7  A    between atoms: C10_12  and  C11_13 
REMARK    8  A    between atoms: C11_13  and  O1_14 
REMARK    9  A    between atoms: C11_13  and  C12_16 
REMARK   10  A    between atoms: C13_17  and  O2_18 
REMARK   11  A    between atoms: C14_20  and  C15_21 
REMARK   12  A    between atoms: C15_21  and  O3_23 
REMARK   13  A    between atoms: C19_27  and  C20_28 
REMARK   14  A    between atoms: C20_28  and  O4_30 
REMARK   15  A    between atoms: C22_32  and  O5_33 
ROOT
HETATM    1  C12 UNL     1      24.063  34.028  13.083  1.00  0.00     0.061 A 
HETATM    2  C13 UNL     1      25.024  33.126  12.894  1.00  0.00     0.094 A 
HETATM    3  C14 UNL     1      26.404  33.290  13.235  1.00  0.00     0.034 A 
HETATM    4  C17 UNL     1      26.767  34.489  13.806  1.00  0.00    -0.031 A 
HETATM    5  C18 UNL     1      28.128  34.599  14.398  1.00  0.00     0.050 C 
HETATM    6  C19 UNL     1      25.828  35.471  14.010  1.00  0.00     0.034 A 
HETATM    7  C22 UNL     1      24.461  35.263  13.657  1.00  0.00     0.094 A 
ENDROOT
BRANCH   1   8
HETATM    8  C11 UNL     1      22.607  33.802  13.032  1.00  0.00     0.061 C 
BRANCH   8   9
HETATM    9  C10 UNL     1      21.740  33.135  13.998  1.00  0.00     0.103 C 
BRANCH   9  10
HETATM   10  C9  UNL     1      21.459  31.688  13.573  1.00  0.00     0.177 C 
BRANCH  10  11
HETATM   11  C8  UNL     1      22.239  30.776  14.474  1.00  0.00     0.045 A 
HETATM   12  N1  UNL     1      23.425  30.230  14.170  1.00  0.00    -0.360 N 
HETATM   13  C6  UNL     1      23.857  29.409  15.159  1.00  0.00     0.012 A 
ATOM     14  H1  UNL     1      23.936  30.408  13.306  1.00  0.00     0.165 HD
HETATM   15  C5  UNL     1      22.922  29.426  16.138  1.00  0.00    -0.028 A 
HETATM   16  C7  UNL     1      25.107  28.583  15.129  1.00  0.00     0.068 C 
HETATM   17  C24 UNL     1      21.892  30.295  15.702  1.00  0.00    -0.029 A 
HETATM   18  C25 UNL     1      20.691  30.589  16.514  1.00  0.00     0.051 C 
BRANCH  15  19
HETATM   19  C4  UNL     1      22.911  28.778  17.460  1.00  0.00     0.041 C 
BRANCH  19  20
HETATM   20  C3  UNL     1      23.388  29.687  18.534  1.00  0.00     0.004 C 
BRANCH  20  21
HETATM   21  C2  UNL     1      24.865  29.644  18.773  1.00  0.00    -0.004 C 
HETATM   22  C1  UNL     1      25.204  30.620  19.904  1.00  0.00     0.005 C 
ENDBRANCH  20  21
ENDBRANCH  19  20
ENDBRANCH  15  19
ENDBRANCH  10  11
BRANCH  10  23
HETATM   23  O6  UNL     1      21.803  31.502  12.263  1.00  0.00    -0.384 OA
HETATM   24  C23 UNL     1      20.847  31.370  11.320  1.00  0.00     0.202 C 
ENDBRANCH  10  23
ENDBRANCH   9  10
ENDBRANCH   8   9
BRANCH   8  25
HETATM   25  O1  UNL     1      22.027  34.290  11.972  1.00  0.00    -0.364 OA
ATOM     26  H1  UNL     1      21.264  34.835  12.121  1.00  0.00     0.217 HD
ENDBRANCH   8  25
ENDBRANCH   1   8
BRANCH   2  27
HETATM   27  O2  UNL     1      24.749  31.865  12.280  1.00  0.00    -0.359 OA
ATOM     28  H2  UNL     1      24.216  31.210  12.714  1.00  0.00     0.217 HD
ENDBRANCH   2  27
BRANCH   7  29
HETATM   29  O5  UNL     1      23.602  36.237  13.876  1.00  0.00    -0.359 OA
ATOM     30  H5  UNL     1      23.733  36.875  14.567  1.00  0.00     0.217 HD
ENDBRANCH   7  29
BRANCH   3  31
HETATM   31  C15 UNL     1      27.297  32.223  12.878  1.00  0.00     0.053 C 
HETATM   32  C16 UNL     1      28.218  32.075  11.771  1.00  0.00     0.077 C 
BRANCH  31  33
HETATM   33  O3  UNL     1      27.279  31.181  13.683  1.00  0.00    -0.364 OA
ATOM     34  H3  UNL     1      26.471  31.055  14.166  1.00  0.00     0.217 HD
ENDBRANCH  31  33
ENDBRANCH   3  31
BRANCH   6  35
HETATM   35  C20 UNL     1      26.163  36.795  14.512  1.00  0.00     0.053 C 
HETATM   36  C21 UNL     1      26.320  37.349  15.842  1.00  0.00     0.077 C 
BRANCH  35  37
HETATM   37  O4  UNL     1      26.375  37.677  13.570  1.00  0.00    -0.364 OA
ATOM     38  H4  UNL     1      27.134  38.227  13.726  1.00  0.00     0.217 HD
ENDBRANCH  35  37
ENDBRANCH   6  35
TORSDOF 15
ENDMDL
MODEL 3
REMARK VINA RESULT: -6.536355375      2.076      3.781
REMARK  15 active torsions:
REMARK  status: ('A' for Active; 'I' for Inactive)
REMARK    1  A    between atoms: C2_2  and  C3_3 
REMARK    2  A    between atoms: C3_3  and  C4_4 
REMARK    3  A    between atoms: C4_4  and  C5_5 
REMARK    4  A    between atoms: C8_10  and  C9_11 
REMARK    5  A    between atoms: C9_11  and  C10_12 
REMARK    6  A    between atoms: C9_11  and  O6_35 
REMARK    7  A    between atoms: C10_12  and  C11_13 
REMARK    8  A    between atoms: C11_13  and  O1_14 
REMARK    9  A    between atoms: C11_13  and  C12_16 
REMARK   10  A    between atoms: C13_17  and  O2_18 
REMARK   11  A    between atoms: C14_20  and  C15_21 
REMARK   12  A    between atoms: C15_21  and  O3_23 
REMARK   13  A    between atoms: C19_27  and  C20_28 
REMARK   14  A    between atoms: C20_28  and  O4_30 
REMARK   15  A    between atoms: C22_32  and  O5_33 
ROOT
HETATM    1  C12 UNL     1      23.228  35.924  12.398  1.00  0.00     0.061 A 
HETATM    2  C13 UNL     1      23.476  36.711  11.352  1.00  0.00     0.094 A 
HETATM    3  C14 UNL     1      24.598  37.587  11.212  1.00  0.00     0.034 A 
HETATM    4  C17 UNL     1      25.498  37.619  12.253  1.00  0.00    -0.031 A 
HETATM    5  C18 UNL     1      26.793  38.320  12.038  1.00  0.00     0.050 C 
HETATM    6  C19 UNL     1      25.292  36.849  13.371  1.00  0.00     0.034 A 
HETATM    7  C22 UNL     1      24.159  35.986  13.468  1.00  0.00     0.094 A 
ENDROOT
BRANCH   1   8
HETATM    8  C11 UNL     1      22.273  34.803  12.463  1.00  0.00     0.061 C 
BRANCH   8   9
HETATM    9  C10 UNL     1      22.529  33.367  12.416  1.00  0.00     0.103 C 
BRANCH   9  10
HETATM   10  C9  UNL     1      21.625  32.617  13.401  1.00  0.00     0.177 C 
BRANCH  10  11
HETATM   11  C8  UNL     1      22.416  31.490  13.998  1.00  0.00     0.045 A 
HETATM   12  N1  UNL     1      23.542  30.983  13.475  1.00  0.00    -0.360 N 
HETATM   13  C6  UNL     1      23.999  29.939  14.209  1.00  0.00     0.012 A 
ATOM     14  H1  UNL     1      23.996  31.337  12.633  1.00  0.00     0.165 HD
HETATM   15  C5  UNL     1      23.144  29.766  15.244  1.00  0.00    -0.028 A 
HETATM   16  C7  UNL     1      25.193  29.094  13.882  1.00  0.00     0.068 C 
HETATM   17  C24 UNL     1      22.136  30.751  15.109  1.00  0.00    -0.029 A 
HETATM   18  C25 UNL     1      21.020  30.896  16.069  1.00  0.00     0.051 C 
BRANCH  15  19
HETATM   19  C4  UNL     1      23.196  28.830  16.380  1.00  0.00     0.041 C 
BRANCH  19  20
HETATM   20  C3  UNL     1      24.138  29.281  17.436  1.00  0.00     0.004 C 
BRANCH  20  21
HETATM   21  C2  UNL     1      23.506  29.506  18.774  1.00  0.00    -0.004 C 
HETATM   22  C1  UNL     1      24.508  30.244  19.668  1.00  0.00     0.005 C 
ENDBRANCH  20  21
ENDBRANCH  19  20
ENDBRANCH  15  19
ENDBRANCH  10  11
BRANCH  10  23
HETATM   23  O6  UNL     1      20.509  32.152  12.762  1.00  0.00    -0.384 OA
HETATM   24  C23 UNL     1      20.600  31.642  11.516  1.00  0.00     0.202 C 
ENDBRANCH  10  23
ENDBRANCH   9  10
ENDBRANCH   8   9
BRANCH   8  25
HETATM   25  O1  UNL     1      21.030  35.167  12.598  1.00  0.00    -0.364 OA
ATOM     26  H1  UNL     1      20.870  35.934  13.134  1.00  0.00     0.217 HD
ENDBRANCH   8  25
ENDBRANCH   1   8
BRANCH   2  27
HETATM   27  O2  UNL     1      22.582  36.768  10.238  1.00  0.00    -0.359 OA
ATOM     28  H2  UNL     1      22.103  36.001   9.949  1.00  0.00     0.217 HD
ENDBRANCH   2  27
BRANCH   7  29
HETATM   29  O5  UNL     1      24.010  35.266  14.560  1.00  0.00    -0.359 OA
ATOM     30  H5  UNL     1      23.235  34.738  14.712  1.00  0.00     0.217 HD
ENDBRANCH   7  29
BRANCH   3  31
HETATM   31  C15 UNL     1      24.641  38.410  10.036  1.00  0.00     0.053 C 
HETATM   32  C16 UNL     1      25.295  38.222   8.758  1.00  0.00     0.077 C 
BRANCH  31  33
HETATM   33  O3  UNL     1      23.985  39.549  10.121  1.00  0.00    -0.364 OA
ATOM     34  H3  UNL     1      24.283  40.235   9.535  1.00  0.00     0.217 HD
ENDBRANCH  31  33
ENDBRANCH   3  31
BRANCH   6  35
HETATM   35  C20 UNL     1      26.147  36.913  14.547  1.00  0.00     0.053 C 
HETATM   36  C21 UNL     1      27.454  36.372  14.863  1.00  0.00     0.077 C 
BRANCH  35  37
HETATM   37  O4  UNL     1      25.638  37.609  15.530  1.00  0.00    -0.364 OA
ATOM     38  H4  UNL     1      26.224  37.709  16.271  1.00  0.00     0.217 HD
ENDBRANCH  35  37
ENDBRANCH   6  35
TORSDOF 15
ENDMDL
MODEL 4
REMARK VINA RESULT: -6.531127734      2.384      7.052
REMARK  15 active torsions:
REMARK  status: ('A' for Active; 'I' for Inactive)
REMARK    1  A    between atoms: C2_2  and  C3_3 
REMARK    2  A    between atoms: C3_3  and  C4_4 
REMARK    3  A    between atoms: C4_4  and  C5_5 
REMARK    4  A    between atoms: C8_10  and  C9_11 
REMARK    5  A    between atoms: C9_11  and  C10_12 
REMARK    6  A    between atoms: C9_11  and  O6_35 
REMARK    7  A    between atoms: C10_12  and  C11_13 
REMARK    8  A    between atoms: C11_13  and  O1_14 
REMARK    9  A    between atoms: C11_13  and  C12_16 
REMARK   10  A    between atoms: C13_17  and  O2_18 
REMARK   11  A    between atoms: C14_20  and  C15_21 
REMARK   12  A    between atoms: C15_21  and  O3_23 
REMARK   13  A    between atoms: C19_27  and  C20_28 
REMARK   14  A    between atoms: C20_28  and  O4_30 
REMARK   15  A    between atoms: C22_32  and  O5_33 
ROOT
HETATM    1  C12 UNL     1      24.455  29.379  14.985  1.00  0.00     0.061 A 
HETATM    2  C13 UNL     1      23.373  29.769  14.315  1.00  0.00     0.094 A 
HETATM    3  C14 UNL     1      22.072  29.975  14.873  1.00  0.00     0.034 A 
HETATM    4  C17 UNL     1      21.930  29.745  16.223  1.00  0.00    -0.031 A 
HETATM    5  C18 UNL     1      20.669  30.186  16.880  1.00  0.00     0.050 C 
HETATM    6  C19 UNL     1      23.001  29.320  16.970  1.00  0.00     0.034 A 
HETATM    7  C22 UNL     1      24.283  29.130  16.372  1.00  0.00     0.094 A 
ENDROOT
BRANCH   1   8
HETATM    8  C11 UNL     1      25.856  29.443  14.530  1.00  0.00     0.061 C 
BRANCH   8   9
HETATM    9  C10 UNL     1      26.764  30.584  14.490  1.00  0.00     0.103 C 
BRANCH   9  10
HETATM   10  C9  UNL     1      26.764  31.235  13.101  1.00  0.00     0.177 C 
BRANCH  10  11
HETATM   11  C8  UNL     1      26.022  32.536  13.194  1.00  0.00     0.045 A 
HETATM   12  N1  UNL     1      24.724  32.700  12.901  1.00  0.00    -0.360 N 
HETATM   13  C6  UNL     1      24.350  33.997  13.029  1.00  0.00     0.012 A 
ATOM     14  H1  UNL     1      24.098  31.947  12.619  1.00  0.00     0.165 HD
HETATM   15  C5  UNL     1      25.441  34.697  13.421  1.00  0.00    -0.028 A 
HETATM   16  C7  UNL     1      22.994  34.553  12.719  1.00  0.00     0.068 C 
HETATM   17  C24 UNL     1      26.505  33.768  13.525  1.00  0.00    -0.029 A 
HETATM   18  C25 UNL     1      27.869  34.152  13.948  1.00  0.00     0.051 C 
BRANCH  15  19
HETATM   19  C4  UNL     1      25.588  36.119  13.773  1.00  0.00     0.041 C 
BRANCH  19  20
HETATM   20  C3  UNL     1      25.220  36.388  15.187  1.00  0.00     0.004 C 
BRANCH  20  21
HETATM   21  C2  UNL     1      25.949  37.538  15.809  1.00  0.00    -0.004 C 
HETATM   22  C1  UNL     1      27.359  37.074  16.188  1.00  0.00     0.005 C 
ENDBRANCH  20  21
ENDBRANCH  19  20
ENDBRANCH  15  19
ENDBRANCH  10  11
BRANCH  10  23
HETATM   23  O6  UNL     1      26.187  30.401  12.185  1.00  0.00    -0.384 OA
HETATM   24  C23 UNL     1      26.789  30.168  11.000  1.00  0.00     0.202 C 
ENDBRANCH  10  23
ENDBRANCH   9  10
ENDBRANCH   8   9
BRANCH   8  25
HETATM   25  O1  UNL     1      26.339  28.303  14.124  1.00  0.00    -0.364 OA
ATOM     26  H1  UNL     1      26.875  27.826  14.746  1.00  0.00     0.217 HD
ENDBRANCH   8  25
ENDBRANCH   1   8
BRANCH   2  27
HETATM   27  O2  UNL     1      23.415  30.001  12.905  1.00  0.00    -0.359 OA
ATOM     28  H2  UNL     1      23.571  30.869  12.552  1.00  0.00     0.217 HD
ENDBRANCH   2  27
BRANCH   7  29
HETATM   29  O5  UNL     1      25.277  28.725  17.134  1.00  0.00    -0.359 OA
ATOM     30  H5  UNL     1      25.140  28.136  17.866  1.00  0.00     0.217 HD
ENDBRANCH   7  29
BRANCH   3  31
HETATM   31  C15 UNL     1      21.017  30.323  13.963  1.00  0.00     0.053 C 
HETATM   32  C16 UNL     1      20.547  31.608  13.489  1.00  0.00     0.077 C 
BRANCH  31  33
HETATM   33  O3  UNL     1      20.339  29.307  13.472  1.00  0.00    -0.364 OA
ATOM     34  H3  UNL     1      19.984  29.439  12.600  1.00  0.00     0.217 HD
ENDBRANCH  31  33
ENDBRANCH   3  31
BRANCH   6  35
HETATM   35  C20 UNL     1      22.895  28.962  18.377  1.00  0.00     0.053 C 
HETATM   36  C21 UNL     1      22.500  27.753  19.072  1.00  0.00     0.077 C 
BRANCH  35  37
HETATM   37  O4  UNL     1      23.231  29.926  19.192  1.00  0.00    -0.364 OA
ATOM     38  H4  UNL     1      22.737  29.930  20.004  1.00  0.00     0.217 HD
ENDBRANCH  35  37
ENDBRANCH   6  35
TORSDOF 15
ENDMDL
MODEL 5
REMARK VINA RESULT: -6.524649528      1.412      1.816
REMARK  15 active torsions:
REMARK  status: ('A' for Active; 'I' for Inactive)
REMARK    1  A    between atoms: C2_2  and  C3_3 
REMARK    2  A    between atoms: C3_3  and  C4_4 
REMARK    3  A    between atoms: C4_4  and  C5_5 
REMARK    4  A    between atoms: C8_10  and  C9_11 
REMARK    5  A    between atoms: C9_11  and  C10_12 
REMARK    6  A    between atoms: C9_11  and  O6_35 
REMARK    7  A    between atoms: C10_12  and  C11_13 
REMARK    8  A    between atoms: C11_13  and  O1_14 
REMARK    9  A    between atoms: C11_13  and  C12_16 
REMARK   10  A    between atoms: C13_17  and  O2_18 
REMARK   11  A    between atoms: C14_20  and  C15_21 
REMARK   12  A    between atoms: C15_21  and  O3_23 
REMARK   13  A    between atoms: C19_27  and  C20_28 
REMARK   14  A    between atoms: C20_28  and  O4_30 
REMARK   15  A    between atoms: C22_32  and  O5_33 
ROOT
HETATM    1  C12 UNL     1      21.622  33.131  12.506  1.00  0.00     0.061 A 
HETATM    2  C13 UNL     1      22.882  32.858  12.176  1.00  0.00     0.094 A 
HETATM    3  C14 UNL     1      23.831  33.791  11.651  1.00  0.00     0.034 A 
HETATM    4  C17 UNL     1      23.396  35.085  11.469  1.00  0.00    -0.031 A 
HETATM    5  C18 UNL     1      24.413  36.129  11.166  1.00  0.00     0.050 C 
HETATM    6  C19 UNL     1      22.101  35.430  11.769  1.00  0.00     0.034 A 
HETATM    7  C22 UNL     1      21.189  34.466  12.294  1.00  0.00     0.094 A 
ENDROOT
BRANCH   1   8
HETATM    8  C11 UNL     1      20.712  32.300  13.317  1.00  0.00     0.061 C 
BRANCH   8   9
HETATM    9  C10 UNL     1      20.897  31.771  14.664  1.00  0.00     0.103 C 
BRANCH   9  10
HETATM   10  C9  UNL     1      20.933  30.238  14.651  1.00  0.00     0.177 C 
BRANCH  10  11
HETATM   11  C8  UNL     1      22.176  29.793  15.363  1.00  0.00     0.045 A 
HETATM   12  N1  UNL     1      23.352  29.545  14.769  1.00  0.00    -0.360 N 
HETATM   13  C6  UNL     1      24.273  29.108  15.663  1.00  0.00     0.012 A 
ATOM     14  H1  UNL     1      23.532  29.669  13.773  1.00  0.00     0.165 HD
HETATM   15  C5  UNL     1      23.675  29.074  16.877  1.00  0.00    -0.028 A 
HETATM   16  C7  UNL     1      25.671  28.674  15.341  1.00  0.00     0.068 C 
HETATM   17  C24 UNL     1      22.341  29.509  16.686  1.00  0.00    -0.029 A 
HETATM   18  C25 UNL     1      21.368  29.625  17.794  1.00  0.00     0.051 C 
BRANCH  15  19
HETATM   19  C4  UNL     1      24.225  28.748  18.204  1.00  0.00     0.041 C 
BRANCH  19  20
HETATM   20  C3  UNL     1      25.090  29.832  18.736  1.00  0.00     0.004 C 
BRANCH  20  21
HETATM   21  C2  UNL     1      24.622  30.419  20.030  1.00  0.00    -0.004 C 
HETATM   22  C1  UNL     1      25.714  31.351  20.565  1.00  0.00     0.005 C 
ENDBRANCH  20  21
ENDBRANCH  19  20
ENDBRANCH  15  19
ENDBRANCH  10  11
BRANCH  10  23
HETATM   23  O6  UNL     1      20.907  29.773  13.365  1.00  0.00    -0.384 OA
HETATM   24  C23 UNL     1      20.396  28.554  13.092  1.00  0.00     0.202 C 
ENDBRANCH  10  23
ENDBRANCH   9  10
ENDBRANCH   8   9
BRANCH   8  25
HETATM   25  O1  UNL     1      19.580  32.022  12.735  1.00  0.00    -0.364 OA
ATOM     26  H1  UNL     1      18.872  32.640  12.871  1.00  0.00     0.217 HD
ENDBRANCH   8  25
ENDBRANCH   1   8
BRANCH   2  27
HETATM   27  O2  UNL     1      23.413  31.536  12.300  1.00  0.00    -0.359 OA
ATOM     28  H2  UNL     1      23.662  31.031  11.536  1.00  0.00     0.217 HD
ENDBRANCH   2  27
BRANCH   7  29
HETATM   29  O5  UNL     1      19.960  34.850  12.568  1.00  0.00    -0.359 OA
ATOM     30  H5  UNL     1      19.746  35.758  12.749  1.00  0.00     0.217 HD
ENDBRANCH   7  29
BRANCH   3  31
HETATM   31  C15 UNL     1      25.121  33.277  11.287  1.00  0.00     0.053 C 
HETATM   32  C16 UNL     1      26.366  33.207  12.022  1.00  0.00     0.077 C 
BRANCH  31  33
HETATM   33  O3  UNL     1      25.209  32.789  10.067  1.00  0.00    -0.364 OA
ATOM     34  H3  UNL     1      25.150  31.843  10.003  1.00  0.00     0.217 HD
ENDBRANCH  31  33
ENDBRANCH   3  31
BRANCH   6  35
HETATM   35  C20 UNL     1      21.551  36.751  11.504  1.00  0.00     0.053 C 
HETATM   36  C21 UNL     1      21.443  37.567  10.312  1.00  0.00     0.077 C 
BRANCH  35  37
HETATM   37  O4  UNL     1      21.038  37.328  12.559  1.00  0.00    -0.364 OA
ATOM     38  H4  UNL     1      21.195  38.264  12.597  1.00  0.00     0.217 HD
ENDBRANCH  35  37
ENDBRANCH   6  35
TORSDOF 15
ENDMDL
