MODEL 1
REMARK VINA RESULT: -7.390316011      0.000      0.000
REMARK  14 active torsions:
REMARK  status: ('A' for Active; 'I' for Inactive)
REMARK    1  A    between atoms: C2_2  and  C3_3 
REMARK    2  A    between atoms: C3_3  and  C4_4 
REMARK    3  A    between atoms: C8_8  and  C9_9 
REMARK    4  A    between atoms: C9_9  and  C10_10 
REMARK    5  A    between atoms: C10_10  and  C11_11 
REMARK    6  A    between atoms: C11_11  and  C13_13 
REMARK    7  A    between atoms: C15_15  and  C16_16 
REMARK    8  A    between atoms: C17_19  and  S1_20 
REMARK    9  A    between atoms: S1_20  and  C18_21 
REMARK   10  A    between atoms: C18_21  and  C19_22 
REMARK   11  A    between atoms: C19_22  and  C20_23 
REMARK   12  A    between atoms: C20_23  and  C21_24 
REMARK   13  A    between atoms: C21_24  and  O1_25 
REMARK   14  A    between atoms: C22_29  and  N3_30 
ROOT
HETATM    1  C16 UNL     1      23.093  30.953  13.585  1.00  0.00     0.086 A 
HETATM    2  N1  UNL     1      23.833  31.885  12.989  1.00  0.00    -0.334 N 
ATOM      3  H1  UNL     1      24.791  31.973  13.327  1.00  0.00     0.168 HD
HETATM    4  C17 UNL     1      23.491  32.707  12.022  1.00  0.00     0.146 A 
HETATM    5  N2  UNL     1      22.236  32.614  11.556  1.00  0.00    -0.322 N 
ATOM      6  H2  UNL     1      21.931  33.233  10.805  1.00  0.00     0.169 HD
HETATM    7  C22 UNL     1      21.388  31.727  12.060  1.00  0.00     0.124 A 
HETATM    8  C23 UNL     1      21.809  30.872  13.095  1.00  0.00     0.117 A 
HETATM    9  C24 UNL     1      20.810  29.958  13.552  1.00  0.00     0.105 C 
HETATM   10  N4  UNL     1      19.967  29.231  13.890  1.00  0.00    -0.191 NA
ENDROOT
BRANCH   1  11
HETATM   11  C15 UNL     1      23.512  30.061  14.659  1.00  0.00     0.072 A 
HETATM   12  C8  UNL     1      24.663  29.323  14.647  1.00  0.00    -0.001 A 
HETATM   13  C6  UNL     1      25.021  28.600  15.824  1.00  0.00    -0.048 A 
HETATM   14  C5  UNL     1      24.216  28.658  16.906  1.00  0.00     0.032 A 
HETATM   15  C7  UNL     1      26.293  27.786  15.836  1.00  0.00     0.049 C 
HETATM   16  C4  UNL     1      23.056  29.399  16.902  1.00  0.00     0.010 A 
HETATM   17  N5  UNL     1      22.749  30.061  15.804  1.00  0.00    -0.357 N 
ATOM     18  H5  UNL     1      21.890  30.609  15.803  1.00  0.00     0.166 HD
BRANCH  12  19
HETATM   19  C9  UNL     1      25.603  29.167  13.595  1.00  0.00     0.011 C 
BRANCH  19  20
HETATM   20  C10 UNL     1      25.591  28.937  12.335  1.00  0.00    -0.022 C 
BRANCH  20  21
HETATM   21  C11 UNL     1      26.775  28.402  11.580  1.00  0.00     0.004 C 
HETATM   22  C12 UNL     1      26.339  27.644  10.355  1.00  0.00     0.014 C 
BRANCH  21  23
HETATM   23  C13 UNL     1      27.646  27.514  12.422  1.00  0.00     0.003 C 
HETATM   24  C14 UNL     1      27.924  26.268  11.579  1.00  0.00     0.006 C 
ENDBRANCH  21  23
ENDBRANCH  20  21
ENDBRANCH  19  20
ENDBRANCH  12  19
BRANCH  16  25
HETATM   25  C3  UNL     1      22.169  29.445  18.107  1.00  0.00     0.056 C 
BRANCH  25  26
HETATM   26  C2  UNL     1      20.919  30.221  17.852  1.00  0.00     0.002 C 
HETATM   27  C1  UNL     1      19.808  29.215  17.588  1.00  0.00     0.005 C 
ENDBRANCH  25  26
ENDBRANCH  16  25
ENDBRANCH   1  11
BRANCH   7  28
HETATM   28  N3  UNL     1      20.196  31.672  11.587  1.00  0.00    -0.384 N 
ATOM     29  H32 UNL     1      19.395  31.473  12.185  1.00  0.00     0.157 HD
ATOM     30  H31 UNL     1      20.055  31.834  10.590  1.00  0.00     0.157 HD
ENDBRANCH   7  28
BRANCH   4  31
HETATM   31  S1  UNL     1      24.629  33.915  11.353  1.00  0.00    -0.094 SA
BRANCH  31  32
HETATM   32  C18 UNL     1      23.835  35.487  11.063  1.00  0.00     0.082 C 
BRANCH  32  33
HETATM   33  C19 UNL     1      23.193  36.108  12.264  1.00  0.00     0.013 C 
BRANCH  33  34
HETATM   34  C20 UNL     1      21.795  36.648  11.921  1.00  0.00     0.027 C 
BRANCH  34  35
HETATM   35  C21 UNL     1      20.764  35.667  12.439  1.00  0.00     0.164 C 
BRANCH  35  36
HETATM   36  O1  UNL     1      20.366  34.831  11.380  1.00  0.00    -0.401 OA
ATOM     37  H1  UNL     1      19.429  34.925  11.254  1.00  0.00     0.209 HD
ENDBRANCH  35  36
ENDBRANCH  34  35
ENDBRANCH  33  34
ENDBRANCH  32  33
ENDBRANCH  31  32
ENDBRANCH   4  31
TORSDOF 14
ENDMDL
MODEL 2
REMARK VINA RESULT: -7.157193672      1.995      2.340
REMARK  14 active torsions:
REMARK  status: ('A' for Active; 'I' for Inactive)
REMARK    1  A    between atoms: C2_2  and  C3_3 
REMARK    2  A    between atoms: C3_3  and  C4_4 
REMARK    3  A    between atoms: C8_8  and  C9_9 
REMARK    4  A    between atoms: C9_9  and  C10_10 
REMARK    5  A    between atoms: C10_10  and  C11_11 
REMARK    6  A    between atoms: C11_11  and  C13_13 
REMARK    7  A    between atoms: C15_15  and  C16_16 
REMARK    8  A    between atoms: C17_19  and  S1_20 
REMARK    9  A    between atoms: S1_20  and  C18_21 
REMARK   10  A    between atoms: C18_21  and  C19_22 
REMARK   11  A    between atoms: C19_22  and  C20_23 
REMARK   12  A    between atoms: C20_23  and  C21_24 
REMARK   13  A    between atoms: C21_24  and  O1_25 
REMARK   14  A    between atoms: C22_29  and  N3_30 
ROOT
HETATM    1  C16 UNL     1      23.042  31.183  13.845  1.00  0.00     0.086 A 
HETATM    2  N1  UNL     1      23.758  32.221  13.420  1.00  0.00    -0.334 N 
ATOM      3  H1  UNL     1      24.690  32.311  13.825  1.00  0.00     0.168 HD
HETATM    4  C17 UNL     1      23.423  33.146  12.548  1.00  0.00     0.146 A 
HETATM    5  N2  UNL     1      22.202  33.053  11.998  1.00  0.00    -0.322 N 
ATOM      6  H2  UNL     1      21.903  33.750  11.315  1.00  0.00     0.169 HD
HETATM    7  C22 UNL     1      21.380  32.066  12.331  1.00  0.00     0.124 A 
HETATM    8  C23 UNL     1      21.792  31.104  13.271  1.00  0.00     0.117 A 
HETATM    9  C24 UNL     1      20.824  30.089  13.544  1.00  0.00     0.105 C 
HETATM   10  N4  UNL     1      20.008  29.283  13.733  1.00  0.00    -0.191 NA
ENDROOT
BRANCH   1  11
HETATM   11  C15 UNL     1      23.451  30.180  14.820  1.00  0.00     0.072 A 
HETATM   12  C8  UNL     1      24.642  29.508  14.783  1.00  0.00    -0.001 A 
HETATM   13  C6  UNL     1      24.976  28.655  15.877  1.00  0.00    -0.048 A 
HETATM   14  C5  UNL     1      24.112  28.529  16.906  1.00  0.00     0.032 A 
HETATM   15  C7  UNL     1      26.289  27.910  15.861  1.00  0.00     0.049 C 
HETATM   16  C4  UNL     1      22.913  29.206  16.926  1.00  0.00     0.010 A 
HETATM   17  N5  UNL     1      22.629  29.991  15.905  1.00  0.00    -0.357 N 
ATOM     18  H5  UNL     1      21.741  30.491  15.923  1.00  0.00     0.166 HD
BRANCH  12  19
HETATM   19  C9  UNL     1      25.645  29.538  13.779  1.00  0.00     0.011 C 
BRANCH  19  20
HETATM   20  C10 UNL     1      25.734  29.336  12.517  1.00  0.00    -0.022 C 
BRANCH  20  21
HETATM   21  C11 UNL     1      26.562  28.238  11.912  1.00  0.00     0.004 C 
HETATM   22  C12 UNL     1      28.022  28.424  12.224  1.00  0.00     0.014 C 
BRANCH  21  23
HETATM   23  C13 UNL     1      26.389  28.136  10.423  1.00  0.00     0.003 C 
HETATM   24  C14 UNL     1      26.585  26.660  10.072  1.00  0.00     0.006 C 
ENDBRANCH  21  23
ENDBRANCH  20  21
ENDBRANCH  19  20
ENDBRANCH  12  19
BRANCH  16  25
HETATM   25  C3  UNL     1      21.961  29.049  18.071  1.00  0.00     0.056 C 
BRANCH  25  26
HETATM   26  C2  UNL     1      20.810  29.996  17.974  1.00  0.00     0.002 C 
HETATM   27  C1  UNL     1      19.580  29.178  17.607  1.00  0.00     0.005 C 
ENDBRANCH  25  26
ENDBRANCH  16  25
ENDBRANCH   1  11
BRANCH   7  28
HETATM   28  N3  UNL     1      20.221  32.015  11.782  1.00  0.00    -0.384 N 
ATOM     29  H32 UNL     1      19.719  32.861  11.518  1.00  0.00     0.157 HD
ATOM     30  H31 UNL     1      19.800  31.102  11.609  1.00  0.00     0.157 HD
ENDBRANCH   7  28
BRANCH   4  31
HETATM   31  S1  UNL     1      24.525  34.487  12.112  1.00  0.00    -0.094 SA
BRANCH  31  32
HETATM   32  C18 UNL     1      24.231  35.938  13.107  1.00  0.00     0.082 C 
BRANCH  32  33
HETATM   33  C19 UNL     1      24.881  35.929  14.456  1.00  0.00     0.013 C 
BRANCH  33  34
HETATM   34  C20 UNL     1      25.650  37.238  14.703  1.00  0.00     0.027 C 
BRANCH  34  35
HETATM   35  C21 UNL     1      25.957  37.338  16.183  1.00  0.00     0.164 C 
BRANCH  35  36
HETATM   36  O1  UNL     1      25.654  38.642  16.617  1.00  0.00    -0.401 OA
ATOM     37  H1  UNL     1      26.436  39.024  16.998  1.00  0.00     0.209 HD
ENDBRANCH  35  36
ENDBRANCH  34  35
ENDBRANCH  33  34
ENDBRANCH  32  33
ENDBRANCH  31  32
ENDBRANCH   4  31
TORSDOF 14
ENDMDL
MODEL 3
REMARK VINA RESULT: -7.101338590      2.330      3.656
REMARK  14 active torsions:
REMARK  status: ('A' for Active; 'I' for Inactive)
REMARK    1  A    between atoms: C2_2  and  C3_3 
REMARK    2  A    between atoms: C3_3  and  C4_4 
REMARK    3  A    between atoms: C8_8  and  C9_9 
REMARK    4  A    between atoms: C9_9  and  C10_10 
REMARK    5  A    between atoms: C10_10  and  C11_11 
REMARK    6  A    between atoms: C11_11  and  C13_13 
REMARK    7  A    between atoms: C15_15  and  C16_16 
REMARK    8  A    between atoms: C17_19  and  S1_20 
REMARK    9  A    between atoms: S1_20  and  C18_21 
REMARK   10  A    between atoms: C18_21  and  C19_22 
REMARK   11  A    between atoms: C19_22  and  C20_23 
REMARK   12  A    between atoms: C20_23  and  C21_24 
REMARK   13  A    between atoms: C21_24  and  O1_25 
REMARK   14  A    between atoms: C22_29  and  N3_30 
ROOT
HETATM    1  C16 UNL     1      23.106  33.307  13.417  1.00  0.00     0.086 A 
HETATM    2  N1  UNL     1      23.935  34.277  13.796  1.00  0.00    -0.334 N 
ATOM      3  H1  UNL     1      24.685  33.997  14.428  1.00  0.00     0.168 HD
HETATM    4  C17 UNL     1      23.914  35.548  13.463  1.00  0.00     0.146 A 
HETATM    5  N2  UNL     1      22.939  35.947  12.631  1.00  0.00    -0.322 N 
ATOM      6  H2  UNL     1      22.888  36.925  12.347  1.00  0.00     0.169 HD
HETATM    7  C22 UNL     1      22.041  35.084  12.174  1.00  0.00     0.124 A 
HETATM    8  C23 UNL     1      22.112  33.734  12.565  1.00  0.00     0.117 A 
HETATM    9  C24 UNL     1      21.094  32.900  12.005  1.00  0.00     0.105 C 
HETATM   10  N4  UNL     1      20.251  32.260  11.524  1.00  0.00    -0.191 NA
ENDROOT
BRANCH   1  11
HETATM   11  C15 UNL     1      23.162  31.906  13.814  1.00  0.00     0.072 A 
HETATM   12  C8  UNL     1      24.248  31.094  13.632  1.00  0.00    -0.001 A 
HETATM   13  C6  UNL     1      24.220  29.783  14.194  1.00  0.00    -0.048 A 
HETATM   14  C5  UNL     1      23.128  29.380  14.877  1.00  0.00     0.032 A 
HETATM   15  C7  UNL     1      25.411  28.873  14.013  1.00  0.00     0.049 C 
HETATM   16  C4  UNL     1      22.038  30.205  15.046  1.00  0.00     0.010 A 
HETATM   17  N5  UNL     1      22.091  31.413  14.521  1.00  0.00    -0.357 N 
ATOM     18  H5  UNL     1      21.283  32.022  14.647  1.00  0.00     0.166 HD
BRANCH  12  19
HETATM   19  C9  UNL     1      25.458  31.375  12.944  1.00  0.00     0.011 C 
BRANCH  19  20
HETATM   20  C10 UNL     1      25.860  31.481  11.733  1.00  0.00    -0.022 C 
BRANCH  20  21
HETATM   21  C11 UNL     1      26.375  32.763  11.142  1.00  0.00     0.004 C 
HETATM   22  C12 UNL     1      27.010  33.630  12.195  1.00  0.00     0.014 C 
BRANCH  21  23
HETATM   23  C13 UNL     1      25.304  33.549  10.441  1.00  0.00     0.003 C 
HETATM   24  C14 UNL     1      25.800  33.761   9.009  1.00  0.00     0.006 C 
ENDBRANCH  21  23
ENDBRANCH  20  21
ENDBRANCH  19  20
ENDBRANCH  12  19
BRANCH  16  25
HETATM   25  C3  UNL     1      20.831  29.740  15.800  1.00  0.00     0.056 C 
BRANCH  25  26
HETATM   26  C2  UNL     1      20.578  30.569  17.015  1.00  0.00     0.002 C 
HETATM   27  C1  UNL     1      21.482  30.043  18.120  1.00  0.00     0.005 C 
ENDBRANCH  25  26
ENDBRANCH  16  25
ENDBRANCH   1  11
BRANCH   7  28
HETATM   28  N3  UNL     1      21.124  35.506  11.382  1.00  0.00    -0.384 N 
ATOM     29  H32 UNL     1      20.616  36.370  11.567  1.00  0.00     0.157 HD
ATOM     30  H31 UNL     1      20.904  34.959  10.550  1.00  0.00     0.157 HD
ENDBRANCH   7  28
BRANCH   4  31
HETATM   31  S1  UNL     1      25.115  36.717  14.092  1.00  0.00    -0.094 SA
BRANCH  31  32
HETATM   32  C18 UNL     1      25.827  37.706  12.788  1.00  0.00     0.082 C 
BRANCH  32  33
HETATM   33  C19 UNL     1      25.766  37.097  11.421  1.00  0.00     0.013 C 
BRANCH  33  34
HETATM   34  C20 UNL     1      24.940  37.975  10.466  1.00  0.00     0.027 C 
BRANCH  34  35
HETATM   35  C21 UNL     1      24.293  37.078   9.433  1.00  0.00     0.164 C 
BRANCH  35  36
HETATM   36  O1  UNL     1      22.897  37.129   9.604  1.00  0.00    -0.401 OA
ATOM     37  H1  UNL     1      22.512  37.537   8.837  1.00  0.00     0.209 HD
ENDBRANCH  35  36
ENDBRANCH  34  35
ENDBRANCH  33  34
ENDBRANCH  32  33
ENDBRANCH  31  32
ENDBRANCH   4  31
TORSDOF 14
ENDMDL
MODEL 4
REMARK VINA RESULT: -6.971304519      2.153      2.990
REMARK  14 active torsions:
REMARK  status: ('A' for Active; 'I' for Inactive)
REMARK    1  A    between atoms: C2_2  and  C3_3 
REMARK    2  A    between atoms: C3_3  and  C4_4 
REMARK    3  A    between atoms: C8_8  and  C9_9 
REMARK    4  A    between atoms: C9_9  and  C10_10 
REMARK    5  A    between atoms: C10_10  and  C11_11 
REMARK    6  A    between atoms: C11_11  and  C13_13 
REMARK    7  A    between atoms: C15_15  and  C16_16 
REMARK    8  A    between atoms: C17_19  and  S1_20 
REMARK    9  A    between atoms: S1_20  and  C18_21 
REMARK   10  A    between atoms: C18_21  and  C19_22 
REMARK   11  A    between atoms: C19_22  and  C20_23 
REMARK   12  A    between atoms: C20_23  and  C21_24 
REMARK   13  A    between atoms: C21_24  and  O1_25 
REMARK   14  A    between atoms: C22_29  and  N3_30 
ROOT
HETATM    1  C16 UNL     1      23.035  33.197  13.472  1.00  0.00     0.086 A 
HETATM    2  N1  UNL     1      23.891  34.158  13.810  1.00  0.00    -0.334 N 
ATOM      3  H1  UNL     1      24.637  33.882  14.449  1.00  0.00     0.168 HD
HETATM    4  C17 UNL     1      23.901  35.416  13.431  1.00  0.00     0.146 A 
HETATM    5  N2  UNL     1      22.932  35.809  12.590  1.00  0.00    -0.322 N 
ATOM      6  H2  UNL     1      22.904  36.777  12.270  1.00  0.00     0.169 HD
HETATM    7  C22 UNL     1      22.010  34.953  12.169  1.00  0.00     0.124 A 
HETATM    8  C23 UNL     1      22.048  33.617  12.609  1.00  0.00     0.117 A 
HETATM    9  C24 UNL     1      21.007  32.790  12.084  1.00  0.00     0.105 C 
HETATM   10  N4  UNL     1      20.144  32.154  11.632  1.00  0.00    -0.191 NA
ENDROOT
BRANCH   1  11
HETATM   11  C15 UNL     1      23.058  31.810  13.920  1.00  0.00     0.072 A 
HETATM   12  C8  UNL     1      24.165  31.006  13.891  1.00  0.00    -0.001 A 
HETATM   13  C6  UNL     1      24.084  29.714  14.490  1.00  0.00    -0.048 A 
HETATM   14  C5  UNL     1      22.924  29.319  15.057  1.00  0.00     0.032 A 
HETATM   15  C7  UNL     1      25.296  28.814  14.477  1.00  0.00     0.049 C 
HETATM   16  C4  UNL     1      21.815  30.136  15.072  1.00  0.00     0.010 A 
HETATM   17  N5  UNL     1      21.917  31.326  14.515  1.00  0.00    -0.357 N 
ATOM     18  H5  UNL     1      21.095  31.929  14.528  1.00  0.00     0.166 HD
BRANCH  12  19
HETATM   19  C9  UNL     1      25.443  31.279  13.337  1.00  0.00     0.011 C 
BRANCH  19  20
HETATM   20  C10 UNL     1      25.946  31.536  12.187  1.00  0.00    -0.022 C 
BRANCH  20  21
HETATM   21  C11 UNL     1      26.745  30.541  11.393  1.00  0.00     0.004 C 
HETATM   22  C12 UNL     1      27.301  31.166  10.143  1.00  0.00     0.014 C 
BRANCH  21  23
HETATM   23  C13 UNL     1      25.947  29.324  11.019  1.00  0.00     0.003 C 
HETATM   24  C14 UNL     1      26.889  28.130  11.189  1.00  0.00     0.006 C 
ENDBRANCH  21  23
ENDBRANCH  20  21
ENDBRANCH  19  20
ENDBRANCH  12  19
BRANCH  16  25
HETATM   25  C3  UNL     1      20.534  29.680  15.698  1.00  0.00     0.056 C 
BRANCH  25  26
HETATM   26  C2  UNL     1      20.748  29.124  17.066  1.00  0.00     0.002 C 
HETATM   27  C1  UNL     1      20.902  30.303  18.016  1.00  0.00     0.005 C 
ENDBRANCH  25  26
ENDBRANCH  16  25
ENDBRANCH   1  11
BRANCH   7  28
HETATM   28  N3  UNL     1      21.099  35.369  11.366  1.00  0.00    -0.384 N 
ATOM     29  H32 UNL     1      20.471  34.722  10.891  1.00  0.00     0.157 HD
ATOM     30  H31 UNL     1      21.007  36.372  11.205  1.00  0.00     0.157 HD
ENDBRANCH   7  28
BRANCH   4  31
HETATM   31  S1  UNL     1      25.135  36.576  14.011  1.00  0.00    -0.094 SA
BRANCH  31  32
HETATM   32  C18 UNL     1      26.562  36.618  12.942  1.00  0.00     0.082 C 
BRANCH  32  33
HETATM   33  C19 UNL     1      26.648  35.502  11.948  1.00  0.00     0.013 C 
BRANCH  33  34
HETATM   34  C20 UNL     1      26.077  35.935  10.587  1.00  0.00     0.027 C 
BRANCH  34  35
HETATM   35  C21 UNL     1      25.238  34.800  10.038  1.00  0.00     0.164 C 
BRANCH  35  36
HETATM   36  O1  UNL     1      23.984  35.310   9.657  1.00  0.00    -0.401 OA
ATOM     37  H1  UNL     1      23.306  34.811  10.098  1.00  0.00     0.209 HD
ENDBRANCH  35  36
ENDBRANCH  34  35
ENDBRANCH  33  34
ENDBRANCH  32  33
ENDBRANCH  31  32
ENDBRANCH   4  31
TORSDOF 14
ENDMDL
MODEL 5
REMARK VINA RESULT: -6.966219197      1.287      1.891
REMARK  14 active torsions:
REMARK  status: ('A' for Active; 'I' for Inactive)
REMARK    1  A    between atoms: C2_2  and  C3_3 
REMARK    2  A    between atoms: C3_3  and  C4_4 
REMARK    3  A    between atoms: C8_8  and  C9_9 
REMARK    4  A    between atoms: C9_9  and  C10_10 
REMARK    5  A    between atoms: C10_10  and  C11_11 
REMARK    6  A    between atoms: C11_11  and  C13_13 
REMARK    7  A    between atoms: C15_15  and  C16_16 
REMARK    8  A    between atoms: C17_19  and  S1_20 
REMARK    9  A    between atoms: S1_20  and  C18_21 
REMARK   10  A    between atoms: C18_21  and  C19_22 
REMARK   11  A    between atoms: C19_22  and  C20_23 
REMARK   12  A    between atoms: C20_23  and  C21_24 
REMARK   13  A    between atoms: C21_24  and  O1_25 
REMARK   14  A    between atoms: C22_29  and  N3_30 
ROOT
HETATM    1  C16 UNL     1      23.070  30.944  13.755  1.00  0.00     0.086 A 
HETATM    2  N1  UNL     1      23.806  31.929  13.247  1.00  0.00    -0.334 N 
ATOM      3  H1  UNL     1      24.727  32.055  13.667  1.00  0.00     0.168 HD
HETATM    4  C17 UNL     1      23.503  32.760  12.275  1.00  0.00     0.146 A 
HETATM    5  N2  UNL     1      22.298  32.617  11.702  1.00  0.00    -0.322 N 
ATOM      6  H2  UNL     1      22.024  33.241  10.943  1.00  0.00     0.169 HD
HETATM    7  C22 UNL     1      21.459  31.674  12.110  1.00  0.00     0.124 A 
HETATM    8  C23 UNL     1      21.837  30.812  13.156  1.00  0.00     0.117 A 
HETATM    9  C24 UNL     1      20.853  29.835  13.504  1.00  0.00     0.105 C 
HETATM   10  N4  UNL     1      20.026  29.056  13.751  1.00  0.00    -0.191 NA
ENDROOT
BRANCH   1  11
HETATM   11  C15 UNL     1      23.444  30.044  14.839  1.00  0.00     0.072 A 
HETATM   12  C8  UNL     1      24.604  29.320  14.877  1.00  0.00    -0.001 A 
HETATM   13  C6  UNL     1      24.910  28.586  16.062  1.00  0.00    -0.048 A 
HETATM   14  C5  UNL     1      24.050  28.621  17.102  1.00  0.00     0.032 A 
HETATM   15  C7  UNL     1      26.189  27.787  16.129  1.00  0.00     0.049 C 
HETATM   16  C4  UNL     1      22.882  29.348  17.047  1.00  0.00     0.010 A 
HETATM   17  N5  UNL     1      22.624  30.020  15.943  1.00  0.00    -0.357 N 
ATOM     18  H5  UNL     1      21.759  30.558  15.904  1.00  0.00     0.166 HD
BRANCH  12  19
HETATM   19  C9  UNL     1      25.598  29.188  13.873  1.00  0.00     0.011 C 
BRANCH  19  20
HETATM   20  C10 UNL     1      26.593  29.860  13.425  1.00  0.00    -0.022 C 
BRANCH  20  21
HETATM   21  C11 UNL     1      27.226  30.999  14.174  1.00  0.00     0.004 C 
HETATM   22  C12 UNL     1      27.549  32.142  13.250  1.00  0.00     0.014 C 
BRANCH  21  23
HETATM   23  C13 UNL     1      28.474  30.590  14.903  1.00  0.00     0.003 C 
HETATM   24  C14 UNL     1      28.203  30.849  16.387  1.00  0.00     0.006 C 
ENDBRANCH  21  23
ENDBRANCH  20  21
ENDBRANCH  19  20
ENDBRANCH  12  19
BRANCH  16  25
HETATM   25  C3  UNL     1      21.934  29.369  18.206  1.00  0.00     0.056 C 
BRANCH  25  26
HETATM   26  C2  UNL     1      20.674  30.100  17.883  1.00  0.00     0.002 C 
HETATM   27  C1  UNL     1      19.618  29.057  17.545  1.00  0.00     0.005 C 
ENDBRANCH  25  26
ENDBRANCH  16  25
ENDBRANCH   1  11
BRANCH   7  28
HETATM   28  N3  UNL     1      20.316  31.572  11.537  1.00  0.00    -0.384 N 
ATOM     29  H32 UNL     1      19.493  31.246  12.043  1.00  0.00     0.157 HD
ATOM     30  H31 UNL     1      20.236  31.825  10.552  1.00  0.00     0.157 HD
ENDBRANCH   7  28
BRANCH   4  31
HETATM   31  S1  UNL     1      24.627  34.044  11.735  1.00  0.00    -0.094 SA
BRANCH  31  32
HETATM   32  C18 UNL     1      23.988  35.674  12.077  1.00  0.00     0.082 C 
BRANCH  32  33
HETATM   33  C19 UNL     1      22.792  36.073  11.268  1.00  0.00     0.013 C 
BRANCH  33  34
HETATM   34  C20 UNL     1      21.701  36.680  12.165  1.00  0.00     0.027 C 
BRANCH  34  35
HETATM   35  C21 UNL     1      20.690  35.599  12.485  1.00  0.00     0.164 C 
BRANCH  35  36
HETATM   36  O1  UNL     1      20.495  34.812  11.336  1.00  0.00    -0.401 OA
ATOM     37  H1  UNL     1      20.564  35.370  10.571  1.00  0.00     0.209 HD
ENDBRANCH  35  36
ENDBRANCH  34  35
ENDBRANCH  33  34
ENDBRANCH  32  33
ENDBRANCH  31  32
ENDBRANCH   4  31
TORSDOF 14
ENDMDL
