MODEL 1
REMARK VINA RESULT: -9.085275834      0.000      0.000
REMARK  8 active torsions:
REMARK  status: ('A' for Active; 'I' for Inactive)
REMARK    1  A    between atoms: C5_9  and  N4_10 
REMARK       I    between atoms: N4_10  and  C6_12 
REMARK    2  A    between atoms: C6_12  and  C7_14 
REMARK    3  A    between atoms: C7_14  and  S1_15 
REMARK    4  A    between atoms: S1_15  and  C8_16 
REMARK    5  A    between atoms: C11_23  and  N7_24 
REMARK    6  A    between atoms: C12_29  and  N9_30 
REMARK    7  A    between atoms: N9_30  and  N10_32 
REMARK    8  A    between atoms: C13_34  and  C15_37 
ROOT
HETATM    1  N10 UNL     1     147.966  60.642 135.795  1.00  0.00    -0.272 N 
ATOM      2  H10 UNL     1     148.401  60.150 135.014  1.00  0.00     0.188 HD
HETATM    3  C13 UNL     1     147.898  60.050 136.925  1.00  0.00     0.194 C 
HETATM    4  C14 UNL     1     147.323  60.594 138.116  1.00  0.00     0.124 C 
HETATM    5  N11 UNL     1     146.874  61.044 139.090  1.00  0.00    -0.190 NA
ENDROOT
BRANCH   3   6
HETATM    6  C15 UNL     1     148.439  58.690 137.030  1.00  0.00     0.293 C 
HETATM    7  N12 UNL     1     149.814  58.451 136.792  1.00  0.00    -0.055 NA
HETATM    8  O2  UNL     1     147.719  57.695 137.329  1.00  0.00    -0.269 OA
ENDBRANCH   3   6
BRANCH   1   9
HETATM    9  N9  UNL     1     147.487  61.893 135.585  1.00  0.00    -0.131 N 
ATOM     10  H9  UNL     1     147.909  62.602 136.185  1.00  0.00     0.205 HD
BRANCH   9  11
HETATM   11  C12 UNL     1     146.613  62.351 134.786  1.00  0.00     0.699 A 
HETATM   12  N8  UNL     1     146.456  63.652 134.503  1.00  0.00    -0.173 N 
HETATM   13  C11 UNL     1     145.491  64.095 133.638  1.00  0.00     0.144 A 
ATOM     14  H8  UNL     1     147.074  64.333 134.944  1.00  0.00     0.186 HD
HETATM   15  C10 UNL     1     144.656  63.177 133.039  1.00  0.00     0.108 A 
HETATM   16  N6  UNL     1     143.676  63.568 132.170  1.00  0.00    -0.347 N 
HETATM   17  C16 UNL     1     144.806  61.849 133.318  1.00  0.00     0.113 A 
HETATM   18  C9  UNL     1     142.877  62.646 131.603  1.00  0.00     0.182 A 
ATOM     19  H6  UNL     1     143.552  64.556 131.951  1.00  0.00     0.167 HD
HETATM   20  N5  UNL     1     143.013  61.338 131.871  1.00  0.00    -0.345 N 
HETATM   21  C8  UNL     1     143.966  60.910 132.722  1.00  0.00     0.101 A 
ATOM     22  H5  UNL     1     142.391  60.664 131.426  1.00  0.00     0.167 HD
HETATM   23  N13 UNL     1     145.772  61.459 134.179  1.00  0.00    -0.185 N 
ATOM     24  H13 UNL     1     145.877  60.465 134.384  1.00  0.00     0.184 HD
BRANCH  13  25
HETATM   25  N7  UNL     1     145.349  65.326 133.379  1.00  0.00    -0.383 N 
ATOM     26  H72 UNL     1     145.239  65.660 132.421  1.00  0.00     0.157 HD
ATOM     27  H71 UNL     1     145.345  66.001 134.144  1.00  0.00     0.157 HD
ENDBRANCH  13  25
BRANCH  21  28
HETATM   28  S1  UNL     1     144.252  59.228 133.153  1.00  0.00    -0.101 SA
BRANCH  28  29
HETATM   29  C7  UNL     1     143.299  58.017 132.279  1.00  0.00     0.184 C 
BRANCH  29  30
HETATM   30  C6  UNL     1     143.992  57.337 131.160  1.00  0.00     0.232 C 
HETATM   31  N4  UNL     1     144.138  57.903 129.878  1.00  0.00    -0.322 N 
ATOM     32  H4  UNL     1     143.742  58.831 129.729  1.00  0.00     0.169 HD
HETATM   33  O1  UNL     1     144.468  56.198 131.375  1.00  0.00    -0.272 OA
BRANCH  31  34
HETATM   34  C5  UNL     1     144.785  57.295 128.784  1.00  0.00     0.101 A 
HETATM   35  C2  UNL     1     146.090  57.415 128.346  1.00  0.00     0.052 A 
HETATM   36  C1  UNL     1     147.136  58.256 128.956  1.00  0.00     0.072 C 
HETATM   37  N1  UNL     1     146.235  56.624 127.259  1.00  0.00    -0.300 N 
HETATM   38  N2  UNL     1     145.126  56.016 126.978  1.00  0.00    -0.281 N 
ATOM     39  H1  UNL     1     147.101  56.520 126.730  1.00  0.00     0.187 HD
HETATM   40  C3  UNL     1     144.861  55.074 125.883  1.00  0.00     0.179 C 
HETATM   41  C4  UNL     1     144.194  56.397 127.894  1.00  0.00     0.161 A 
HETATM   42  N3  UNL     1     142.846  55.962 127.959  1.00  0.00    -0.079 NA
ENDBRANCH  31  34
ENDBRANCH  29  30
ENDBRANCH  28  29
ENDBRANCH  21  28
ENDBRANCH   9  11
ENDBRANCH   1   9
TORSDOF 8
ENDMDL
MODEL 2
REMARK VINA RESULT: -8.699402191      0.842      1.032
REMARK  8 active torsions:
REMARK  status: ('A' for Active; 'I' for Inactive)
REMARK    1  A    between atoms: C5_9  and  N4_10 
REMARK       I    between atoms: N4_10  and  C6_12 
REMARK    2  A    between atoms: C6_12  and  C7_14 
REMARK    3  A    between atoms: C7_14  and  S1_15 
REMARK    4  A    between atoms: S1_15  and  C8_16 
REMARK    5  A    between atoms: C11_23  and  N7_24 
REMARK    6  A    between atoms: C12_29  and  N9_30 
REMARK    7  A    between atoms: N9_30  and  N10_32 
REMARK    8  A    between atoms: C13_34  and  C15_37 
ROOT
HETATM    1  N10 UNL     1     146.793  60.921 136.338  1.00  0.00    -0.272 N 
ATOM      2  H10 UNL     1     145.954  60.341 136.384  1.00  0.00     0.188 HD
HETATM    3  C13 UNL     1     147.871  60.474 136.858  1.00  0.00     0.194 C 
HETATM    4  C14 UNL     1     149.128  61.155 136.880  1.00  0.00     0.124 C 
HETATM    5  N11 UNL     1     150.156  61.700 136.880  1.00  0.00    -0.190 NA
ENDROOT
BRANCH   3   6
HETATM    6  C15 UNL     1     147.836  59.157 137.504  1.00  0.00     0.293 C 
HETATM    7  N12 UNL     1     149.011  58.369 137.574  1.00  0.00    -0.055 NA
HETATM    8  O2  UNL     1     146.783  58.678 138.013  1.00  0.00    -0.269 OA
ENDBRANCH   3   6
BRANCH   1   9
HETATM    9  N9  UNL     1     146.711  62.129 135.728  1.00  0.00    -0.131 N 
ATOM     10  H9  UNL     1     147.429  62.790 136.024  1.00  0.00     0.205 HD
BRANCH   9  11
HETATM   11  C12 UNL     1     145.911  62.596 134.859  1.00  0.00     0.699 A 
HETATM   12  N8  UNL     1     145.761  63.902 134.595  1.00  0.00    -0.173 N 
HETATM   13  C11 UNL     1     144.877  64.354 133.652  1.00  0.00     0.144 A 
ATOM     14  H8  UNL     1     146.321  64.579 135.112  1.00  0.00     0.186 HD
HETATM   15  C10 UNL     1     144.119  63.441 132.952  1.00  0.00     0.108 A 
HETATM   16  N6  UNL     1     143.221  63.840 132.001  1.00  0.00    -0.347 N 
HETATM   17  C16 UNL     1     144.263  62.108 133.210  1.00  0.00     0.113 A 
HETATM   18  C9  UNL     1     142.496  62.923 131.337  1.00  0.00     0.182 A 
ATOM     19  H6  UNL     1     143.102  64.833 131.797  1.00  0.00     0.167 HD
HETATM   20  N5  UNL     1     142.627  61.611 131.583  1.00  0.00    -0.345 N 
HETATM   21  C8  UNL     1     143.501  61.173 132.512  1.00  0.00     0.101 A 
ATOM     22  H5  UNL     1     142.062  60.940 131.063  1.00  0.00     0.167 HD
HETATM   23  N13 UNL     1     145.148  61.709 134.151  1.00  0.00    -0.185 N 
ATOM     24  H13 UNL     1     145.249  60.711 134.340  1.00  0.00     0.184 HD
BRANCH  13  25
HETATM   25  N7  UNL     1     144.739  65.590 133.411  1.00  0.00    -0.383 N 
ATOM     26  H72 UNL     1     144.117  66.176 133.968  1.00  0.00     0.157 HD
ATOM     27  H71 UNL     1     145.261  66.010 132.642  1.00  0.00     0.157 HD
ENDBRANCH  13  25
BRANCH  21  28
HETATM   28  S1  UNL     1     143.771  59.485 132.926  1.00  0.00    -0.101 SA
BRANCH  28  29
HETATM   29  C7  UNL     1     142.870  58.286 131.982  1.00  0.00     0.184 C 
BRANCH  29  30
HETATM   30  C6  UNL     1     143.652  57.553 130.958  1.00  0.00     0.232 C 
HETATM   31  N4  UNL     1     143.880  58.044 129.656  1.00  0.00    -0.322 N 
ATOM     32  H4  UNL     1     143.482  58.954 129.423  1.00  0.00     0.169 HD
HETATM   33  O1  UNL     1     144.129  56.439 131.275  1.00  0.00    -0.272 OA
BRANCH  31  34
HETATM   34  C5  UNL     1     144.613  57.383 128.651  1.00  0.00     0.101 A 
HETATM   35  C2  UNL     1     145.954  57.469 128.328  1.00  0.00     0.052 A 
HETATM   36  C1  UNL     1     146.954  58.321 128.996  1.00  0.00     0.072 C 
HETATM   37  N1  UNL     1     146.183  56.632 127.290  1.00  0.00    -0.300 N 
HETATM   38  N2  UNL     1     145.094  56.028 126.934  1.00  0.00    -0.281 N 
ATOM     39  H1  UNL     1     147.092  56.496 126.847  1.00  0.00     0.187 HD
HETATM   40  C3  UNL     1     144.913  55.045 125.858  1.00  0.00     0.179 C 
HETATM   41  C4  UNL     1     144.090  56.458 127.747  1.00  0.00     0.161 A 
HETATM   42  N3  UNL     1     142.734  56.043 127.706  1.00  0.00    -0.079 NA
ENDBRANCH  31  34
ENDBRANCH  29  30
ENDBRANCH  28  29
ENDBRANCH  21  28
ENDBRANCH   9  11
ENDBRANCH   1   9
TORSDOF 8
ENDMDL
MODEL 3
REMARK VINA RESULT: -8.631766272      1.476      1.973
REMARK  8 active torsions:
REMARK  status: ('A' for Active; 'I' for Inactive)
REMARK    1  A    between atoms: C5_9  and  N4_10 
REMARK       I    between atoms: N4_10  and  C6_12 
REMARK    2  A    between atoms: C6_12  and  C7_14 
REMARK    3  A    between atoms: C7_14  and  S1_15 
REMARK    4  A    between atoms: S1_15  and  C8_16 
REMARK    5  A    between atoms: C11_23  and  N7_24 
REMARK    6  A    between atoms: C12_29  and  N9_30 
REMARK    7  A    between atoms: N9_30  and  N10_32 
REMARK    8  A    between atoms: C13_34  and  C15_37 
ROOT
HETATM    1  N10 UNL     1     146.757  60.863 136.216  1.00  0.00    -0.272 N 
ATOM      2  H10 UNL     1     145.927  60.269 136.230  1.00  0.00     0.188 HD
HETATM    3  C13 UNL     1     147.834  60.417 136.738  1.00  0.00     0.194 C 
HETATM    4  C14 UNL     1     149.079  61.117 136.801  1.00  0.00     0.124 C 
HETATM    5  N11 UNL     1     150.098  61.677 136.835  1.00  0.00    -0.190 NA
ENDROOT
BRANCH   3   6
HETATM    6  C15 UNL     1     147.811  59.080 137.341  1.00  0.00     0.293 C 
HETATM    7  N12 UNL     1     149.025  58.416 137.646  1.00  0.00    -0.055 NA
HETATM    8  O2  UNL     1     146.735  58.474 137.609  1.00  0.00    -0.269 OA
ENDBRANCH   3   6
BRANCH   1   9
HETATM    9  N9  UNL     1     146.664  62.089 135.643  1.00  0.00    -0.131 N 
ATOM     10  H9  UNL     1     147.354  62.757 135.986  1.00  0.00     0.205 HD
BRANCH   9  11
HETATM   11  C12 UNL     1     145.883  62.564 134.761  1.00  0.00     0.699 A 
HETATM   12  N8  UNL     1     145.878  63.846 134.370  1.00  0.00    -0.173 N 
HETATM   13  C11 UNL     1     145.008  64.310 133.419  1.00  0.00     0.144 A 
ATOM     14  H8  UNL     1     146.542  64.496 134.791  1.00  0.00     0.186 HD
HETATM   15  C10 UNL     1     144.111  63.435 132.847  1.00  0.00     0.108 A 
HETATM   16  N6  UNL     1     143.221  63.848 131.895  1.00  0.00    -0.347 N 
HETATM   17  C16 UNL     1     144.107  62.126 133.237  1.00  0.00     0.113 A 
HETATM   18  C9  UNL     1     142.358  62.968 131.358  1.00  0.00     0.182 A 
ATOM     19  H6  UNL     1     143.212  64.822 131.593  1.00  0.00     0.167 HD
HETATM   20  N5  UNL     1     142.343  61.680 131.733  1.00  0.00    -0.345 N 
HETATM   21  C8  UNL     1     143.203  61.230 132.668  1.00  0.00     0.101 A 
ATOM     22  H5  UNL     1     141.676  61.036 131.308  1.00  0.00     0.167 HD
HETATM   23  N13 UNL     1     144.984  61.714 134.179  1.00  0.00    -0.185 N 
ATOM     24  H13 UNL     1     144.974  60.735 134.466  1.00  0.00     0.184 HD
BRANCH  13  25
HETATM   25  N7  UNL     1     145.008  65.524 133.057  1.00  0.00    -0.383 N 
ATOM     26  H72 UNL     1     145.369  65.808 132.146  1.00  0.00     0.157 HD
ATOM     27  H71 UNL     1     144.641  66.235 133.690  1.00  0.00     0.157 HD
ENDBRANCH  13  25
BRANCH  21  28
HETATM   28  S1  UNL     1     143.290  59.570 133.245  1.00  0.00    -0.101 SA
BRANCH  28  29
HETATM   29  C7  UNL     1     141.945  58.507 132.795  1.00  0.00     0.184 C 
BRANCH  29  30
HETATM   30  C6  UNL     1     142.150  57.690 131.576  1.00  0.00     0.232 C 
HETATM   31  N4  UNL     1     143.048  58.041 130.547  1.00  0.00    -0.322 N 
ATOM     32  H4  UNL     1     143.579  58.903 130.665  1.00  0.00     0.169 HD
HETATM   33  O1  UNL     1     141.483  56.636 131.462  1.00  0.00    -0.272 OA
BRANCH  31  34
HETATM   34  C5  UNL     1     143.273  57.298 129.372  1.00  0.00     0.101 A 
HETATM   35  C2  UNL     1     142.605  57.326 128.163  1.00  0.00     0.052 A 
HETATM   36  C1  UNL     1     141.449  58.177 127.830  1.00  0.00     0.072 C 
HETATM   37  N1  UNL     1     143.202  56.433 127.340  1.00  0.00    -0.300 N 
HETATM   38  N2  UNL     1     144.192  55.846 127.936  1.00  0.00    -0.281 N 
ATOM     39  H1  UNL     1     142.912  56.247 126.380  1.00  0.00     0.187 HD
HETATM   40  C3  UNL     1     145.093  54.819 127.397  1.00  0.00     0.179 C 
HETATM   41  C4  UNL     1     144.280  56.347 129.199  1.00  0.00     0.161 A 
HETATM   42  N3  UNL     1     145.230  55.984 130.187  1.00  0.00    -0.079 NA
ENDBRANCH  31  34
ENDBRANCH  29  30
ENDBRANCH  28  29
ENDBRANCH  21  28
ENDBRANCH   9  11
ENDBRANCH   1   9
TORSDOF 8
ENDMDL
MODEL 4
REMARK VINA RESULT: -8.615393586      1.974      2.943
REMARK  8 active torsions:
REMARK  status: ('A' for Active; 'I' for Inactive)
REMARK    1  A    between atoms: C5_9  and  N4_10 
REMARK       I    between atoms: N4_10  and  C6_12 
REMARK    2  A    between atoms: C6_12  and  C7_14 
REMARK    3  A    between atoms: C7_14  and  S1_15 
REMARK    4  A    between atoms: S1_15  and  C8_16 
REMARK    5  A    between atoms: C11_23  and  N7_24 
REMARK    6  A    between atoms: C12_29  and  N9_30 
REMARK    7  A    between atoms: N9_30  and  N10_32 
REMARK    8  A    between atoms: C13_34  and  C15_37 
ROOT
HETATM    1  N10 UNL     1     145.672  59.842 135.211  1.00  0.00    -0.272 N 
ATOM      2  H10 UNL     1     145.362  58.909 135.481  1.00  0.00     0.188 HD
HETATM    3  C13 UNL     1     146.317  60.540 136.064  1.00  0.00     0.194 C 
HETATM    4  C14 UNL     1     146.822  61.861 135.849  1.00  0.00     0.124 C 
HETATM    5  N11 UNL     1     147.250  62.927 135.666  1.00  0.00    -0.190 NA
ENDROOT
BRANCH   3   6
HETATM    6  C15 UNL     1     146.562  59.962 137.391  1.00  0.00     0.293 C 
HETATM    7  N12 UNL     1     146.879  60.804 138.485  1.00  0.00    -0.055 NA
HETATM    8  O2  UNL     1     146.505  58.719 137.611  1.00  0.00    -0.269 OA
ENDBRANCH   3   6
BRANCH   1   9
HETATM    9  N9  UNL     1     145.381  60.284 133.962  1.00  0.00    -0.131 N 
ATOM     10  H9  UNL     1     146.178  60.278 133.326  1.00  0.00     0.205 HD
BRANCH   9  11
HETATM   11  C12 UNL     1     144.306  60.706 133.433  1.00  0.00     0.699 A 
HETATM   12  N8  UNL     1     144.074  61.986 133.111  1.00  0.00    -0.173 N 
HETATM   13  C11 UNL     1     142.892  62.390 132.550  1.00  0.00     0.144 A 
ATOM     14  H8  UNL     1     144.799  62.681 133.290  1.00  0.00     0.186 HD
HETATM   15  C10 UNL     1     141.912  61.453 132.305  1.00  0.00     0.108 A 
HETATM   16  N6  UNL     1     140.714  61.805 131.748  1.00  0.00    -0.347 N 
HETATM   17  C16 UNL     1     142.136  60.146 132.628  1.00  0.00     0.113 A 
HETATM   18  C9  UNL     1     139.778  60.866 131.524  1.00  0.00     0.182 A 
ATOM     19  H6  UNL     1     140.532  62.778 131.501  1.00  0.00     0.167 HD
HETATM   20  N5  UNL     1     139.986  59.578 131.838  1.00  0.00    -0.345 N 
HETATM   21  C8  UNL     1     141.152  59.188 132.389  1.00  0.00     0.101 A 
ATOM     22  H5  UNL     1     139.256  58.889 131.657  1.00  0.00     0.167 HD
HETATM   23  N13 UNL     1     143.318  59.794 133.182  1.00  0.00    -0.185 N 
ATOM     24  H13 UNL     1     143.478  58.815 133.421  1.00  0.00     0.184 HD
BRANCH  13  25
HETATM   25  N7  UNL     1     142.681  63.603 132.251  1.00  0.00    -0.383 N 
ATOM     26  H72 UNL     1     142.931  64.360 132.887  1.00  0.00     0.157 HD
ATOM     27  H71 UNL     1     142.249  63.829 131.354  1.00  0.00     0.157 HD
ENDBRANCH  13  25
BRANCH  21  28
HETATM   28  S1  UNL     1     141.551  57.535 132.842  1.00  0.00    -0.101 SA
BRANCH  28  29
HETATM   29  C7  UNL     1     142.219  56.506 131.564  1.00  0.00     0.184 C 
BRANCH  29  30
HETATM   30  C6  UNL     1     143.427  57.029 130.882  1.00  0.00     0.232 C 
HETATM   31  N4  UNL     1     143.694  56.830 129.512  1.00  0.00    -0.322 N 
ATOM     32  H4  UNL     1     143.009  56.299 128.975  1.00  0.00     0.169 HD
HETATM   33  O1  UNL     1     144.249  57.678 131.569  1.00  0.00    -0.272 OA
BRANCH  31  34
HETATM   34  C5  UNL     1     144.827  57.305 128.823  1.00  0.00     0.101 A 
HETATM   35  C2  UNL     1     144.942  58.331 127.906  1.00  0.00     0.052 A 
HETATM   36  C1  UNL     1     143.846  59.187 127.419  1.00  0.00     0.072 C 
HETATM   37  N1  UNL     1     146.241  58.408 127.533  1.00  0.00    -0.300 N 
HETATM   38  N2  UNL     1     146.951  57.512 128.143  1.00  0.00    -0.281 N 
ATOM     39  H1  UNL     1     146.611  59.081 126.862  1.00  0.00     0.187 HD
HETATM   40  C3  UNL     1     148.393  57.263 128.022  1.00  0.00     0.179 C 
HETATM   41  C4  UNL     1     146.122  56.801 128.957  1.00  0.00     0.161 A 
HETATM   42  N3  UNL     1     146.490  55.730 129.810  1.00  0.00    -0.079 NA
ENDBRANCH  31  34
ENDBRANCH  29  30
ENDBRANCH  28  29
ENDBRANCH  21  28
ENDBRANCH   9  11
ENDBRANCH   1   9
TORSDOF 8
ENDMDL
MODEL 5
REMARK VINA RESULT: -8.573438960      1.728      3.154
REMARK  8 active torsions:
REMARK  status: ('A' for Active; 'I' for Inactive)
REMARK    1  A    between atoms: C5_9  and  N4_10 
REMARK       I    between atoms: N4_10  and  C6_12 
REMARK    2  A    between atoms: C6_12  and  C7_14 
REMARK    3  A    between atoms: C7_14  and  S1_15 
REMARK    4  A    between atoms: S1_15  and  C8_16 
REMARK    5  A    between atoms: C11_23  and  N7_24 
REMARK    6  A    between atoms: C12_29  and  N9_30 
REMARK    7  A    between atoms: N9_30  and  N10_32 
REMARK    8  A    between atoms: C13_34  and  C15_37 
ROOT
HETATM    1  N10 UNL     1     146.290  60.576 134.265  1.00  0.00    -0.272 N 
ATOM      2  H10 UNL     1     146.356  59.604 134.567  1.00  0.00     0.188 HD
HETATM    3  C13 UNL     1     146.736  61.487 135.041  1.00  0.00     0.194 C 
HETATM    4  C14 UNL     1     146.720  62.891 134.772  1.00  0.00     0.124 C 
HETATM    5  N11 UNL     1     146.726  64.032 134.545  1.00  0.00    -0.190 NA
ENDROOT
BRANCH   3   6
HETATM    6  C15 UNL     1     147.308  61.081 136.330  1.00  0.00     0.293 C 
HETATM    7  N12 UNL     1     148.452  61.744 136.841  1.00  0.00    -0.055 NA
HETATM    8  O2  UNL     1     146.821  60.146 137.026  1.00  0.00    -0.269 OA
ENDBRANCH   3   6
BRANCH   1   9
HETATM    9  N9  UNL     1     145.730  60.841 133.058  1.00  0.00    -0.131 N 
ATOM     10  H9  UNL     1     146.378  60.752 132.275  1.00  0.00     0.205 HD
BRANCH   9  11
HETATM   11  C12 UNL     1     144.555  61.180 132.716  1.00  0.00     0.699 A 
HETATM   12  N8  UNL     1     144.200  62.424 132.364  1.00  0.00    -0.173 N 
HETATM   13  C11 UNL     1     142.915  62.739 132.011  1.00  0.00     0.144 A 
ATOM     14  H8  UNL     1     144.908  63.158 132.358  1.00  0.00     0.186 HD
HETATM   15  C10 UNL     1     141.957  61.748 132.016  1.00  0.00     0.108 A 
HETATM   16  N6  UNL     1     140.660  62.011 131.673  1.00  0.00    -0.347 N 
HETATM   17  C16 UNL     1     142.306  60.477 132.372  1.00  0.00     0.113 A 
HETATM   18  C9  UNL     1     139.749  61.021 131.690  1.00  0.00     0.182 A 
ATOM     19  H6  UNL     1     140.384  62.955 131.404  1.00  0.00     0.167 HD
HETATM   20  N5  UNL     1     140.079  59.769 132.040  1.00  0.00    -0.345 N 
HETATM   21  C8  UNL     1     141.346  59.466 132.385  1.00  0.00     0.101 A 
ATOM     22  H5  UNL     1     139.366  59.040 132.044  1.00  0.00     0.167 HD
HETATM   23  N13 UNL     1     143.587  60.214 132.714  1.00  0.00    -0.185 N 
ATOM     24  H13 UNL     1     143.840  59.262 132.980  1.00  0.00     0.184 HD
BRANCH  13  25
HETATM   25  N7  UNL     1     142.589  63.917 131.681  1.00  0.00    -0.383 N 
ATOM     26  H72 UNL     1     141.636  64.147 131.397  1.00  0.00     0.157 HD
ATOM     27  H71 UNL     1     143.294  64.655 131.699  1.00  0.00     0.157 HD
ENDBRANCH  13  25
BRANCH  21  28
HETATM   28  S1  UNL     1     141.909  57.868 132.858  1.00  0.00    -0.101 SA
BRANCH  28  29
HETATM   29  C7  UNL     1     142.142  56.694 131.551  1.00  0.00     0.184 C 
BRANCH  29  30
HETATM   30  C6  UNL     1     143.503  56.645 130.964  1.00  0.00     0.232 C 
HETATM   31  N4  UNL     1     143.796  57.054 129.647  1.00  0.00    -0.322 N 
ATOM     32  H4  UNL     1     143.022  57.400 129.082  1.00  0.00     0.169 HD
HETATM   33  O1  UNL     1     144.432  56.215 131.685  1.00  0.00    -0.272 OA
BRANCH  31  34
HETATM   34  C5  UNL     1     145.070  57.023 129.048  1.00  0.00     0.101 A 
HETATM   35  C2  UNL     1     145.593  56.144 128.118  1.00  0.00     0.052 A 
HETATM   36  C1  UNL     1     144.895  54.987 127.530  1.00  0.00     0.072 C 
HETATM   37  N1  UNL     1     146.858  56.536 127.844  1.00  0.00    -0.300 N 
HETATM   38  N2  UNL     1     147.173  57.591 128.528  1.00  0.00    -0.281 N 
ATOM     39  H1  UNL     1     147.481  56.065 127.188  1.00  0.00     0.187 HD
HETATM   40  C3  UNL     1     148.443  58.328 128.522  1.00  0.00     0.179 C 
HETATM   41  C4  UNL     1     146.099  57.934 129.291  1.00  0.00     0.161 A 
HETATM   42  N3  UNL     1     146.013  59.033 130.183  1.00  0.00    -0.079 NA
ENDBRANCH  31  34
ENDBRANCH  29  30
ENDBRANCH  28  29
ENDBRANCH  21  28
ENDBRANCH   9  11
ENDBRANCH   1   9
TORSDOF 8
ENDMDL
