MODEL 1
REMARK VINA RESULT: -8.457985027      0.000      0.000
REMARK  7 active torsions:
REMARK  status: ('A' for Active; 'I' for Inactive)
REMARK    1  A    between atoms: C3_5  and  C4_6 
REMARK    2  A    between atoms: C5_9  and  N3_10 
REMARK    3  A    between atoms: C8_15  and  N5_16 
REMARK    4  A    between atoms: C9_22  and  N8_23 
REMARK    5  A    between atoms: C11_25  and  C12_26 
REMARK    6  A    between atoms: C12_26  and  N9_27 
REMARK    7  A    between atoms: C18_40  and  N13_41 
ROOT
HETATM    1  C1  UNL     1     140.210  64.434 129.633  1.00  0.00     0.072 C 
HETATM    2  C2  UNL     1     141.223  63.586 130.334  1.00  0.00     0.052 A 
HETATM    3  N1  UNL     1     141.290  62.285 130.344  1.00  0.00    -0.339 N 
ATOM      4  H1  UNL     1     140.638  61.667 129.862  1.00  0.00     0.167 HD
HETATM    5  C3  UNL     1     142.397  61.848 131.118  1.00  0.00     0.161 A 
HETATM    6  N7  UNL     1     142.981  62.934 131.577  1.00  0.00    -0.262 N 
HETATM    7  C9  UNL     1     144.009  63.168 132.379  1.00  0.00     0.141 A 
HETATM    8  C17 UNL     1     144.362  64.503 132.703  1.00  0.00     0.099 A 
HETATM    9  C18 UNL     1     143.662  65.533 132.214  1.00  0.00     0.103 A 
HETATM   10  N14 UNL     1     142.627  65.289 131.419  1.00  0.00    -0.327 N 
ATOM     11  H14 UNL     1     142.089  66.071 131.046  1.00  0.00     0.169 HD
HETATM   12  C19 UNL     1     142.274  64.042 131.100  1.00  0.00     0.139 A 
ENDROOT
BRANCH   7  13
HETATM   13  N8  UNL     1     144.714  62.206 133.117  1.00  0.00    -0.234 N 
HETATM   14  C10 UNL     1     144.959  62.331 134.443  1.00  0.00     0.148 A 
HETATM   15  C11 UNL     1     145.821  61.332 134.834  1.00  0.00     0.073 A 
HETATM   16  N11 UNL     1     146.062  60.635 133.715  1.00  0.00    -0.287 N 
HETATM   17  N12 UNL     1     145.396  61.169 132.707  1.00  0.00    -0.235 N 
ATOM     18  H11 UNL     1     146.669  59.817 133.652  1.00  0.00     0.188 HD
ATOM     19  H12 UNL     1     145.411  60.822 131.748  1.00  0.00     0.209 HD
BRANCH  15  20
HETATM   20  C12 UNL     1     146.329  61.134 136.197  1.00  0.00     0.332 C 
BRANCH  20  21
HETATM   21  N9  UNL     1     147.097  59.921 136.343  1.00  0.00     0.097 N 
HETATM   22  C13 UNL     1     148.476  60.231 136.672  1.00  0.00     0.300 C 
HETATM   23  C14 UNL     1     149.228  58.978 137.079  1.00  0.00     0.262 C 
HETATM   24  N10 UNL     1     148.574  58.330 138.201  1.00  0.00    -0.072 N 
HETATM   25  C15 UNL     1     147.255  57.924 137.757  1.00  0.00     0.262 C 
ATOM     26 2H10 UNL     1     149.118  57.559 138.589  1.00  0.00     0.277 HD
ATOM     27 1H10 UNL     1     148.552  58.910 139.039  1.00  0.00     0.277 HD
HETATM   28  C16 UNL     1     146.469  59.172 137.446  1.00  0.00     0.300 C 
ENDBRANCH  20  21
ENDBRANCH  15  20
ENDBRANCH   7  13
BRANCH   5  29
HETATM   29  C4  UNL     1     142.621  60.434 131.240  1.00  0.00     0.181 A 
HETATM   30  N2  UNL     1     143.485  59.646 130.679  1.00  0.00    -0.172 N 
HETATM   31  C5  UNL     1     143.711  58.346 130.871  1.00  0.00     0.695 A 
ATOM     32  H2  UNL     1     144.085  60.089 129.983  1.00  0.00     0.186 HD
HETATM   33  N4  UNL     1     142.895  57.769 131.818  1.00  0.00    -0.022 N 
HETATM   34  C8  UNL     1     141.975  58.490 132.454  1.00  0.00     0.692 A 
ATOM     35  H4  UNL     1     142.998  56.778 132.035  1.00  0.00     0.203 HD
HETATM   36  N6  UNL     1     141.828  59.774 132.188  1.00  0.00    -0.172 N 
ATOM     37  H6  UNL     1     141.114  60.303 132.688  1.00  0.00     0.186 HD
BRANCH  31  38
HETATM   38  N3  UNL     1     144.601  57.516 130.155  1.00  0.00    -0.226 N 
HETATM   39  C6  UNL     1     144.260  56.122 129.954  1.00  0.00     0.168 C 
HETATM   40  C7  UNL     1     145.802  58.004 129.561  1.00  0.00     0.168 C 
ENDBRANCH  31  38
BRANCH  34  41
HETATM   41  N5  UNL     1     141.240  57.877 133.339  1.00  0.00    -0.234 N 
ATOM     42  H52 UNL     1     140.839  56.955 133.167  1.00  0.00     0.174 HD
ATOM     43  H51 UNL     1     141.074  58.357 134.224  1.00  0.00     0.174 HD
ENDBRANCH  34  41
ENDBRANCH   5  29
BRANCH   9  44
HETATM   44  N13 UNL     1     143.948  66.756 132.477  1.00  0.00    -0.385 N 
ATOM     45 2H13 UNL     1     144.725  67.187 131.976  1.00  0.00     0.157 HD
ATOM     46 1H13 UNL     1     143.435  67.308 133.164  1.00  0.00     0.157 HD
ENDBRANCH   9  44
TORSDOF 7
ENDMDL
MODEL 2
REMARK VINA RESULT: -8.437957748      2.583      5.605
REMARK  7 active torsions:
REMARK  status: ('A' for Active; 'I' for Inactive)
REMARK    1  A    between atoms: C3_5  and  C4_6 
REMARK    2  A    between atoms: C5_9  and  N3_10 
REMARK    3  A    between atoms: C8_15  and  N5_16 
REMARK    4  A    between atoms: C9_22  and  N8_23 
REMARK    5  A    between atoms: C11_25  and  C12_26 
REMARK    6  A    between atoms: C12_26  and  N9_27 
REMARK    7  A    between atoms: C18_40  and  N13_41 
ROOT
HETATM    1  C1  UNL     1     143.958  66.131 132.614  1.00  0.00     0.072 C 
HETATM    2  C2  UNL     1     143.680  64.686 132.351  1.00  0.00     0.052 A 
HETATM    3  N1  UNL     1     142.675  64.185 131.690  1.00  0.00    -0.339 N 
ATOM      4  H1  UNL     1     141.931  64.734 131.261  1.00  0.00     0.167 HD
HETATM    5  C3  UNL     1     142.760  62.767 131.650  1.00  0.00     0.161 A 
HETATM    6  N7  UNL     1     143.846  62.441 132.317  1.00  0.00    -0.262 N 
HETATM    7  C9  UNL     1     144.418  61.297 132.661  1.00  0.00     0.141 A 
HETATM    8  C17 UNL     1     145.605  61.306 133.436  1.00  0.00     0.099 A 
HETATM    9  C18 UNL     1     146.154  62.459 133.834  1.00  0.00     0.103 A 
HETATM   10  N14 UNL     1     145.568  63.602 133.495  1.00  0.00    -0.327 N 
ATOM     11  H14 UNL     1     145.982  64.484 133.797  1.00  0.00     0.169 HD
HETATM   12  C19 UNL     1     144.450  63.620 132.766  1.00  0.00     0.139 A 
ENDROOT
BRANCH   7  13
HETATM   13  N8  UNL     1     143.869  60.018 132.489  1.00  0.00    -0.234 N 
HETATM   14  C10 UNL     1     144.287  59.162 131.526  1.00  0.00     0.148 A 
HETATM   15  C11 UNL     1     143.439  58.079 131.493  1.00  0.00     0.073 A 
HETATM   16  N11 UNL     1     142.535  58.326 132.449  1.00  0.00    -0.287 N 
HETATM   17  N12 UNL     1     142.807  59.482 133.030  1.00  0.00    -0.235 N 
ATOM     18  H11 UNL     1     141.754  57.716 132.693  1.00  0.00     0.188 HD
ATOM     19  H12 UNL     1     142.266  59.895 133.790  1.00  0.00     0.209 HD
BRANCH  15  20
HETATM   20  C12 UNL     1     143.557  56.935 130.579  1.00  0.00     0.332 C 
BRANCH  20  21
HETATM   21  N9  UNL     1     144.429  57.195 129.459  1.00  0.00     0.097 N 
HETATM   22  C13 UNL     1     145.667  56.452 129.596  1.00  0.00     0.300 C 
HETATM   23  C14 UNL     1     146.476  56.510 128.315  1.00  0.00     0.262 C 
HETATM   24  N10 UNL     1     145.704  56.003 127.196  1.00  0.00    -0.072 N 
HETATM   25  C15 UNL     1     144.557  56.876 127.031  1.00  0.00     0.262 C 
ATOM     26 2H10 UNL     1     146.254  55.903 126.343  1.00  0.00     0.277 HD
ATOM     27 1H10 UNL     1     145.446  55.022 127.302  1.00  0.00     0.277 HD
HETATM   28  C16 UNL     1     143.697  56.745 128.261  1.00  0.00     0.300 C 
ENDBRANCH  20  21
ENDBRANCH  15  20
ENDBRANCH   7  13
BRANCH   5  29
HETATM   29  C4  UNL     1     141.726  62.047 130.959  1.00  0.00     0.181 A 
HETATM   30  N2  UNL     1     141.755  61.300 129.899  1.00  0.00    -0.172 N 
HETATM   31  C5  UNL     1     140.785  60.587 129.327  1.00  0.00     0.695 A 
ATOM     32  H2  UNL     1     142.659  61.252 129.430  1.00  0.00     0.186 HD
HETATM   33  N4  UNL     1     139.575  60.661 129.979  1.00  0.00    -0.022 N 
HETATM   34  C8  UNL     1     139.437  61.400 131.077  1.00  0.00     0.692 A 
ATOM     35  H4  UNL     1     138.774  60.145 129.615  1.00  0.00     0.203 HD
HETATM   36  N6  UNL     1     140.462  62.074 131.564  1.00  0.00    -0.172 N 
ATOM     37  H6  UNL     1     140.330  62.634 132.406  1.00  0.00     0.186 HD
BRANCH  31  38
HETATM   38  N3  UNL     1     140.851  59.871 128.111  1.00  0.00    -0.226 N 
HETATM   39  C6  UNL     1     139.700  59.103 127.680  1.00  0.00     0.168 C 
HETATM   40  C7  UNL     1     141.985  59.920 127.248  1.00  0.00     0.168 C 
ENDBRANCH  31  38
BRANCH  34  41
HETATM   41  N5  UNL     1     138.263  61.421 131.642  1.00  0.00    -0.234 N 
ATOM     42  H52 UNL     1     137.535  62.075 131.354  1.00  0.00     0.174 HD
ATOM     43  H51 UNL     1     138.092  60.755 132.395  1.00  0.00     0.174 HD
ENDBRANCH  34  41
ENDBRANCH   5  29
BRANCH   9  44
HETATM   44  N13 UNL     1     147.228  62.514 134.532  1.00  0.00    -0.385 N 
ATOM     45 2H13 UNL     1     147.216  62.108 135.467  1.00  0.00     0.157 HD
ATOM     46 1H13 UNL     1     148.087  62.947 134.193  1.00  0.00     0.157 HD
ENDBRANCH   9  44
TORSDOF 7
ENDMDL
MODEL 3
REMARK VINA RESULT: -8.428523212      2.383      6.087
REMARK  7 active torsions:
REMARK  status: ('A' for Active; 'I' for Inactive)
REMARK    1  A    between atoms: C3_5  and  C4_6 
REMARK    2  A    between atoms: C5_9  and  N3_10 
REMARK    3  A    between atoms: C8_15  and  N5_16 
REMARK    4  A    between atoms: C9_22  and  N8_23 
REMARK    5  A    between atoms: C11_25  and  C12_26 
REMARK    6  A    between atoms: C12_26  and  N9_27 
REMARK    7  A    between atoms: C18_40  and  N13_41 
ROOT
HETATM    1  C1  UNL     1     144.527  65.648 132.901  1.00  0.00     0.072 C 
HETATM    2  C2  UNL     1     144.003  64.270 132.651  1.00  0.00     0.052 A 
HETATM    3  N1  UNL     1     142.920  63.944 132.004  1.00  0.00    -0.339 N 
ATOM      4  H1  UNL     1     142.275  64.610 131.579  1.00  0.00     0.167 HD
HETATM    5  C3  UNL     1     142.761  62.533 131.973  1.00  0.00     0.161 A 
HETATM    6  N7  UNL     1     143.783  62.030 132.632  1.00  0.00    -0.262 N 
HETATM    7  C9  UNL     1     144.156  60.807 132.979  1.00  0.00     0.141 A 
HETATM    8  C17 UNL     1     145.336  60.617 133.741  1.00  0.00     0.099 A 
HETATM    9  C18 UNL     1     146.077  61.662 134.125  1.00  0.00     0.103 A 
HETATM   10  N14 UNL     1     145.692  62.886 133.783  1.00  0.00    -0.327 N 
ATOM     11  H14 UNL     1     146.253  63.686 134.075  1.00  0.00     0.169 HD
HETATM   12  C19 UNL     1     144.585  63.091 133.066  1.00  0.00     0.139 A 
ENDROOT
BRANCH   7  13
HETATM   13  N8  UNL     1     143.394  59.639 132.821  1.00  0.00    -0.234 N 
HETATM   14  C10 UNL     1     143.591  58.764 131.806  1.00  0.00     0.148 A 
HETATM   15  C11 UNL     1     142.579  57.832 131.818  1.00  0.00     0.073 A 
HETATM   16  N11 UNL     1     141.804  58.186 132.852  1.00  0.00    -0.287 N 
HETATM   17  N12 UNL     1     142.305  59.260 133.435  1.00  0.00    -0.235 N 
ATOM     18  H11 UNL     1     140.956  57.699 133.144  1.00  0.00     0.188 HD
ATOM     19  H12 UNL     1     141.899  59.726 134.248  1.00  0.00     0.209 HD
BRANCH  15  20
HETATM   20  C12 UNL     1     142.438  56.720 130.869  1.00  0.00     0.332 C 
BRANCH  20  21
HETATM   21  N9  UNL     1     143.089  56.969 129.606  1.00  0.00     0.097 N 
HETATM   22  C13 UNL     1     144.148  56.004 129.382  1.00  0.00     0.300 C 
HETATM   23  C14 UNL     1     144.664  56.089 127.958  1.00  0.00     0.262 C 
HETATM   24  N10 UNL     1     143.586  55.886 127.008  1.00  0.00    -0.072 N 
HETATM   25  C15 UNL     1     142.634  56.965 127.196  1.00  0.00     0.262 C 
ATOM     26 2H10 UNL     1     143.912  55.806 126.045  1.00  0.00     0.277 HD
ATOM     27 1H10 UNL     1     143.160  54.962 127.081  1.00  0.00     0.277 HD
HETATM   28  C16 UNL     1     142.045  56.824 128.576  1.00  0.00     0.300 C 
ENDBRANCH  20  21
ENDBRANCH  15  20
ENDBRANCH   7  13
BRANCH   5  29
HETATM   29  C4  UNL     1     141.612  61.996 131.299  1.00  0.00     0.181 A 
HETATM   30  N2  UNL     1     141.487  61.375 130.167  1.00  0.00    -0.172 N 
HETATM   31  C5  UNL     1     140.410  60.826 129.606  1.00  0.00     0.695 A 
ATOM     32  H2  UNL     1     142.345  61.295 129.623  1.00  0.00     0.186 HD
HETATM   33  N4  UNL     1     139.265  60.939 130.360  1.00  0.00    -0.022 N 
HETATM   34  C8  UNL     1     139.283  61.558 131.538  1.00  0.00     0.692 A 
ATOM     35  H4  UNL     1     138.391  60.545 130.011  1.00  0.00     0.203 HD
HETATM   36  N6  UNL     1     140.404  62.074 132.006  1.00  0.00    -0.172 N 
ATOM     37  H6  UNL     1     140.391  62.544 132.911  1.00  0.00     0.186 HD
BRANCH  31  38
HETATM   38  N3  UNL     1     140.315  60.249 128.320  1.00  0.00    -0.226 N 
HETATM   39  C6  UNL     1     141.341  60.538 127.338  1.00  0.00     0.168 C 
HETATM   40  C7  UNL     1     139.279  59.337 127.958  1.00  0.00     0.168 C 
ENDBRANCH  31  38
BRANCH  34  41
HETATM   41  N5  UNL     1     138.161  61.626 132.197  1.00  0.00    -0.234 N 
ATOM     42  H52 UNL     1     137.546  60.820 132.305  1.00  0.00     0.174 HD
ATOM     43  H51 UNL     1     137.912  62.526 132.607  1.00  0.00     0.174 HD
ENDBRANCH  34  41
ENDBRANCH   5  29
BRANCH   9  44
HETATM   44  N13 UNL     1     147.154  61.537 134.812  1.00  0.00    -0.385 N 
ATOM     45 2H13 UNL     1     147.925  62.175 134.618  1.00  0.00     0.157 HD
ATOM     46 1H13 UNL     1     147.268  60.827 135.536  1.00  0.00     0.157 HD
ENDBRANCH   9  44
TORSDOF 7
ENDMDL
MODEL 4
REMARK VINA RESULT: -8.412273890      2.323      5.844
REMARK  7 active torsions:
REMARK  status: ('A' for Active; 'I' for Inactive)
REMARK    1  A    between atoms: C3_5  and  C4_6 
REMARK    2  A    between atoms: C5_9  and  N3_10 
REMARK    3  A    between atoms: C8_15  and  N5_16 
REMARK    4  A    between atoms: C9_22  and  N8_23 
REMARK    5  A    between atoms: C11_25  and  C12_26 
REMARK    6  A    between atoms: C12_26  and  N9_27 
REMARK    7  A    between atoms: C18_40  and  N13_41 
ROOT
HETATM    1  C1  UNL     1     144.262  65.519 134.386  1.00  0.00     0.072 C 
HETATM    2  C2  UNL     1     143.937  64.186 133.792  1.00  0.00     0.052 A 
HETATM    3  N1  UNL     1     142.903  63.882 133.060  1.00  0.00    -0.339 N 
ATOM      4  H1  UNL     1     142.165  64.534 132.797  1.00  0.00     0.167 HD
HETATM    5  C3  UNL     1     142.946  62.514 132.678  1.00  0.00     0.161 A 
HETATM    6  N7  UNL     1     144.037  62.013 133.217  1.00  0.00    -0.262 N 
HETATM    7  C9  UNL     1     144.584  60.807 133.259  1.00  0.00     0.141 A 
HETATM    8  C17 UNL     1     145.788  60.602 133.978  1.00  0.00     0.099 A 
HETATM    9  C18 UNL     1     146.379  61.614 134.625  1.00  0.00     0.103 A 
HETATM   10  N14 UNL     1     145.819  62.817 134.587  1.00  0.00    -0.327 N 
ATOM     11  H14 UNL     1     146.264  63.591 135.080  1.00  0.00     0.169 HD
HETATM   12  C19 UNL     1     144.685  63.035 133.917  1.00  0.00     0.139 A 
ENDROOT
BRANCH   7  13
HETATM   13  N8  UNL     1     143.994  59.619 132.801  1.00  0.00    -0.234 N 
HETATM   14  C10 UNL     1     144.373  59.004 131.656  1.00  0.00     0.148 A 
HETATM   15  C11 UNL     1     143.493  57.982 131.386  1.00  0.00     0.073 A 
HETATM   16  N11 UNL     1     142.609  58.020 132.391  1.00  0.00    -0.287 N 
HETATM   17  N12 UNL     1     142.923  58.998 133.222  1.00  0.00    -0.235 N 
ATOM     18  H11 UNL     1     141.814  57.390 132.499  1.00  0.00     0.188 HD
ATOM     19  H12 UNL     1     142.406  59.235 134.069  1.00  0.00     0.209 HD
BRANCH  15  20
HETATM   20  C12 UNL     1     143.565  57.083 130.226  1.00  0.00     0.332 C 
BRANCH  20  21
HETATM   21  N9  UNL     1     144.657  57.395 129.336  1.00  0.00     0.097 N 
HETATM   22  C13 UNL     1     145.760  56.475 129.545  1.00  0.00     0.300 C 
HETATM   23  C14 UNL     1     146.801  56.624 128.452  1.00  0.00     0.262 C 
HETATM   24  N10 UNL     1     146.206  56.413 127.145  1.00  0.00    -0.072 N 
HETATM   25  C15 UNL     1     145.213  57.452 126.949  1.00  0.00     0.262 C 
ATOM     26 2H10 UNL     1     146.896  56.376 126.394  1.00  0.00     0.277 HD
ATOM     27 1H10 UNL     1     145.829  55.473 127.026  1.00  0.00     0.277 HD
HETATM   28  C16 UNL     1     144.124  57.247 127.971  1.00  0.00     0.300 C 
ENDBRANCH  20  21
ENDBRANCH  15  20
ENDBRANCH   7  13
BRANCH   5  29
HETATM   29  C4  UNL     1     141.876  62.004 131.866  1.00  0.00     0.181 A 
HETATM   30  N2  UNL     1     141.873  61.433 130.702  1.00  0.00    -0.172 N 
HETATM   31  C5  UNL     1     140.864  60.906 130.008  1.00  0.00     0.695 A 
ATOM     32  H2  UNL     1     142.784  61.379 130.246  1.00  0.00     0.186 HD
HETATM   33  N4  UNL     1     139.646  60.983 130.644  1.00  0.00    -0.022 N 
HETATM   34  C8  UNL     1     139.539  61.549 131.843  1.00  0.00     0.692 A 
ATOM     35  H4  UNL     1     138.816  60.602 130.190  1.00  0.00     0.203 HD
HETATM   36  N6  UNL     1     140.602  62.047 132.447  1.00  0.00    -0.172 N 
ATOM     37  H6  UNL     1     140.492  62.477 133.365  1.00  0.00     0.186 HD
BRANCH  31  38
HETATM   38  N3  UNL     1     140.906  60.387 128.696  1.00  0.00    -0.226 N 
HETATM   39  C6  UNL     1     141.254  61.267 127.598  1.00  0.00     0.168 C 
HETATM   40  C7  UNL     1     140.680  59.009 128.403  1.00  0.00     0.168 C 
ENDBRANCH  31  38
BRANCH  34  41
HETATM   41  N5  UNL     1     138.354  61.585 132.386  1.00  0.00    -0.234 N 
ATOM     42  H52 UNL     1     137.530  61.212 131.914  1.00  0.00     0.174 HD
ATOM     43  H51 UNL     1     138.274  62.007 133.311  1.00  0.00     0.174 HD
ENDBRANCH  34  41
ENDBRANCH   5  29
BRANCH   9  44
HETATM   44  N13 UNL     1     147.470  61.475 135.284  1.00  0.00    -0.385 N 
ATOM     45 2H13 UNL     1     147.666  60.567 135.705  1.00  0.00     0.157 HD
ATOM     46 1H13 UNL     1     148.144  62.232 135.406  1.00  0.00     0.157 HD
ENDBRANCH   9  44
TORSDOF 7
ENDMDL
MODEL 5
REMARK VINA RESULT: -8.240241243      2.392      6.142
REMARK  7 active torsions:
REMARK  status: ('A' for Active; 'I' for Inactive)
REMARK    1  A    between atoms: C3_5  and  C4_6 
REMARK    2  A    between atoms: C5_9  and  N3_10 
REMARK    3  A    between atoms: C8_15  and  N5_16 
REMARK    4  A    between atoms: C9_22  and  N8_23 
REMARK    5  A    between atoms: C11_25  and  C12_26 
REMARK    6  A    between atoms: C12_26  and  N9_27 
REMARK    7  A    between atoms: C18_40  and  N13_41 
ROOT
HETATM    1  C1  UNL     1     144.573  65.964 132.885  1.00  0.00     0.072 C 
HETATM    2  C2  UNL     1     144.123  64.562 132.630  1.00  0.00     0.052 A 
HETATM    3  N1  UNL     1     143.073  64.181 131.959  1.00  0.00    -0.339 N 
ATOM      4  H1  UNL     1     142.407  64.813 131.516  1.00  0.00     0.167 HD
HETATM    5  C3  UNL     1     142.984  62.763 131.932  1.00  0.00     0.161 A 
HETATM    6  N7  UNL     1     144.013  62.314 132.617  1.00  0.00    -0.262 N 
HETATM    7  C9  UNL     1     144.436  61.111 132.978  1.00  0.00     0.141 A 
HETATM    8  C17 UNL     1     145.605  60.982 133.769  1.00  0.00     0.099 A 
HETATM    9  C18 UNL     1     146.286  62.064 134.165  1.00  0.00     0.103 A 
HETATM   10  N14 UNL     1     145.850  63.266 133.808  1.00  0.00    -0.327 N 
ATOM     11  H14 UNL     1     146.364  64.094 134.109  1.00  0.00     0.169 HD
HETATM   12  C19 UNL     1     144.751  63.414 133.064  1.00  0.00     0.139 A 
ENDROOT
BRANCH   7  13
HETATM   13  N8  UNL     1     143.736  59.907 132.809  1.00  0.00    -0.234 N 
HETATM   14  C10 UNL     1     144.081  58.980 131.884  1.00  0.00     0.148 A 
HETATM   15  C11 UNL     1     143.105  58.012 131.837  1.00  0.00     0.073 A 
HETATM   16  N11 UNL     1     142.201  58.397 132.747  1.00  0.00    -0.287 N 
HETATM   17  N12 UNL     1     142.593  59.524 133.314  1.00  0.00    -0.235 N 
ATOM     18  H11 UNL     1     141.340  57.896 132.969  1.00  0.00     0.188 HD
ATOM     19  H12 UNL     1     142.079  60.022 134.041  1.00  0.00     0.209 HD
BRANCH  15  20
HETATM   20  C12 UNL     1     143.113  56.839 130.953  1.00  0.00     0.332 C 
BRANCH  20  21
HETATM   21  N9  UNL     1     143.954  57.012 129.793  1.00  0.00     0.097 N 
HETATM   22  C13 UNL     1     145.097  56.120 129.858  1.00  0.00     0.300 C 
HETATM   23  C14 UNL     1     145.844  56.104 128.538  1.00  0.00     0.262 C 
HETATM   24  N10 UNL     1     144.960  55.716 127.453  1.00  0.00    -0.072 N 
HETATM   25  C15 UNL     1     143.923  56.725 127.358  1.00  0.00     0.262 C 
ATOM     26 2H10 UNL     1     145.452  55.566 126.572  1.00  0.00     0.277 HD
ATOM     27 1H10 UNL     1     144.589  54.772 127.560  1.00  0.00     0.277 HD
HETATM   28  C16 UNL     1     143.115  56.677 128.629  1.00  0.00     0.300 C 
ENDBRANCH  20  21
ENDBRANCH  15  20
ENDBRANCH   7  13
BRANCH   5  29
HETATM   29  C4  UNL     1     141.878  62.168 131.234  1.00  0.00     0.181 A 
HETATM   30  N2  UNL     1     140.596  62.262 131.408  1.00  0.00    -0.172 N 
HETATM   31  C5  UNL     1     139.594  61.751 130.693  1.00  0.00     0.695 A 
ATOM     32  H2  UNL     1     140.310  62.812 132.218  1.00  0.00     0.186 HD
HETATM   33  N4  UNL     1     140.001  61.017 129.602  1.00  0.00    -0.022 N 
HETATM   34  C8  UNL     1     141.295  60.859 129.332  1.00  0.00     0.692 A 
ATOM     35  H4  UNL     1     139.303  60.590 128.993  1.00  0.00     0.203 HD
HETATM   36  N6  UNL     1     142.213  61.405 130.107  1.00  0.00    -0.172 N 
ATOM     37  H6  UNL     1     143.197  61.268 129.880  1.00  0.00     0.186 HD
BRANCH  31  38
HETATM   38  N3  UNL     1     138.215  61.803 130.991  1.00  0.00    -0.226 N 
HETATM   39  C6  UNL     1     137.695  60.996 132.077  1.00  0.00     0.168 C 
HETATM   40  C7  UNL     1     137.310  62.668 130.308  1.00  0.00     0.168 C 
ENDBRANCH  31  38
BRANCH  34  41
HETATM   41  N5  UNL     1     141.607  60.154 128.282  1.00  0.00    -0.234 N 
ATOM     42  H52 UNL     1     142.297  59.403 128.318  1.00  0.00     0.174 HD
ATOM     43  H51 UNL     1     141.133  60.380 127.407  1.00  0.00     0.174 HD
ENDBRANCH  34  41
ENDBRANCH   5  29
BRANCH   9  44
HETATM   44  N13 UNL     1     147.351  61.993 134.877  1.00  0.00    -0.385 N 
ATOM     45 2H13 UNL     1     147.303  62.306 135.847  1.00  0.00     0.157 HD
ATOM     46 1H13 UNL     1     148.237  61.642 134.514  1.00  0.00     0.157 HD
ENDBRANCH   9  44
TORSDOF 7
ENDMDL
