MODEL 1
REMARK VINA RESULT: -6.596223052      0.000      0.000
REMARK  7 active torsions:
REMARK  status: ('A' for Active; 'I' for Inactive)
REMARK    1  A    between atoms: N1_2  and  S1_4 
REMARK    2  A    between atoms: S1_4  and  N2_7 
REMARK    3  A    between atoms: N2_7  and  C2_9 
REMARK    4  A    between atoms: C2_9  and  C3_10 
REMARK    5  A    between atoms: C9_17  and  O4_18 
REMARK    6  A    between atoms: C11_20  and  O5_21 
REMARK    7  A    between atoms: C12_23  and  O6_24 
ROOT
HETATM    1  C3  UNL     1      -4.119  -3.139  15.994  1.00  0.00     0.113 C 
HETATM    2  O3  UNL     1      -3.752  -4.173  16.815  1.00  0.00    -0.364 OA
HETATM    3  C4  UNL     1      -3.323  -5.230  16.081  1.00  0.00     0.063 A 
HETATM    4  C5  UNL     1      -3.643  -6.592  16.674  1.00  0.00     0.046 C 
HETATM    5  C6  UNL     1      -2.069  -5.193  15.267  1.00  0.00     0.046 A 
HETATM    6  C7  UNL     1      -3.417  -4.960  14.654  1.00  0.00     0.032 A 
HETATM    7  C8  UNL     1      -3.812  -3.495  14.582  1.00  0.00     0.063 C 
HETATM    8  C9  UNL     1      -5.053  -3.283  13.759  1.00  0.00     0.159 C 
HETATM    9  C11 UNL     1      -6.158  -2.926  14.696  1.00  0.00     0.179 C 
HETATM   10  C12 UNL     1      -5.617  -2.928  16.090  1.00  0.00     0.188 C 
ENDROOT
BRANCH   1  11
HETATM   11  C2  UNL     1      -3.386  -1.912  16.471  1.00  0.00     0.175 C 
BRANCH  11  12
HETATM   12  N2  UNL     1      -2.511  -1.351  15.468  1.00  0.00    -0.300 N 
ATOM     13  H2  UNL     1      -1.721  -1.812  15.018  1.00  0.00     0.173 HD
BRANCH  12  14
HETATM   14  S1  UNL     1      -3.079   0.278  15.181  1.00  0.00     0.314 S 
HETATM   15  O1  UNL     1      -2.971   1.085  16.430  1.00  0.00    -0.183 OA
HETATM   16  O2  UNL     1      -4.538   0.192  14.815  1.00  0.00    -0.183 OA
BRANCH  14  17
HETATM   17  N1  UNL     1      -2.152   0.991  13.910  1.00  0.00    -0.307 N 
HETATM   18  C1  UNL     1      -1.414   2.141  14.342  1.00  0.00     0.161 C 
ATOM     19  H1  UNL     1      -2.132   0.632  12.955  1.00  0.00     0.173 HD
ENDBRANCH  14  17
ENDBRANCH  12  14
ENDBRANCH  11  12
ENDBRANCH   1  11
BRANCH  10  20
HETATM   20  O6  UNL     1      -6.211  -3.966  16.786  1.00  0.00    -0.385 OA
HETATM   21  C13 UNL     1      -7.408  -4.339  16.234  1.00  0.00     0.202 C 
ENDBRANCH  10  20
BRANCH   8  22
HETATM   22  O4  UNL     1      -5.304  -4.479  13.079  1.00  0.00    -0.388 OA
HETATM   23  C10 UNL     1      -5.720  -4.255  11.767  1.00  0.00     0.202 C 
ENDBRANCH   8  22
BRANCH   9  24
HETATM   24  O5  UNL     1      -6.765  -1.696  14.358  1.00  0.00    -0.390 OA
ATOM     25  H5  UNL     1      -6.155  -0.969  14.416  1.00  0.00     0.210 HD
ENDBRANCH   9  24
TORSDOF 7
ENDMDL
MODEL 2
REMARK VINA RESULT: -6.424779653      3.205      5.311
REMARK  7 active torsions:
REMARK  status: ('A' for Active; 'I' for Inactive)
REMARK    1  A    between atoms: N1_2  and  S1_4 
REMARK    2  A    between atoms: S1_4  and  N2_7 
REMARK    3  A    between atoms: N2_7  and  C2_9 
REMARK    4  A    between atoms: C2_9  and  C3_10 
REMARK    5  A    between atoms: C9_17  and  O4_18 
REMARK    6  A    between atoms: C11_20  and  O5_21 
REMARK    7  A    between atoms: C12_23  and  O6_24 
ROOT
HETATM    1  C3  UNL     1      -1.594  -2.109  17.150  1.00  0.00     0.113 C 
HETATM    2  O3  UNL     1      -0.867  -2.692  16.145  1.00  0.00    -0.364 OA
HETATM    3  C4  UNL     1      -0.770  -4.030  16.347  1.00  0.00     0.063 A 
HETATM    4  C5  UNL     1       0.536  -4.654  15.885  1.00  0.00     0.046 C 
HETATM    5  C6  UNL     1      -1.950  -4.946  16.269  1.00  0.00     0.046 A 
HETATM    6  C7  UNL     1      -1.432  -4.432  17.580  1.00  0.00     0.032 A 
HETATM    7  C8  UNL     1      -2.122  -3.165  18.055  1.00  0.00     0.063 C 
HETATM    8  C9  UNL     1      -1.745  -2.812  19.468  1.00  0.00     0.159 C 
HETATM    9  C11 UNL     1      -0.866  -1.606  19.409  1.00  0.00     0.179 C 
HETATM   10  C12 UNL     1      -0.686  -1.219  17.976  1.00  0.00     0.188 C 
ENDROOT
BRANCH   1  11
HETATM   11  C2  UNL     1      -2.676  -1.289  16.496  1.00  0.00     0.175 C 
BRANCH  11  12
HETATM   12  N2  UNL     1      -2.248   0.049  16.163  1.00  0.00    -0.300 N 
ATOM     13  H2  UNL     1      -1.802   0.722  16.785  1.00  0.00     0.173 HD
BRANCH  12  14
HETATM   14  S1  UNL     1      -2.648   0.282  14.477  1.00  0.00     0.314 S 
HETATM   15  O1  UNL     1      -4.118   0.475  14.321  1.00  0.00    -0.183 OA
HETATM   16  O2  UNL     1      -2.270  -0.977  13.741  1.00  0.00    -0.183 OA
BRANCH  14  17
HETATM   17  N1  UNL     1      -1.784   1.649  13.868  1.00  0.00    -0.307 N 
HETATM   18  C1  UNL     1      -1.206   2.446  14.910  1.00  0.00     0.161 C 
ATOM     19  H1  UNL     1      -1.695   1.866  12.876  1.00  0.00     0.173 HD
ENDBRANCH  14  17
ENDBRANCH  12  14
ENDBRANCH  11  12
ENDBRANCH   1  11
BRANCH  10  20
HETATM   20  O6  UNL     1       0.639  -1.423  17.634  1.00  0.00    -0.385 OA
HETATM   21  C13 UNL     1       1.447  -0.409  18.075  1.00  0.00     0.202 C 
ENDBRANCH  10  20
BRANCH   8  22
HETATM   22  O4  UNL     1      -1.084  -3.920  20.006  1.00  0.00    -0.388 OA
HETATM   23  C10 UNL     1      -1.061  -3.887  21.400  1.00  0.00     0.202 C 
ENDBRANCH   8  22
BRANCH   9  24
HETATM   24  O5  UNL     1      -1.369  -0.544  20.192  1.00  0.00    -0.390 OA
ATOM     25  H5  UNL     1      -2.220  -0.248  19.889  1.00  0.00     0.210 HD
ENDBRANCH   9  24
TORSDOF 7
ENDMDL
MODEL 3
REMARK VINA RESULT: -6.193141331      2.984      5.283
REMARK  7 active torsions:
REMARK  status: ('A' for Active; 'I' for Inactive)
REMARK    1  A    between atoms: N1_2  and  S1_4 
REMARK    2  A    between atoms: S1_4  and  N2_7 
REMARK    3  A    between atoms: N2_7  and  C2_9 
REMARK    4  A    between atoms: C2_9  and  C3_10 
REMARK    5  A    between atoms: C9_17  and  O4_18 
REMARK    6  A    between atoms: C11_20  and  O5_21 
REMARK    7  A    between atoms: C12_23  and  O6_24 
ROOT
HETATM    1  C3  UNL     1      -3.152  -3.581  15.134  1.00  0.00     0.113 C 
HETATM    2  O3  UNL     1      -2.816  -2.335  14.672  1.00  0.00    -0.364 OA
HETATM    3  C4  UNL     1      -3.302  -1.377  15.502  1.00  0.00     0.063 A 
HETATM    4  C5  UNL     1      -3.728  -0.091  14.814  1.00  0.00     0.046 C 
HETATM    5  C6  UNL     1      -2.803  -1.191  16.899  1.00  0.00     0.046 A 
HETATM    6  C7  UNL     1      -4.057  -1.959  16.602  1.00  0.00     0.032 A 
HETATM    7  C8  UNL     1      -3.836  -3.454  16.449  1.00  0.00     0.063 C 
HETATM    8  C9  UNL     1      -5.133  -4.213  16.384  1.00  0.00     0.159 C 
HETATM    9  C11 UNL     1      -5.303  -4.692  14.980  1.00  0.00     0.179 C 
HETATM   10  C12 UNL     1      -4.133  -4.225  14.175  1.00  0.00     0.188 C 
ENDROOT
BRANCH   1  11
HETATM   11  C2  UNL     1      -1.880  -4.387  15.200  1.00  0.00     0.175 C 
BRANCH  11  12
HETATM   12  N2  UNL     1      -1.848  -5.301  16.318  1.00  0.00    -0.300 N 
ATOM     13  H2  UNL     1      -1.836  -5.057  17.308  1.00  0.00     0.173 HD
BRANCH  12  14
HETATM   14  S1  UNL     1      -1.833  -6.909  15.632  1.00  0.00     0.314 S 
HETATM   15  O1  UNL     1      -1.777  -6.830  14.144  1.00  0.00    -0.183 OA
HETATM   16  O2  UNL     1      -3.131  -7.576  16.008  1.00  0.00    -0.183 OA
BRANCH  14  17
HETATM   17  N1  UNL     1      -0.476  -7.781  16.250  1.00  0.00    -0.307 N 
HETATM   18  C1  UNL     1       0.764  -7.361  15.666  1.00  0.00     0.161 C 
ATOM     19  H1  UNL     1      -0.549  -8.516  16.954  1.00  0.00     0.173 HD
ENDBRANCH  14  17
ENDBRANCH  12  14
ENDBRANCH  11  12
ENDBRANCH   1  11
BRANCH  10  20
HETATM   20  O6  UNL     1      -4.583  -3.304  13.247  1.00  0.00    -0.385 OA
HETATM   21  C13 UNL     1      -5.406  -3.873  12.311  1.00  0.00     0.202 C 
ENDBRANCH  10  20
BRANCH   8  22
HETATM   22  O4  UNL     1      -6.146  -3.329  16.766  1.00  0.00    -0.388 OA
HETATM   23  C10 UNL     1      -7.209  -3.332  15.863  1.00  0.00     0.202 C 
ENDBRANCH   8  22
BRANCH   9  24
HETATM   24  O5  UNL     1      -5.476  -6.092  14.914  1.00  0.00    -0.390 OA
ATOM     25  H5  UNL     1      -6.153  -6.339  14.294  1.00  0.00     0.210 HD
ENDBRANCH   9  24
TORSDOF 7
ENDMDL
MODEL 4
REMARK VINA RESULT: -6.151836751      2.706      4.648
REMARK  7 active torsions:
REMARK  status: ('A' for Active; 'I' for Inactive)
REMARK    1  A    between atoms: N1_2  and  S1_4 
REMARK    2  A    between atoms: S1_4  and  N2_7 
REMARK    3  A    between atoms: N2_7  and  C2_9 
REMARK    4  A    between atoms: C2_9  and  C3_10 
REMARK    5  A    between atoms: C9_17  and  O4_18 
REMARK    6  A    between atoms: C11_20  and  O5_21 
REMARK    7  A    between atoms: C12_23  and  O6_24 
ROOT
HETATM    1  C3  UNL     1      -3.324  -3.693  15.006  1.00  0.00     0.113 C 
HETATM    2  O3  UNL     1      -2.907  -2.466  14.562  1.00  0.00    -0.364 OA
HETATM    3  C4  UNL     1      -3.360  -1.487  15.385  1.00  0.00     0.063 A 
HETATM    4  C5  UNL     1      -3.695  -0.175  14.696  1.00  0.00     0.046 C 
HETATM    5  C6  UNL     1      -2.888  -1.336  16.797  1.00  0.00     0.046 A 
HETATM    6  C7  UNL     1      -4.174  -2.032  16.462  1.00  0.00     0.032 A 
HETATM    7  C8  UNL     1      -4.033  -3.535  16.304  1.00  0.00     0.063 C 
HETATM    8  C9  UNL     1      -5.368  -4.221  16.201  1.00  0.00     0.159 C 
HETATM    9  C11 UNL     1      -5.529  -4.681  14.790  1.00  0.00     0.179 C 
HETATM   10  C12 UNL     1      -4.314  -4.276  14.018  1.00  0.00     0.188 C 
ENDROOT
BRANCH   1  11
HETATM   11  C2  UNL     1      -2.101  -4.569  15.100  1.00  0.00     0.175 C 
BRANCH  11  12
HETATM   12  N2  UNL     1      -1.442  -4.485  16.382  1.00  0.00    -0.300 N 
ATOM     13  H2  UNL     1      -1.859  -4.655  17.297  1.00  0.00     0.173 HD
BRANCH  12  14
HETATM   14  S1  UNL     1       0.215  -4.034  16.050  1.00  0.00     0.314 S 
HETATM   15  O1  UNL     1       0.556  -2.774  16.772  1.00  0.00    -0.183 OA
HETATM   16  O2  UNL     1       0.324  -3.761  14.573  1.00  0.00    -0.183 OA
BRANCH  14  17
HETATM   17  N1  UNL     1       1.264  -5.318  16.532  1.00  0.00    -0.307 N 
HETATM   18  C1  UNL     1       0.962  -6.556  15.874  1.00  0.00     0.161 C 
ATOM     19  H1  UNL     1       2.018  -5.209  17.211  1.00  0.00     0.173 HD
ENDBRANCH  14  17
ENDBRANCH  12  14
ENDBRANCH  11  12
ENDBRANCH   1  11
BRANCH  10  20
HETATM   20  O6  UNL     1      -4.688  -3.326  13.085  1.00  0.00    -0.385 OA
HETATM   21  C13 UNL     1      -5.426  -3.866  12.065  1.00  0.00     0.202 C 
ENDBRANCH  10  20
BRANCH   8  22
HETATM   22  O4  UNL     1      -6.340  -3.284  16.564  1.00  0.00    -0.388 OA
HETATM   23  C10 UNL     1      -7.444  -3.322  15.713  1.00  0.00     0.202 C 
ENDBRANCH   8  22
BRANCH   9  24
HETATM   24  O5  UNL     1      -5.778  -6.069  14.710  1.00  0.00    -0.390 OA
ATOM     25  H5  UNL     1      -6.702  -6.260  14.596  1.00  0.00     0.210 HD
ENDBRANCH   9  24
TORSDOF 7
ENDMDL
MODEL 5
REMARK VINA RESULT: -6.135540938      3.175      5.245
REMARK  7 active torsions:
REMARK  status: ('A' for Active; 'I' for Inactive)
REMARK    1  A    between atoms: N1_2  and  S1_4 
REMARK    2  A    between atoms: S1_4  and  N2_7 
REMARK    3  A    between atoms: N2_7  and  C2_9 
REMARK    4  A    between atoms: C2_9  and  C3_10 
REMARK    5  A    between atoms: C9_17  and  O4_18 
REMARK    6  A    between atoms: C11_20  and  O5_21 
REMARK    7  A    between atoms: C12_23  and  O6_24 
ROOT
HETATM    1  C3  UNL     1      -5.148  -4.510  15.013  1.00  0.00     0.113 C 
HETATM    2  O3  UNL     1      -4.635  -3.241  15.062  1.00  0.00    -0.364 OA
HETATM    3  C4  UNL     1      -5.427  -2.440  15.818  1.00  0.00     0.063 A 
HETATM    4  C5  UNL     1      -5.500  -0.994  15.359  1.00  0.00     0.046 C 
HETATM    5  C6  UNL     1      -5.588  -2.626  17.293  1.00  0.00     0.046 A 
HETATM    6  C7  UNL     1      -6.592  -3.159  16.314  1.00  0.00     0.032 A 
HETATM    7  C8  UNL     1      -6.338  -4.598  15.902  1.00  0.00     0.063 C 
HETATM    8  C9  UNL     1      -7.481  -5.170  15.110  1.00  0.00     0.159 C 
HETATM    9  C11 UNL     1      -7.024  -5.304  13.695  1.00  0.00     0.179 C 
HETATM   10  C12 UNL     1      -5.616  -4.810  13.602  1.00  0.00     0.188 C 
ENDROOT
BRANCH   1  11
HETATM   11  C2  UNL     1      -4.040  -5.452  15.407  1.00  0.00     0.175 C 
BRANCH  11  12
HETATM   12  N2  UNL     1      -3.115  -5.719  14.329  1.00  0.00    -0.300 N 
ATOM     13  H2  UNL     1      -3.252  -5.514  13.340  1.00  0.00     0.173 HD
BRANCH  12  14
HETATM   14  S1  UNL     1      -1.713  -6.463  15.063  1.00  0.00     0.314 S 
HETATM   15  O1  UNL     1      -0.499  -6.189  14.242  1.00  0.00    -0.183 OA
HETATM   16  O2  UNL     1      -1.939  -7.952  15.069  1.00  0.00    -0.183 OA
BRANCH  14  17
HETATM   17  N1  UNL     1      -1.517  -5.851  16.667  1.00  0.00    -0.307 N 
HETATM   18  C1  UNL     1      -1.054  -6.849  17.586  1.00  0.00     0.161 C 
ATOM     19  H1  UNL     1      -1.709  -4.885  16.932  1.00  0.00     0.173 HD
ENDBRANCH  14  17
ENDBRANCH  12  14
ENDBRANCH  11  12
ENDBRANCH   1  11
BRANCH  10  20
HETATM   20  O6  UNL     1      -5.609  -3.660  12.832  1.00  0.00    -0.385 OA
HETATM   21  C13 UNL     1      -5.672  -3.937  11.492  1.00  0.00     0.202 C 
ENDBRANCH  10  20
BRANCH   8  22
HETATM   22  O4  UNL     1      -8.553  -4.282  15.235  1.00  0.00    -0.388 OA
HETATM   23  C10 UNL     1      -9.638  -4.658  14.445  1.00  0.00     0.202 C 
ENDBRANCH   8  22
BRANCH   9  24
HETATM   24  O5  UNL     1      -7.162  -6.626  13.216  1.00  0.00    -0.390 OA
ATOM     25  H5  UNL     1      -6.740  -6.746  12.372  1.00  0.00     0.210 HD
ENDBRANCH   9  24
TORSDOF 7
ENDMDL
