MODEL 1
REMARK VINA RESULT: -6.044101036      0.000      0.000
REMARK  3 active torsions:
REMARK  status: ('A' for Active; 'I' for Inactive)
REMARK    1  A    between atoms: C2_2  and  C4_4 
REMARK    2  A    between atoms: C10_12  and  C11_13 
REMARK    3  A    between atoms: C11_13  and  O1_14 
ROOT
HETATM    1  C4  UNL     1      22.027  85.177  25.752  1.00  0.00    -0.070 C 
HETATM    2  C5  UNL     1      21.195  84.148  25.544  1.00  0.00    -0.011 C 
HETATM    3  C6  UNL     1      21.037  83.894  24.087  1.00  0.00     0.006 C 
HETATM    4  C7  UNL     1      22.011  82.894  23.559  1.00  0.00     0.022 C 
HETATM    5  C8  UNL     1      19.637  83.449  23.807  1.00  0.00     0.022 C 
HETATM    6  C9  UNL     1      21.342  85.266  23.532  1.00  0.00     0.133 C 
HETATM    7 CL1  UNL     1      21.840  85.219  21.843  1.00  0.00    -0.100 Cl
HETATM    8 CL2  UNL     1      19.908  86.274  23.770  1.00  0.00    -0.100 Cl
HETATM    9  C10 UNL     1      22.481  85.665  24.450  1.00  0.00     0.078 C 
ENDROOT
BRANCH   1  10
HETATM   10  C2  UNL     1      22.327  85.605  27.134  1.00  0.00     0.007 C 
HETATM   11  C1  UNL     1      22.466  84.374  27.996  1.00  0.00     0.014 C 
HETATM   12  C3  UNL     1      21.285  86.503  27.722  1.00  0.00     0.014 C 
ENDBRANCH   1  10
BRANCH   9  13
HETATM   13  C11 UNL     1      22.702  87.122  24.303  1.00  0.00     0.176 C 
BRANCH  13  14
HETATM   14  O1  UNL     1      24.105  87.320  24.403  1.00  0.00    -0.400 OA
ATOM     15  H1  UNL     1      24.233  87.952  25.101  1.00  0.00     0.209 HD
ENDBRANCH  13  14
ENDBRANCH   9  13
TORSDOF 3
ENDMDL
MODEL 2
REMARK VINA RESULT: -6.035562184      2.136      3.405
REMARK  3 active torsions:
REMARK  status: ('A' for Active; 'I' for Inactive)
REMARK    1  A    between atoms: C2_2  and  C4_4 
REMARK    2  A    between atoms: C10_12  and  C11_13 
REMARK    3  A    between atoms: C11_13  and  O1_14 
ROOT
HETATM    1  C4  UNL     1      21.239  85.064  25.774  1.00  0.00    -0.070 C 
HETATM    2  C5  UNL     1      22.064  86.098  25.561  1.00  0.00    -0.011 C 
HETATM    3  C6  UNL     1      22.203  86.360  24.104  1.00  0.00     0.006 C 
HETATM    4  C7  UNL     1      21.219  87.360  23.594  1.00  0.00     0.022 C 
HETATM    5  C8  UNL     1      23.598  86.811  23.809  1.00  0.00     0.022 C 
HETATM    6  C9  UNL     1      21.895  84.991  23.546  1.00  0.00     0.133 C 
HETATM    7 CL1  UNL     1      21.375  85.045  21.863  1.00  0.00    -0.100 Cl
HETATM    8 CL2  UNL     1      23.335  83.986  23.759  1.00  0.00    -0.100 Cl
HETATM    9  C10 UNL     1      20.769  84.583  24.476  1.00  0.00     0.078 C 
ENDROOT
BRANCH   1  10
HETATM   10  C2  UNL     1      20.958  84.628  27.157  1.00  0.00     0.007 C 
HETATM   11  C1  UNL     1      20.822  85.854  28.027  1.00  0.00     0.014 C 
HETATM   12  C3  UNL     1      22.011  83.733  27.728  1.00  0.00     0.014 C 
ENDBRANCH   1  10
BRANCH   9  13
HETATM   13  C11 UNL     1      20.551  83.126  24.324  1.00  0.00     0.176 C 
BRANCH  13  14
HETATM   14  O1  UNL     1      19.146  82.927  24.396  1.00  0.00    -0.400 OA
ATOM     15  H1  UNL     1      18.991  82.427  25.188  1.00  0.00     0.209 HD
ENDBRANCH  13  14
ENDBRANCH   9  13
TORSDOF 3
ENDMDL
MODEL 3
REMARK VINA RESULT: -5.840336982      2.393      3.533
REMARK  3 active torsions:
REMARK  status: ('A' for Active; 'I' for Inactive)
REMARK    1  A    between atoms: C2_2  and  C4_4 
REMARK    2  A    between atoms: C10_12  and  C11_13 
REMARK    3  A    between atoms: C11_13  and  O1_14 
ROOT
HETATM    1  C4  UNL     1      20.991  84.080  24.881  1.00  0.00    -0.070 C 
HETATM    2  C5  UNL     1      21.186  85.400  25.008  1.00  0.00    -0.011 C 
HETATM    3  C6  UNL     1      21.415  86.022  23.676  1.00  0.00     0.006 C 
HETATM    4  C7  UNL     1      20.160  86.517  23.038  1.00  0.00     0.022 C 
HETATM    5  C8  UNL     1      22.402  87.137  23.810  1.00  0.00     0.022 C 
HETATM    6  C9  UNL     1      21.961  84.840  22.909  1.00  0.00     0.133 C 
HETATM    7 CL1  UNL     1      21.784  85.022  21.166  1.00  0.00    -0.100 Cl
HETATM    8 CL2  UNL     1      23.652  84.624  23.382  1.00  0.00    -0.100 Cl
HETATM    9  C10 UNL     1      21.068  83.744  23.460  1.00  0.00     0.078 C 
ENDROOT
BRANCH   1  10
HETATM   10  C2  UNL     1      20.745  83.261  26.085  1.00  0.00     0.007 C 
HETATM   11  C1  UNL     1      19.418  82.561  25.924  1.00  0.00     0.014 C 
HETATM   12  C3  UNL     1      20.734  84.050  27.355  1.00  0.00     0.014 C 
ENDBRANCH   1  10
BRANCH   9  13
HETATM   13  C11 UNL     1      21.665  82.438  23.096  1.00  0.00     0.176 C 
BRANCH  13  14
HETATM   14  O1  UNL     1      20.888  81.936  22.018  1.00  0.00    -0.400 OA
ATOM     15  H1  UNL     1      19.985  81.949  22.315  1.00  0.00     0.209 HD
ENDBRANCH  13  14
ENDBRANCH   9  13
TORSDOF 3
ENDMDL
MODEL 4
REMARK VINA RESULT: -5.330048811      2.144      3.892
REMARK  3 active torsions:
REMARK  status: ('A' for Active; 'I' for Inactive)
REMARK    1  A    between atoms: C2_2  and  C4_4 
REMARK    2  A    between atoms: C10_12  and  C11_13 
REMARK    3  A    between atoms: C11_13  and  O1_14 
ROOT
HETATM    1  C4  UNL     1      21.624  84.227  24.581  1.00  0.00    -0.070 C 
HETATM    2  C5  UNL     1      21.763  85.153  23.623  1.00  0.00    -0.011 C 
HETATM    3  C6  UNL     1      22.441  86.362  24.162  1.00  0.00     0.006 C 
HETATM    4  C7  UNL     1      23.924  86.323  23.997  1.00  0.00     0.022 C 
HETATM    5  C8  UNL     1      21.879  87.583  23.507  1.00  0.00     0.022 C 
HETATM    6  C9  UNL     1      22.074  86.255  25.624  1.00  0.00     0.133 C 
HETATM    7 CL1  UNL     1      23.174  87.154  26.666  1.00  0.00    -0.100 Cl
HETATM    8 CL2  UNL     1      20.402  86.804  25.802  1.00  0.00    -0.100 Cl
HETATM    9  C10 UNL     1      22.209  84.757  25.812  1.00  0.00     0.078 C 
ENDROOT
BRANCH   1  10
HETATM   10  C2  UNL     1      20.971  82.941  24.263  1.00  0.00     0.007 C 
HETATM   11  C1  UNL     1      21.221  82.624  22.810  1.00  0.00     0.014 C 
HETATM   12  C3  UNL     1      19.498  82.937  24.522  1.00  0.00     0.014 C 
ENDBRANCH   1  10
BRANCH   9  13
HETATM   13  C11 UNL     1      21.557  84.393  27.092  1.00  0.00     0.176 C 
BRANCH  13  14
HETATM   14  O1  UNL     1      22.609  84.153  28.016  1.00  0.00    -0.400 OA
ATOM     15  H1  UNL     1      22.209  84.162  28.878  1.00  0.00     0.209 HD
ENDBRANCH  13  14
ENDBRANCH   9  13
TORSDOF 3
ENDMDL
MODEL 5
REMARK VINA RESULT: -5.322308937      2.284      3.627
REMARK  3 active torsions:
REMARK  status: ('A' for Active; 'I' for Inactive)
REMARK    1  A    between atoms: C2_2  and  C4_4 
REMARK    2  A    between atoms: C10_12  and  C11_13 
REMARK    3  A    between atoms: C11_13  and  O1_14 
ROOT
HETATM    1  C4  UNL     1      21.560  86.028  24.527  1.00  0.00    -0.070 C 
HETATM    2  C5  UNL     1      21.410  85.093  23.579  1.00  0.00    -0.011 C 
HETATM    3  C6  UNL     1      20.749  83.885  24.141  1.00  0.00     0.006 C 
HETATM    4  C7  UNL     1      19.263  83.913  24.002  1.00  0.00     0.022 C 
HETATM    5  C8  UNL     1      21.307  82.662  23.486  1.00  0.00     0.022 C 
HETATM    6  C9  UNL     1      21.141  84.006  25.595  1.00  0.00     0.133 C 
HETATM    7 CL1  UNL     1      20.066  83.111  26.665  1.00  0.00    -0.100 Cl
HETATM    8 CL2  UNL     1      22.820  83.470  25.748  1.00  0.00    -0.100 Cl
HETATM    9  C10 UNL     1      21.001  85.506  25.773  1.00  0.00     0.078 C 
ENDROOT
BRANCH   1  10
HETATM   10  C2  UNL     1      22.199  87.316  24.187  1.00  0.00     0.007 C 
HETATM   11  C1  UNL     1      21.967  87.593  22.722  1.00  0.00     0.014 C 
HETATM   12  C3  UNL     1      23.667  87.348  24.467  1.00  0.00     0.014 C 
ENDBRANCH   1  10
BRANCH   9  13
HETATM   13  C11 UNL     1      21.674  85.884  27.038  1.00  0.00     0.176 C 
BRANCH  13  14
HETATM   14  O1  UNL     1      20.639  86.070  27.994  1.00  0.00    -0.400 OA
ATOM     15  H1  UNL     1      20.904  85.583  28.766  1.00  0.00     0.209 HD
ENDBRANCH  13  14
ENDBRANCH   9  13
TORSDOF 3
ENDMDL
