MODEL 1
REMARK VINA RESULT: -5.904201513      0.000      0.000
REMARK  2 active torsions:
REMARK  status: ('A' for Active; 'I' for Inactive)
REMARK    1  A    between atoms: C2_2  and  C3_3 
REMARK    2  A    between atoms: C3_3  and  C4_4 
ROOT
HETATM    1  C3  UNL     1      21.170  85.083  24.442  1.00  0.00     0.023 C 
HETATM    2  C5  UNL     1      22.390  84.595  23.680  1.00  0.00     0.024 C 
HETATM    3  C6  UNL     1      22.093  84.550  22.181  1.00  0.00     0.007 C 
HETATM    4  C7  UNL     1      21.741  85.915  21.658  1.00  0.00     0.002 C 
HETATM    5  C8  UNL     1      20.975  86.771  22.601  1.00  0.00     0.034 C 
HETATM    6  C9  UNL     1      21.234  86.545  24.064  1.00  0.00     0.197 C 
HETATM    7  N1  UNL     1      22.656  86.884  24.270  1.00  0.00    -0.070 N 
ATOM      8  H11 UNL     1      22.873  87.167  25.225  1.00  0.00     0.277 HD
ATOM      9  H12 UNL     1      22.936  87.754  23.818  1.00  0.00     0.277 HD
HETATM   10  C10 UNL     1      23.399  85.744  23.827  1.00  0.00     0.238 C 
ENDROOT
BRANCH   1  11
HETATM   11  C2  UNL     1      19.901  84.470  23.907  1.00  0.00     0.010 C 
HETATM   12  C1  UNL     1      19.669  83.071  24.456  1.00  0.00     0.006 C 
ENDBRANCH   1  11
BRANCH   1  13
HETATM   13  C4  UNL     1      21.349  84.859  25.902  1.00  0.00     0.189 C 
HETATM   14 CL1  UNL     1      22.726  83.778  26.252  1.00  0.00    -0.107 Cl
HETATM   15 CL2  UNL     1      21.528  86.322  26.876  1.00  0.00    -0.107 Cl
ENDBRANCH   1  13
TORSDOF 2
ENDMDL
MODEL 2
REMARK VINA RESULT: -5.883410085      1.482      3.105
REMARK  2 active torsions:
REMARK  status: ('A' for Active; 'I' for Inactive)
REMARK    1  A    between atoms: C2_2  and  C3_3 
REMARK    2  A    between atoms: C3_3  and  C4_4 
ROOT
HETATM    1  C3  UNL     1      22.058  85.172  24.428  1.00  0.00     0.023 C 
HETATM    2  C5  UNL     1      20.849  85.662  23.650  1.00  0.00     0.024 C 
HETATM    3  C6  UNL     1      21.161  85.694  22.154  1.00  0.00     0.007 C 
HETATM    4  C7  UNL     1      21.508  84.322  21.645  1.00  0.00     0.002 C 
HETATM    5  C8  UNL     1      22.260  83.468  22.602  1.00  0.00     0.034 C 
HETATM    6  C9  UNL     1      21.989  83.707  24.061  1.00  0.00     0.197 C 
HETATM    7  N1  UNL     1      20.563  83.379  24.255  1.00  0.00    -0.070 N 
ATOM      8  H11 UNL     1      20.334  83.106  25.211  1.00  0.00     0.277 HD
ATOM      9  H12 UNL     1      20.281  82.507  23.808  1.00  0.00     0.277 HD
HETATM   10  C10 UNL     1      19.831  84.521  23.796  1.00  0.00     0.238 C 
ENDROOT
BRANCH   1  11
HETATM   11  C2  UNL     1      23.336  85.773  23.901  1.00  0.00     0.010 C 
HETATM   12  C1  UNL     1      23.567  87.179  24.431  1.00  0.00     0.006 C 
ENDBRANCH   1  11
BRANCH   1  13
HETATM   13  C4  UNL     1      21.867  85.409  25.885  1.00  0.00     0.189 C 
HETATM   14 CL1  UNL     1      20.512  86.523  26.211  1.00  0.00    -0.107 Cl
HETATM   15 CL2  UNL     1      21.641  83.956  26.864  1.00  0.00    -0.107 Cl
ENDBRANCH   1  13
TORSDOF 2
ENDMDL
MODEL 3
REMARK VINA RESULT: -5.872588643      2.529      3.850
REMARK  2 active torsions:
REMARK  status: ('A' for Active; 'I' for Inactive)
REMARK    1  A    between atoms: C2_2  and  C3_3 
REMARK    2  A    between atoms: C3_3  and  C4_4 
ROOT
HETATM    1  C3  UNL     1      22.118  85.772  23.273  1.00  0.00     0.023 C 
HETATM    2  C5  UNL     1      21.804  84.287  23.217  1.00  0.00     0.024 C 
HETATM    3  C6  UNL     1      22.188  83.616  24.536  1.00  0.00     0.007 C 
HETATM    4  C7  UNL     1      21.418  84.205  25.687  1.00  0.00     0.002 C 
HETATM    5  C8  UNL     1      21.144  85.662  25.579  1.00  0.00     0.034 C 
HETATM    6  C9  UNL     1      20.997  86.209  24.187  1.00  0.00     0.197 C 
HETATM    7  N1  UNL     1      19.816  85.530  23.619  1.00  0.00    -0.070 N 
ATOM      8  H11 UNL     1      19.359  86.060  22.876  1.00  0.00     0.277 HD
ATOM      9  H12 UNL     1      19.019  85.499  24.255  1.00  0.00     0.277 HD
HETATM   10  C10 UNL     1      20.269  84.237  23.205  1.00  0.00     0.238 C 
ENDROOT
BRANCH   1  11
HETATM   11  C2  UNL     1      23.449  86.032  23.934  1.00  0.00     0.010 C 
HETATM   12  C1  UNL     1      23.539  87.439  24.502  1.00  0.00     0.006 C 
ENDBRANCH   1  11
BRANCH   1  13
HETATM   13  C4  UNL     1      22.021  86.373  21.915  1.00  0.00     0.189 C 
HETATM   14 CL1  UNL     1      21.603  85.161  20.674  1.00  0.00    -0.107 Cl
HETATM   15 CL2  UNL     1      20.901  87.730  21.768  1.00  0.00    -0.107 Cl
ENDBRANCH   1  13
TORSDOF 2
ENDMDL
MODEL 4
REMARK VINA RESULT: -5.860476651      1.746      2.785
REMARK  2 active torsions:
REMARK  status: ('A' for Active; 'I' for Inactive)
REMARK    1  A    between atoms: C2_2  and  C3_3 
REMARK    2  A    between atoms: C3_3  and  C4_4 
ROOT
HETATM    1  C3  UNL     1      21.401  85.236  24.877  1.00  0.00     0.023 C 
HETATM    2  C5  UNL     1      20.739  85.625  23.566  1.00  0.00     0.024 C 
HETATM    3  C6  UNL     1      20.894  87.127  23.322  1.00  0.00     0.007 C 
HETATM    4  C7  UNL     1      22.345  87.513  23.236  1.00  0.00     0.002 C 
HETATM    5  C8  UNL     1      23.253  86.750  24.131  1.00  0.00     0.034 C 
HETATM    6  C9  UNL     1      22.845  85.338  24.443  1.00  0.00     0.197 C 
HETATM    7  N1  UNL     1      22.858  84.628  23.149  1.00  0.00    -0.070 N 
ATOM      8  H11 UNL     1      23.000  83.622  23.238  1.00  0.00     0.277 HD
ATOM      9  H12 UNL     1      23.687  84.820  22.588  1.00  0.00     0.277 HD
HETATM   10  C10 UNL     1      21.632  84.978  22.498  1.00  0.00     0.238 C 
ENDROOT
BRANCH   1  11
HETATM   11  C2  UNL     1      21.119  86.247  25.961  1.00  0.00     0.010 C 
HETATM   12  C1  UNL     1      22.222  86.284  27.007  1.00  0.00     0.006 C 
ENDBRANCH   1  11
BRANCH   1  13
HETATM   13  C4  UNL     1      21.012  83.853  25.263  1.00  0.00     0.189 C 
HETATM   14 CL1  UNL     1      20.654  83.717  27.006  1.00  0.00    -0.107 Cl
HETATM   15 CL2  UNL     1      19.654  83.171  24.362  1.00  0.00    -0.107 Cl
ENDBRANCH   1  13
TORSDOF 2
ENDMDL
MODEL 5
REMARK VINA RESULT: -5.853900963      1.615      2.616
REMARK  2 active torsions:
REMARK  status: ('A' for Active; 'I' for Inactive)
REMARK    1  A    between atoms: C2_2  and  C3_3 
REMARK    2  A    between atoms: C3_3  and  C4_4 
ROOT
HETATM    1  C3  UNL     1      21.831  85.044  24.888  1.00  0.00     0.023 C 
HETATM    2  C5  UNL     1      22.499  84.649  23.582  1.00  0.00     0.024 C 
HETATM    3  C6  UNL     1      22.338  83.149  23.339  1.00  0.00     0.007 C 
HETATM    4  C7  UNL     1      20.886  82.769  23.245  1.00  0.00     0.002 C 
HETATM    5  C8  UNL     1      19.976  83.538  24.133  1.00  0.00     0.034 C 
HETATM    6  C9  UNL     1      20.389  84.949  24.446  1.00  0.00     0.197 C 
HETATM    7  N1  UNL     1      20.387  85.656  23.150  1.00  0.00    -0.070 N 
ATOM      8  H11 UNL     1      20.250  86.664  23.236  1.00  0.00     0.277 HD
ATOM      9  H12 UNL     1      19.561  85.468  22.584  1.00  0.00     0.277 HD
HETATM   10  C10 UNL     1      21.615  85.300  22.507  1.00  0.00     0.238 C 
ENDROOT
BRANCH   1  11
HETATM   11  C2  UNL     1      22.101  84.034  25.975  1.00  0.00     0.010 C 
HETATM   12  C1  UNL     1      20.993  84.006  27.016  1.00  0.00     0.006 C 
ENDBRANCH   1  11
BRANCH   1  13
HETATM   13  C4  UNL     1      22.225  86.426  25.274  1.00  0.00     0.189 C 
HETATM   14 CL1  UNL     1      22.598  86.558  27.014  1.00  0.00    -0.107 Cl
HETATM   15 CL2  UNL     1      23.575  87.109  24.362  1.00  0.00    -0.107 Cl
ENDBRANCH   1  13
TORSDOF 2
ENDMDL
