MODEL 1
REMARK VINA RESULT: -6.635423369      0.000      0.000
REMARK  5 active torsions:
REMARK  status: ('A' for Active; 'I' for Inactive)
REMARK    1  A    between atoms: O1_2  and  N1_3 
REMARK    2  A    between atoms: N1_3  and  C2_5 
REMARK    3  A    between atoms: C2_5  and  C3_7 
REMARK       I    between atoms: N2_11  and  C7_12 
REMARK    4  A    between atoms: C7_12  and  C8_14 
REMARK    5  A    between atoms: C8_14  and  N3_16 
REMARK       I    between atoms: N3_16  and  C10_18 
ROOT
HETATM    1  C3  UNL     1      27.413  65.987  10.712  1.00  0.00     0.150 C 
HETATM    2  C4  UNL     1      27.181  67.326  11.443  1.00  0.00     0.034 C 
HETATM    3  C5  UNL     1      28.604  67.866  11.524  1.00  0.00     0.022 C 
HETATM    4  C6  UNL     1      29.407  67.047  10.522  1.00  0.00     0.127 C 
HETATM    5  N2  UNL     1      28.369  66.384   9.702  1.00  0.00    -0.339 N 
HETATM    6  C7  UNL     1      28.437  66.250   8.311  1.00  0.00     0.242 C 
HETATM    7  O2  UNL     1      27.509  65.659   7.716  1.00  0.00    -0.271 OA
ENDROOT
BRANCH   1   8
HETATM    8  C2  UNL     1      26.174  65.400  10.250  1.00  0.00     0.121 C 
HETATM    9  S1  UNL     1      24.903  66.357   9.904  1.00  0.00    -0.061 SA
BRANCH   8  10
HETATM   10  N1  UNL     1      26.060  63.998  10.097  1.00  0.00    -0.258 N 
ATOM     11  H1  UNL     1      26.330  63.393  10.874  1.00  0.00     0.195 HD
BRANCH  10  12
HETATM   12  O1  UNL     1      25.600  63.426   8.945  1.00  0.00    -0.284 OA
HETATM   13  C1  UNL     1      24.853  62.303   9.275  1.00  0.00     0.237 C 
ENDBRANCH  10  12
ENDBRANCH   8  10
ENDBRANCH   1   8
BRANCH   6  14
HETATM   14  C8  UNL     1      29.547  66.766   7.475  1.00  0.00     0.172 C 
HETATM   15  C9  UNL     1      29.310  66.307   6.047  1.00  0.00     0.042 C 
BRANCH  14  16
HETATM   16  N3  UNL     1      30.820  66.171   7.860  1.00  0.00    -0.352 N 
HETATM   17  C10 UNL     1      31.998  66.849   7.451  1.00  0.00     0.182 C 
HETATM   18  N4  UNL     1      33.151  66.561   7.967  1.00  0.00    -0.374 N 
HETATM   19  N5  UNL     1      31.984  67.870   6.467  1.00  0.00    -0.064 NA
ATOM     20  H42 UNL     1      33.160  65.827   8.674  1.00  0.00     0.158 HD
ATOM     21  H41 UNL     1      33.998  67.048   7.673  1.00  0.00     0.158 HD
ATOM     22  H3  UNL     1      30.863  65.307   8.400  1.00  0.00     0.163 HD
ENDBRANCH  14  16
ENDBRANCH   6  14
TORSDOF 5
ENDMDL
MODEL 2
REMARK VINA RESULT: -6.553598671      1.855      1.914
REMARK  5 active torsions:
REMARK  status: ('A' for Active; 'I' for Inactive)
REMARK    1  A    between atoms: O1_2  and  N1_3 
REMARK    2  A    between atoms: N1_3  and  C2_5 
REMARK    3  A    between atoms: C2_5  and  C3_7 
REMARK       I    between atoms: N2_11  and  C7_12 
REMARK    4  A    between atoms: C7_12  and  C8_14 
REMARK    5  A    between atoms: C8_14  and  N3_16 
REMARK       I    between atoms: N3_16  and  C10_18 
ROOT
HETATM    1  C3  UNL     1      28.143  65.647  11.899  1.00  0.00     0.150 C 
HETATM    2  C4  UNL     1      26.907  66.569  11.936  1.00  0.00     0.034 C 
HETATM    3  C5  UNL     1      27.550  67.930  11.694  1.00  0.00     0.022 C 
HETATM    4  C6  UNL     1      28.941  67.632  11.151  1.00  0.00     0.127 C 
HETATM    5  N2  UNL     1      28.871  66.202  10.779  1.00  0.00    -0.339 N 
HETATM    6  C7  UNL     1      29.420  65.670   9.607  1.00  0.00     0.242 C 
HETATM    7  O2  UNL     1      29.315  64.441   9.395  1.00  0.00    -0.271 OA
ENDROOT
BRANCH   1   8
HETATM    8  C2  UNL     1      27.776  64.249  11.818  1.00  0.00     0.121 C 
HETATM    9  S1  UNL     1      28.574  63.148  12.714  1.00  0.00    -0.061 SA
BRANCH   8  10
HETATM   10  N1  UNL     1      26.727  63.834  10.964  1.00  0.00    -0.258 N 
ATOM     11  H1  UNL     1      25.932  64.456  10.820  1.00  0.00     0.195 HD
BRANCH  10  12
HETATM   12  O1  UNL     1      26.744  62.626  10.325  1.00  0.00    -0.284 OA
HETATM   13  C1  UNL     1      25.551  62.475   9.631  1.00  0.00     0.237 C 
ENDBRANCH  10  12
ENDBRANCH   8  10
ENDBRANCH   1   8
BRANCH   6  14
HETATM   14  C8  UNL     1      30.128  66.468   8.579  1.00  0.00     0.172 C 
HETATM   15  C9  UNL     1      29.663  65.993   7.213  1.00  0.00     0.042 C 
BRANCH  14  16
HETATM   16  N3  UNL     1      31.562  66.210   8.604  1.00  0.00    -0.352 N 
HETATM   17  C10 UNL     1      32.372  66.985   7.734  1.00  0.00     0.182 C 
HETATM   18  N4  UNL     1      33.659  67.027   7.876  1.00  0.00    -0.374 N 
HETATM   19  N5  UNL     1      31.829  67.751   6.671  1.00  0.00    -0.064 NA
ATOM     20  H42 UNL     1      34.049  66.477   8.640  1.00  0.00     0.158 HD
ATOM     21  H41 UNL     1      34.242  67.585   7.250  1.00  0.00     0.158 HD
ATOM     22  H3  UNL     1      31.966  65.504   9.220  1.00  0.00     0.163 HD
ENDBRANCH  14  16
ENDBRANCH   6  14
TORSDOF 5
ENDMDL
MODEL 3
REMARK VINA RESULT: -6.407006300      2.584      5.890
REMARK  5 active torsions:
REMARK  status: ('A' for Active; 'I' for Inactive)
REMARK    1  A    between atoms: O1_2  and  N1_3 
REMARK    2  A    between atoms: N1_3  and  C2_5 
REMARK    3  A    between atoms: C2_5  and  C3_7 
REMARK       I    between atoms: N2_11  and  C7_12 
REMARK    4  A    between atoms: C7_12  and  C8_14 
REMARK    5  A    between atoms: C8_14  and  N3_16 
REMARK       I    between atoms: N3_16  and  C10_18 
ROOT
HETATM    1  C3  UNL     1      29.113  66.654   9.543  1.00  0.00     0.150 C 
HETATM    2  C4  UNL     1      29.583  67.651  10.623  1.00  0.00     0.034 C 
HETATM    3  C5  UNL     1      28.326  67.774  11.476  1.00  0.00     0.022 C 
HETATM    4  C6  UNL     1      27.452  66.590  11.083  1.00  0.00     0.127 C 
HETATM    5  N2  UNL     1      28.377  65.702  10.345  1.00  0.00    -0.339 N 
HETATM    6  C7  UNL     1      28.412  64.311  10.493  1.00  0.00     0.242 C 
HETATM    7  O2  UNL     1      29.227  63.653   9.809  1.00  0.00    -0.271 OA
ENDROOT
BRANCH   1   8
HETATM    8  C2  UNL     1      30.217  66.141   8.761  1.00  0.00     0.121 C 
HETATM    9  S1  UNL     1      30.043  65.929   7.156  1.00  0.00    -0.061 SA
BRANCH   8  10
HETATM   10  N1  UNL     1      31.448  65.823   9.382  1.00  0.00    -0.258 N 
ATOM     11  H1  UNL     1      31.555  64.910   9.826  1.00  0.00     0.195 HD
BRANCH  10  12
HETATM   12  O1  UNL     1      32.498  66.696   9.408  1.00  0.00    -0.284 OA
HETATM   13  C1  UNL     1      32.940  66.896   8.106  1.00  0.00     0.237 C 
ENDBRANCH  10  12
ENDBRANCH   8  10
ENDBRANCH   1   8
BRANCH   6  14
HETATM   14  C8  UNL     1      27.540  63.546  11.415  1.00  0.00     0.172 C 
HETATM   15  C9  UNL     1      28.430  62.816  12.406  1.00  0.00     0.042 C 
BRANCH  14  16
HETATM   16  N3  UNL     1      26.815  62.497  10.709  1.00  0.00    -0.352 N 
HETATM   17  C10 UNL     1      25.562  62.848  10.144  1.00  0.00     0.182 C 
HETATM   18  N4  UNL     1      24.978  62.082   9.278  1.00  0.00    -0.374 N 
HETATM   19  N5  UNL     1      24.880  64.043  10.489  1.00  0.00    -0.064 NA
ATOM     20  H42 UNL     1      25.468  61.222   9.031  1.00  0.00     0.158 HD
ATOM     21  H41 UNL     1      24.076  62.333   8.872  1.00  0.00     0.158 HD
ATOM     22  H3  UNL     1      27.193  61.553  10.624  1.00  0.00     0.163 HD
ENDBRANCH  14  16
ENDBRANCH   6  14
TORSDOF 5
ENDMDL
MODEL 4
REMARK VINA RESULT: -6.359263634      2.535      5.616
REMARK  5 active torsions:
REMARK  status: ('A' for Active; 'I' for Inactive)
REMARK    1  A    between atoms: O1_2  and  N1_3 
REMARK    2  A    between atoms: N1_3  and  C2_5 
REMARK    3  A    between atoms: C2_5  and  C3_7 
REMARK       I    between atoms: N2_11  and  C7_12 
REMARK    4  A    between atoms: C7_12  and  C8_14 
REMARK    5  A    between atoms: C8_14  and  N3_16 
REMARK       I    between atoms: N3_16  and  C10_18 
ROOT
HETATM    1  C3  UNL     1      29.207  66.630   9.652  1.00  0.00     0.150 C 
HETATM    2  C4  UNL     1      29.581  67.606  10.787  1.00  0.00     0.034 C 
HETATM    3  C5  UNL     1      28.260  67.698  11.542  1.00  0.00     0.022 C 
HETATM    4  C6  UNL     1      27.432  66.515  11.057  1.00  0.00     0.127 C 
HETATM    5  N2  UNL     1      28.421  65.653  10.374  1.00  0.00    -0.339 N 
HETATM    6  C7  UNL     1      28.460  64.260  10.494  1.00  0.00     0.242 C 
HETATM    7  O2  UNL     1      29.332  63.624   9.861  1.00  0.00    -0.271 OA
ENDROOT
BRANCH   1   8
HETATM    8  C2  UNL     1      30.373  66.145   8.947  1.00  0.00     0.121 C 
HETATM    9  S1  UNL     1      31.862  66.513   9.495  1.00  0.00    -0.061 SA
BRANCH   8  10
HETATM   10  N1  UNL     1      30.229  65.352   7.784  1.00  0.00    -0.258 N 
ATOM     11  H1  UNL     1      30.003  64.362   7.886  1.00  0.00     0.195 HD
BRANCH  10  12
HETATM   12  O1  UNL     1      30.380  65.868   6.528  1.00  0.00    -0.284 OA
HETATM   13  C1  UNL     1      29.128  66.211   6.035  1.00  0.00     0.237 C 
ENDBRANCH  10  12
ENDBRANCH   8  10
ENDBRANCH   1   8
BRANCH   6  14
HETATM   14  C8  UNL     1      27.527  63.466  11.328  1.00  0.00     0.172 C 
HETATM   15  C9  UNL     1      28.336  62.787  12.419  1.00  0.00     0.042 C 
BRANCH  14  16
HETATM   16  N3  UNL     1      26.929  62.378  10.564  1.00  0.00    -0.352 N 
HETATM   17  C10 UNL     1      25.634  62.604  10.028  1.00  0.00     0.182 C 
HETATM   18  N4  UNL     1      25.139  61.823   9.121  1.00  0.00    -0.374 N 
HETATM   19  N5  UNL     1      24.815  63.682  10.448  1.00  0.00    -0.064 NA
ATOM     20  H42 UNL     1      25.728  61.047   8.820  1.00  0.00     0.158 HD
ATOM     21  H41 UNL     1      24.208  61.985   8.735  1.00  0.00     0.158 HD
ATOM     22  H3  UNL     1      27.418  61.495  10.421  1.00  0.00     0.163 HD
ENDBRANCH  14  16
ENDBRANCH   6  14
TORSDOF 5
ENDMDL
MODEL 5
REMARK VINA RESULT: -6.349224727      2.214      3.214
REMARK  5 active torsions:
REMARK  status: ('A' for Active; 'I' for Inactive)
REMARK    1  A    between atoms: O1_2  and  N1_3 
REMARK    2  A    between atoms: N1_3  and  C2_5 
REMARK    3  A    between atoms: C2_5  and  C3_7 
REMARK       I    between atoms: N2_11  and  C7_12 
REMARK    4  A    between atoms: C7_12  and  C8_14 
REMARK    5  A    between atoms: C8_14  and  N3_16 
REMARK       I    between atoms: N3_16  and  C10_18 
ROOT
HETATM    1  C3  UNL     1      26.312  63.745  11.620  1.00  0.00     0.150 C 
HETATM    2  C4  UNL     1      26.921  63.523  13.020  1.00  0.00     0.034 C 
HETATM    3  C5  UNL     1      28.348  63.128  12.660  1.00  0.00     0.022 C 
HETATM    4  C6  UNL     1      28.531  63.548  11.207  1.00  0.00     0.127 C 
HETATM    5  N2  UNL     1      27.387  64.451  10.958  1.00  0.00    -0.339 N 
HETATM    6  C7  UNL     1      27.477  65.650  10.243  1.00  0.00     0.242 C 
HETATM    7  O2  UNL     1      26.442  66.334  10.079  1.00  0.00    -0.271 OA
ENDROOT
BRANCH   1   8
HETATM    8  C2  UNL     1      25.029  64.411  11.686  1.00  0.00     0.121 C 
HETATM    9  S1  UNL     1      24.609  65.230  13.029  1.00  0.00    -0.061 SA
BRANCH   8  10
HETATM   10  N1  UNL     1      24.137  64.355  10.589  1.00  0.00    -0.258 N 
ATOM     11  H1  UNL     1      23.379  65.037  10.535  1.00  0.00     0.195 HD
BRANCH  10  12
HETATM   12  O1  UNL     1      24.255  63.420   9.602  1.00  0.00    -0.284 OA
HETATM   13  C1  UNL     1      24.360  64.074   8.381  1.00  0.00     0.237 C 
ENDBRANCH  10  12
ENDBRANCH   8  10
ENDBRANCH   1   8
BRANCH   6  14
HETATM   14  C8  UNL     1      28.729  66.181   9.655  1.00  0.00     0.172 C 
HETATM   15  C9  UNL     1      29.382  67.089  10.683  1.00  0.00     0.042 C 
BRANCH  14  16
HETATM   16  N3  UNL     1      28.454  67.038   8.509  1.00  0.00    -0.352 N 
HETATM   17  C10 UNL     1      28.911  66.588   7.243  1.00  0.00     0.182 C 
HETATM   18  N4  UNL     1      28.485  67.127   6.146  1.00  0.00    -0.374 N 
HETATM   19  N5  UNL     1      29.849  65.533   7.105  1.00  0.00    -0.064 NA
ATOM     20  H42 UNL     1      27.811  67.886   6.245  1.00  0.00     0.158 HD
ATOM     21  H41 UNL     1      28.814  66.804   5.235  1.00  0.00     0.158 HD
ATOM     22  H3  UNL     1      27.954  67.921   8.612  1.00  0.00     0.163 HD
ENDBRANCH  14  16
ENDBRANCH   6  14
TORSDOF 5
ENDMDL
