MODEL 1
REMARK VINA RESULT: -8.941711813      0.000      0.000
REMARK  15 active torsions:
REMARK  status: ('A' for Active; 'I' for Inactive)
REMARK    1  A    between atoms: C2_2  and  C3_3 
REMARK    2  A    between atoms: C3_3  and  C4_4 
REMARK    3  A    between atoms: C4_4  and  C5_5 
REMARK    4  A    between atoms: C5_5  and  N1_6 
REMARK    5  A    between atoms: C5_5  and  C28_43 
REMARK    6  A    between atoms: N1_6  and  C6_7 
REMARK    7  A    between atoms: N4_15  and  C10_16 
REMARK    8  A    between atoms: C10_16  and  C11_17 
REMARK       I    between atoms: C11_17  and  N5_19 
REMARK    9  A    between atoms: C16_24  and  N6_25 
REMARK   10  A    between atoms: C18_29  and  C19_30 
REMARK   11  A    between atoms: C19_30  and  C20_31 
REMARK   12  A    between atoms: C20_31  and  C21_32 
REMARK   13  A    between atoms: C21_32  and  N7_33 
REMARK   14  A    between atoms: N7_33  and  C22_35 
REMARK   15  A    between atoms: C28_43  and  O3_45 
ROOT
HETATM    1  C6  UNL     1      16.517  23.239  15.590  1.00  0.00     0.187 A 
HETATM    2  N2  UNL     1      15.960  22.404  14.639  1.00  0.00    -0.328 N 
ATOM      3  H2  UNL     1      16.246  22.356  13.661  1.00  0.00     0.168 HD
HETATM    4  C7  UNL     1      15.002  21.677  15.187  1.00  0.00     0.073 A 
HETATM    5  C8  UNL     1      14.198  20.707  14.575  1.00  0.00     0.050 A 
HETATM    6  C9  UNL     1      14.377  20.412  13.140  1.00  0.00     0.072 C 
HETATM    7  N3  UNL     1      13.310  20.114  15.365  1.00  0.00    -0.299 N 
ATOM      8  H3  UNL     1      12.707  19.403  14.951  1.00  0.00     0.187 HD
HETATM    9  N4  UNL     1      13.155  20.377  16.626  1.00  0.00    -0.267 N 
HETATM   10  C16 UNL     1      13.921  21.314  17.254  1.00  0.00     0.129 A 
HETATM   11  C17 UNL     1      14.874  21.990  16.523  1.00  0.00     0.049 A 
HETATM   12  C18 UNL     1      15.828  22.976  16.784  1.00  0.00     0.017 A 
ENDROOT
BRANCH  12  13
HETATM   13  C19 UNL     1      15.973  23.556  18.110  1.00  0.00     0.046 C 
BRANCH  13  14
HETATM   14  C20 UNL     1      17.040  23.029  18.998  1.00  0.00     0.024 C 
BRANCH  14  15
HETATM   15  C21 UNL     1      17.659  24.269  19.703  1.00  0.00     0.121 C 
BRANCH  15  16
HETATM   16  N7  UNL     1      18.429  23.900  20.843  1.00  0.00    -0.376 N 
ATOM     17  H7  UNL     1      17.990  23.409  21.621  1.00  0.00     0.161 HD
BRANCH  16  18
HETATM   18  C22 UNL     1      19.682  24.190  20.887  1.00  0.00     0.106 A 
HETATM   19  N8  UNL     1      20.158  25.434  21.079  1.00  0.00    -0.352 N 
HETATM   20  C23 UNL     1      21.482  25.729  21.133  1.00  0.00     0.089 A 
ATOM     21  H8  UNL     1      19.488  26.196  21.190  1.00  0.00     0.166 HD
HETATM   22  C24 UNL     1      22.438  24.753  20.992  1.00  0.00     0.018 A 
HETATM   23  C25 UNL     1      21.998  23.466  20.793  1.00  0.00     0.012 A 
HETATM   24  C26 UNL     1      20.643  23.184  20.740  1.00  0.00    -0.018 A 
HETATM   25  C27 UNL     1      20.169  21.816  20.529  1.00  0.00     0.052 C 
ENDBRANCH  16  18
ENDBRANCH  15  16
ENDBRANCH  14  15
ENDBRANCH  13  14
ENDBRANCH  12  13
BRANCH   1  26
HETATM   26  N1  UNL     1      17.506  24.104  15.431  1.00  0.00    -0.385 NA
BRANCH  26  27
HETATM   27  C5  UNL     1      18.339  24.967  15.522  1.00  0.00     0.162 C 
BRANCH  27  28
HETATM   28  C4  UNL     1      18.482  26.115  14.534  1.00  0.00     0.079 C 
BRANCH  28  29
HETATM   29  C3  UNL     1      19.892  26.407  14.175  1.00  0.00     0.007 C 
BRANCH  29  30
HETATM   30  C2  UNL     1      20.178  27.882  14.420  1.00  0.00    -0.004 C 
HETATM   31  C1  UNL     1      21.454  28.328  13.748  1.00  0.00     0.005 C 
ENDBRANCH  29  30
ENDBRANCH  28  29
ENDBRANCH  27  28
BRANCH  27  32
HETATM   32  C28 UNL     1      19.290  24.991  16.625  1.00  0.00     0.319 C 
HETATM   33  O2  UNL     1      19.922  23.942  16.894  1.00  0.00    -0.257 OA
BRANCH  32  34
HETATM   34  O3  UNL     1      19.553  26.089  17.409  1.00  0.00    -0.321 OA
HETATM   35  C29 UNL     1      20.900  26.479  17.700  1.00  0.00     0.213 C 
ENDBRANCH  32  34
ENDBRANCH  27  32
ENDBRANCH  26  27
ENDBRANCH   1  26
BRANCH  10  36
HETATM   36  N6  UNL     1      13.730  21.521  18.461  1.00  0.00    -0.384 N 
ATOM     37  H62 UNL     1      12.877  21.236  18.942  1.00  0.00     0.157 HD
ATOM     38  H61 UNL     1      14.458  21.998  18.994  1.00  0.00     0.157 HD
ENDBRANCH  10  36
BRANCH   9  39
HETATM   39  C10 UNL     1      12.173  19.686  17.419  1.00  0.00     0.253 C 
BRANCH  39  40
HETATM   40  C11 UNL     1      11.222  19.008  16.506  1.00  0.00     0.239 C 
HETATM   41  O1  UNL     1      10.574  19.715  15.697  1.00  0.00    -0.271 OA
HETATM   42  N5  UNL     1      11.027  17.606  16.523  1.00  0.00    -0.351 N 
HETATM   43  C12 UNL     1      11.715  16.668  17.404  1.00  0.00     0.126 C 
HETATM   44  C15 UNL     1      10.129  16.828  15.702  1.00  0.00     0.126 C 
HETATM   45  C13 UNL     1      10.762  15.486  17.538  1.00  0.00     0.021 C 
HETATM   46  C14 UNL     1       9.536  15.890  16.751  1.00  0.00     0.021 C 
ENDBRANCH  39  40
ENDBRANCH   9  39
TORSDOF 15
ENDMDL
MODEL 2
REMARK VINA RESULT: -8.819676283      1.764      8.467
REMARK  15 active torsions:
REMARK  status: ('A' for Active; 'I' for Inactive)
REMARK    1  A    between atoms: C2_2  and  C3_3 
REMARK    2  A    between atoms: C3_3  and  C4_4 
REMARK    3  A    between atoms: C4_4  and  C5_5 
REMARK    4  A    between atoms: C5_5  and  N1_6 
REMARK    5  A    between atoms: C5_5  and  C28_43 
REMARK    6  A    between atoms: N1_6  and  C6_7 
REMARK    7  A    between atoms: N4_15  and  C10_16 
REMARK    8  A    between atoms: C10_16  and  C11_17 
REMARK       I    between atoms: C11_17  and  N5_19 
REMARK    9  A    between atoms: C16_24  and  N6_25 
REMARK   10  A    between atoms: C18_29  and  C19_30 
REMARK   11  A    between atoms: C19_30  and  C20_31 
REMARK   12  A    between atoms: C20_31  and  C21_32 
REMARK   13  A    between atoms: C21_32  and  N7_33 
REMARK   14  A    between atoms: N7_33  and  C22_35 
REMARK   15  A    between atoms: C28_43  and  O3_45 
ROOT
HETATM    1  C6  UNL     1      13.782  20.649  16.598  1.00  0.00     0.187 A 
HETATM    2  N2  UNL     1      14.266  20.797  15.312  1.00  0.00    -0.328 N 
ATOM      3  H2  UNL     1      14.026  20.197  14.522  1.00  0.00     0.168 HD
HETATM    4  C7  UNL     1      15.085  21.834  15.259  1.00  0.00     0.073 A 
HETATM    5  C8  UNL     1      15.778  22.328  14.147  1.00  0.00     0.050 A 
HETATM    6  C9  UNL     1      15.633  21.657  12.840  1.00  0.00     0.072 C 
HETATM    7  N3  UNL     1      16.534  23.397  14.370  1.00  0.00    -0.299 N 
ATOM      8  H3  UNL     1      17.053  23.784  13.581  1.00  0.00     0.187 HD
HETATM    9  N4  UNL     1      16.658  23.984  15.520  1.00  0.00    -0.267 N 
HETATM   10  C16 UNL     1      15.998  23.529  16.623  1.00  0.00     0.129 A 
HETATM   11  C17 UNL     1      15.186  22.422  16.500  1.00  0.00     0.049 A 
HETATM   12  C18 UNL     1      14.365  21.679  17.351  1.00  0.00     0.017 A 
ENDROOT
BRANCH  12  13
HETATM   13  C19 UNL     1      14.234  22.016  18.761  1.00  0.00     0.046 C 
BRANCH  13  14
HETATM   14  C20 UNL     1      14.754  21.056  19.767  1.00  0.00     0.024 C 
BRANCH  14  15
HETATM   15  C21 UNL     1      16.303  21.093  19.630  1.00  0.00     0.121 C 
BRANCH  15  16
HETATM   16  N7  UNL     1      16.836  22.365  19.983  1.00  0.00    -0.376 N 
ATOM     17  H7  UNL     1      16.220  23.172  20.071  1.00  0.00     0.161 HD
BRANCH  16  18
HETATM   18  C22 UNL     1      18.099  22.491  20.190  1.00  0.00     0.106 A 
HETATM   19  N8  UNL     1      19.000  21.518  19.954  1.00  0.00    -0.352 N 
HETATM   20  C23 UNL     1      20.332  21.664  20.167  1.00  0.00     0.089 A 
ATOM     21  H8  UNL     1      18.662  20.624  19.596  1.00  0.00     0.166 HD
HETATM   22  C24 UNL     1      20.855  22.839  20.648  1.00  0.00     0.018 A 
HETATM   23  C25 UNL     1      19.973  23.861  20.904  1.00  0.00     0.012 A 
HETATM   24  C26 UNL     1      18.616  23.695  20.681  1.00  0.00    -0.018 A 
HETATM   25  C27 UNL     1      17.673  24.780  20.952  1.00  0.00     0.052 C 
ENDBRANCH  16  18
ENDBRANCH  15  16
ENDBRANCH  14  15
ENDBRANCH  13  14
ENDBRANCH  12  13
BRANCH   1  26
HETATM   26  N1  UNL     1      12.930  19.738  17.045  1.00  0.00    -0.385 NA
BRANCH  26  27
HETATM   27  C5  UNL     1      12.001  19.011  17.275  1.00  0.00     0.162 C 
BRANCH  27  28
HETATM   28  C4  UNL     1      11.982  17.987  18.400  1.00  0.00     0.079 C 
BRANCH  28  29
HETATM   29  C3  UNL     1      13.332  17.495  18.769  1.00  0.00     0.007 C 
BRANCH  29  30
HETATM   30  C2  UNL     1      13.530  17.648  20.270  1.00  0.00    -0.004 C 
HETATM   31  C1  UNL     1      12.445  18.487  20.900  1.00  0.00     0.005 C 
ENDBRANCH  29  30
ENDBRANCH  28  29
ENDBRANCH  27  28
BRANCH  27  32
HETATM   32  C28 UNL     1      10.780  19.067  16.482  1.00  0.00     0.319 C 
HETATM   33  O2  UNL     1      10.080  20.107  16.533  1.00  0.00    -0.257 OA
BRANCH  32  34
HETATM   34  O3  UNL     1      10.325  18.054  15.671  1.00  0.00    -0.321 OA
HETATM   35  C29 UNL     1      10.867  17.863  14.360  1.00  0.00     0.213 C 
ENDBRANCH  32  34
ENDBRANCH  27  32
ENDBRANCH  26  27
ENDBRANCH   1  26
BRANCH  10  36
HETATM   36  N6  UNL     1      16.154  24.132  17.696  1.00  0.00    -0.384 N 
ATOM     37  H62 UNL     1      16.190  25.149  17.757  1.00  0.00     0.157 HD
ATOM     38  H61 UNL     1      16.250  23.584  18.551  1.00  0.00     0.157 HD
ENDBRANCH  10  36
BRANCH   9  39
HETATM   39  C10 UNL     1      17.493  25.144  15.682  1.00  0.00     0.253 C 
BRANCH  39  40
HETATM   40  C11 UNL     1      18.901  24.751  15.432  1.00  0.00     0.239 C 
HETATM   41  O1  UNL     1      19.256  23.591  15.754  1.00  0.00    -0.271 OA
HETATM   42  N5  UNL     1      19.841  25.635  14.851  1.00  0.00    -0.351 N 
HETATM   43  C12 UNL     1      19.565  27.002  14.426  1.00  0.00     0.126 C 
HETATM   44  C15 UNL     1      21.235  25.382  14.568  1.00  0.00     0.126 C 
HETATM   45  C13 UNL     1      20.907  27.719  14.513  1.00  0.00     0.021 C 
HETATM   46  C14 UNL     1      21.860  26.683  15.065  1.00  0.00     0.021 C 
ENDBRANCH  39  40
ENDBRANCH   9  39
TORSDOF 15
ENDMDL
MODEL 3
REMARK VINA RESULT: -8.741897007      2.070      2.790
REMARK  15 active torsions:
REMARK  status: ('A' for Active; 'I' for Inactive)
REMARK    1  A    between atoms: C2_2  and  C3_3 
REMARK    2  A    between atoms: C3_3  and  C4_4 
REMARK    3  A    between atoms: C4_4  and  C5_5 
REMARK    4  A    between atoms: C5_5  and  N1_6 
REMARK    5  A    between atoms: C5_5  and  C28_43 
REMARK    6  A    between atoms: N1_6  and  C6_7 
REMARK    7  A    between atoms: N4_15  and  C10_16 
REMARK    8  A    between atoms: C10_16  and  C11_17 
REMARK       I    between atoms: C11_17  and  N5_19 
REMARK    9  A    between atoms: C16_24  and  N6_25 
REMARK   10  A    between atoms: C18_29  and  C19_30 
REMARK   11  A    between atoms: C19_30  and  C20_31 
REMARK   12  A    between atoms: C20_31  and  C21_32 
REMARK   13  A    between atoms: C21_32  and  N7_33 
REMARK   14  A    between atoms: N7_33  and  C22_35 
REMARK   15  A    between atoms: C28_43  and  O3_45 
ROOT
HETATM    1  C6  UNL     1      18.379  24.283  16.229  1.00  0.00     0.187 A 
HETATM    2  N2  UNL     1      17.697  23.663  15.199  1.00  0.00    -0.328 N 
ATOM      3  H2  UNL     1      17.989  23.657  14.221  1.00  0.00     0.168 HD
HETATM    4  C7  UNL     1      16.610  23.078  15.671  1.00  0.00     0.073 A 
HETATM    5  C8  UNL     1      15.652  22.340  14.964  1.00  0.00     0.050 A 
HETATM    6  C9  UNL     1      15.803  22.157  13.507  1.00  0.00     0.072 C 
HETATM    7  N3  UNL     1      14.653  21.850  15.689  1.00  0.00    -0.299 N 
ATOM      8  H3  UNL     1      13.938  21.307  15.205  1.00  0.00     0.187 HD
HETATM    9  N4  UNL     1      14.524  22.013  16.970  1.00  0.00    -0.267 N 
HETATM   10  C16 UNL     1      15.437  22.726  17.689  1.00  0.00     0.129 A 
HETATM   11  C17 UNL     1      16.514  23.279  17.030  1.00  0.00     0.049 A 
HETATM   12  C18 UNL     1      17.629  24.040  17.389  1.00  0.00     0.017 A 
ENDROOT
BRANCH  12  13
HETATM   13  C19 UNL     1      17.853  24.452  18.767  1.00  0.00     0.046 C 
BRANCH  13  14
HETATM   14  C20 UNL     1      18.486  23.485  19.698  1.00  0.00     0.024 C 
BRANCH  14  15
HETATM   15  C21 UNL     1      19.061  24.333  20.868  1.00  0.00     0.121 C 
BRANCH  15  16
HETATM   16  N7  UNL     1      20.047  25.257  20.418  1.00  0.00    -0.376 N 
ATOM     17  H7  UNL     1      19.766  26.145  20.004  1.00  0.00     0.161 HD
BRANCH  16  18
HETATM   18  C22 UNL     1      21.294  24.965  20.536  1.00  0.00     0.106 A 
HETATM   19  N8  UNL     1      21.890  23.943  19.894  1.00  0.00    -0.352 N 
HETATM   20  C23 UNL     1      23.210  23.649  20.018  1.00  0.00     0.089 A 
ATOM     21  H8  UNL     1      21.320  23.358  19.283  1.00  0.00     0.166 HD
HETATM   22  C24 UNL     1      24.036  24.393  20.823  1.00  0.00     0.018 A 
HETATM   23  C25 UNL     1      23.471  25.449  21.499  1.00  0.00     0.012 A 
HETATM   24  C26 UNL     1      22.123  25.734  21.362  1.00  0.00    -0.018 A 
HETATM   25  C27 UNL     1      21.516  26.856  22.078  1.00  0.00     0.052 C 
ENDBRANCH  16  18
ENDBRANCH  15  16
ENDBRANCH  14  15
ENDBRANCH  13  14
ENDBRANCH  12  13
BRANCH   1  26
HETATM   26  N1  UNL     1      19.516  24.959  16.159  1.00  0.00    -0.385 NA
BRANCH  26  27
HETATM   27  C5  UNL     1      20.398  25.761  16.006  1.00  0.00     0.162 C 
BRANCH  27  28
HETATM   28  C4  UNL     1      20.862  26.265  14.647  1.00  0.00     0.079 C 
BRANCH  28  29
HETATM   29  C3  UNL     1      20.356  27.621  14.320  1.00  0.00     0.007 C 
BRANCH  29  30
HETATM   30  C2  UNL     1      21.478  28.439  13.698  1.00  0.00    -0.004 C 
HETATM   31  C1  UNL     1      22.502  28.865  14.722  1.00  0.00     0.005 C 
ENDBRANCH  29  30
ENDBRANCH  28  29
ENDBRANCH  27  28
BRANCH  27  32
HETATM   32  C28 UNL     1      21.100  26.343  17.142  1.00  0.00     0.319 C 
HETATM   33  O2  UNL     1      20.508  27.208  17.832  1.00  0.00    -0.257 OA
BRANCH  32  34
HETATM   34  O3  UNL     1      22.379  26.016  17.525  1.00  0.00    -0.321 OA
HETATM   35  C29 UNL     1      23.306  27.029  17.931  1.00  0.00     0.213 C 
ENDBRANCH  32  34
ENDBRANCH  27  32
ENDBRANCH  26  27
ENDBRANCH   1  26
BRANCH  10  36
HETATM   36  N6  UNL     1      15.263  22.847  18.910  1.00  0.00    -0.384 N 
ATOM     37  H62 UNL     1      14.468  22.437  19.398  1.00  0.00     0.157 HD
ATOM     38  H61 UNL     1      15.946  23.382  19.448  1.00  0.00     0.157 HD
ENDBRANCH  10  36
BRANCH   9  39
HETATM   39  C10 UNL     1      13.415  21.445  17.689  1.00  0.00     0.253 C 
BRANCH  39  40
HETATM   40  C11 UNL     1      13.450  19.972  17.523  1.00  0.00     0.239 C 
HETATM   41  O1  UNL     1      13.279  19.504  16.371  1.00  0.00    -0.271 OA
HETATM   42  N5  UNL     1      13.667  19.094  18.611  1.00  0.00    -0.351 N 
HETATM   43  C12 UNL     1      13.885  19.501  19.994  1.00  0.00     0.126 C 
HETATM   44  C15 UNL     1      13.712  17.651  18.587  1.00  0.00     0.126 C 
HETATM   45  C13 UNL     1      13.410  18.319  20.830  1.00  0.00     0.021 C 
HETATM   46  C14 UNL     1      12.876  17.326  19.823  1.00  0.00     0.021 C 
ENDBRANCH  39  40
ENDBRANCH   9  39
TORSDOF 15
ENDMDL
MODEL 4
REMARK VINA RESULT: -8.702742709      1.746      2.521
REMARK  15 active torsions:
REMARK  status: ('A' for Active; 'I' for Inactive)
REMARK    1  A    between atoms: C2_2  and  C3_3 
REMARK    2  A    between atoms: C3_3  and  C4_4 
REMARK    3  A    between atoms: C4_4  and  C5_5 
REMARK    4  A    between atoms: C5_5  and  N1_6 
REMARK    5  A    between atoms: C5_5  and  C28_43 
REMARK    6  A    between atoms: N1_6  and  C6_7 
REMARK    7  A    between atoms: N4_15  and  C10_16 
REMARK    8  A    between atoms: C10_16  and  C11_17 
REMARK       I    between atoms: C11_17  and  N5_19 
REMARK    9  A    between atoms: C16_24  and  N6_25 
REMARK   10  A    between atoms: C18_29  and  C19_30 
REMARK   11  A    between atoms: C19_30  and  C20_31 
REMARK   12  A    between atoms: C20_31  and  C21_32 
REMARK   13  A    between atoms: C21_32  and  N7_33 
REMARK   14  A    between atoms: N7_33  and  C22_35 
REMARK   15  A    between atoms: C28_43  and  O3_45 
ROOT
HETATM    1  C6  UNL     1      18.195  24.164  16.328  1.00  0.00     0.187 A 
HETATM    2  N2  UNL     1      17.498  23.500  15.336  1.00  0.00    -0.328 N 
ATOM      3  H2  UNL     1      17.732  23.516  14.344  1.00  0.00     0.168 HD
HETATM    4  C7  UNL     1      16.483  22.840  15.868  1.00  0.00     0.073 A 
HETATM    5  C8  UNL     1      15.540  22.039  15.214  1.00  0.00     0.050 A 
HETATM    6  C9  UNL     1      15.617  21.869  13.750  1.00  0.00     0.072 C 
HETATM    7  N3  UNL     1      14.621  21.479  15.994  1.00  0.00    -0.299 N 
ATOM      8  H3  UNL     1      13.918  20.889  15.550  1.00  0.00     0.187 HD
HETATM    9  N4  UNL     1      14.556  21.631  17.281  1.00  0.00    -0.267 N 
HETATM   10  C16 UNL     1      15.459  22.404  17.949  1.00  0.00     0.129 A 
HETATM   11  C17 UNL     1      16.455  23.032  17.232  1.00  0.00     0.049 A 
HETATM   12  C18 UNL     1      17.534  23.868  17.529  1.00  0.00     0.017 A 
ENDROOT
BRANCH  12  13
HETATM   13  C19 UNL     1      17.808  24.292  18.894  1.00  0.00     0.046 C 
BRANCH  13  14
HETATM   14  C20 UNL     1      18.595  23.387  19.769  1.00  0.00     0.024 C 
BRANCH  14  15
HETATM   15  C21 UNL     1      19.216  24.292  20.871  1.00  0.00     0.121 C 
BRANCH  15  16
HETATM   16  N7  UNL     1      20.144  25.226  20.329  1.00  0.00    -0.376 N 
ATOM     17  H7  UNL     1      19.809  26.075  19.874  1.00  0.00     0.161 HD
BRANCH  16  18
HETATM   18  C22 UNL     1      21.406  24.995  20.417  1.00  0.00     0.106 A 
HETATM   19  N8  UNL     1      22.048  24.052  19.702  1.00  0.00    -0.352 N 
HETATM   20  C23 UNL     1      23.383  23.822  19.796  1.00  0.00     0.089 A 
ATOM     21  H8  UNL     1      21.503  23.482  19.056  1.00  0.00     0.166 HD
HETATM   22  C24 UNL     1      24.177  24.552  20.645  1.00  0.00     0.018 A 
HETATM   23  C25 UNL     1      23.564  25.527  21.397  1.00  0.00     0.012 A 
HETATM   24  C26 UNL     1      22.201  25.748  21.289  1.00  0.00    -0.018 A 
HETATM   25  C27 UNL     1      21.544  26.783  22.086  1.00  0.00     0.052 C 
ENDBRANCH  16  18
ENDBRANCH  15  16
ENDBRANCH  14  15
ENDBRANCH  13  14
ENDBRANCH  12  13
BRANCH   1  26
HETATM   26  N1  UNL     1      19.276  24.918  16.196  1.00  0.00    -0.385 NA
BRANCH  26  27
HETATM   27  C5  UNL     1      20.097  25.764  15.958  1.00  0.00     0.162 C 
BRANCH  27  28
HETATM   28  C4  UNL     1      20.359  26.326  14.569  1.00  0.00     0.079 C 
BRANCH  28  29
HETATM   29  C3  UNL     1      20.224  27.802  14.498  1.00  0.00     0.007 C 
BRANCH  29  30
HETATM   30  C2  UNL     1      21.393  28.377  13.712  1.00  0.00    -0.004 C 
HETATM   31  C1  UNL     1      22.464  28.932  14.619  1.00  0.00     0.005 C 
ENDBRANCH  29  30
ENDBRANCH  28  29
ENDBRANCH  27  28
BRANCH  27  32
HETATM   32  C28 UNL     1      20.914  26.346  17.014  1.00  0.00     0.319 C 
HETATM   33  O2  UNL     1      20.386  27.175  17.792  1.00  0.00    -0.257 OA
BRANCH  32  34
HETATM   34  O3  UNL     1      22.241  26.055  17.228  1.00  0.00    -0.321 OA
HETATM   35  C29 UNL     1      23.124  27.028  17.797  1.00  0.00     0.213 C 
ENDBRANCH  32  34
ENDBRANCH  27  32
ENDBRANCH  26  27
ENDBRANCH   1  26
BRANCH  10  36
HETATM   36  N6  UNL     1      15.349  22.511  19.180  1.00  0.00    -0.384 N 
ATOM     37  H62 UNL     1      15.480  23.395  19.671  1.00  0.00     0.157 HD
ATOM     38  H61 UNL     1      15.119  21.678  19.722  1.00  0.00     0.157 HD
ENDBRANCH  10  36
BRANCH   9  39
HETATM   39  C10 UNL     1      13.534  20.986  18.060  1.00  0.00     0.253 C 
BRANCH  39  40
HETATM   40  C11 UNL     1      13.805  19.529  18.080  1.00  0.00     0.239 C 
HETATM   41  O1  UNL     1      14.984  19.145  17.884  1.00  0.00    -0.271 OA
HETATM   42  N5  UNL     1      12.786  18.573  18.310  1.00  0.00    -0.351 N 
HETATM   43  C12 UNL     1      11.382  18.878  18.555  1.00  0.00     0.126 C 
HETATM   44  C15 UNL     1      12.915  17.135  18.342  1.00  0.00     0.126 C 
HETATM   45  C13 UNL     1      10.624  17.643  18.086  1.00  0.00     0.021 C 
HETATM   46  C14 UNL     1      11.690  16.728  17.526  1.00  0.00     0.021 C 
ENDBRANCH  39  40
ENDBRANCH   9  39
TORSDOF 15
ENDMDL
MODEL 5
REMARK VINA RESULT: -8.659314430      2.447     10.944
REMARK  15 active torsions:
REMARK  status: ('A' for Active; 'I' for Inactive)
REMARK    1  A    between atoms: C2_2  and  C3_3 
REMARK    2  A    between atoms: C3_3  and  C4_4 
REMARK    3  A    between atoms: C4_4  and  C5_5 
REMARK    4  A    between atoms: C5_5  and  N1_6 
REMARK    5  A    between atoms: C5_5  and  C28_43 
REMARK    6  A    between atoms: N1_6  and  C6_7 
REMARK    7  A    between atoms: N4_15  and  C10_16 
REMARK    8  A    between atoms: C10_16  and  C11_17 
REMARK       I    between atoms: C11_17  and  N5_19 
REMARK    9  A    between atoms: C16_24  and  N6_25 
REMARK   10  A    between atoms: C18_29  and  C19_30 
REMARK   11  A    between atoms: C19_30  and  C20_31 
REMARK   12  A    between atoms: C20_31  and  C21_32 
REMARK   13  A    between atoms: C21_32  and  N7_33 
REMARK   14  A    between atoms: N7_33  and  C22_35 
REMARK   15  A    between atoms: C28_43  and  O3_45 
ROOT
HETATM    1  C6  UNL     1      14.134  20.386  17.031  1.00  0.00     0.187 A 
HETATM    2  N2  UNL     1      15.136  20.492  17.978  1.00  0.00    -0.328 N 
ATOM      3  H2  UNL     1      15.116  20.064  18.904  1.00  0.00     0.168 HD
HETATM    4  C7  UNL     1      16.125  21.229  17.502  1.00  0.00     0.073 A 
HETATM    5  C8  UNL     1      17.326  21.573  18.135  1.00  0.00     0.050 A 
HETATM    6  C9  UNL     1      17.588  21.096  19.508  1.00  0.00     0.072 C 
HETATM    7  N3  UNL     1      18.157  22.325  17.423  1.00  0.00    -0.299 N 
ATOM      8  H3  UNL     1      19.041  22.594  17.855  1.00  0.00     0.187 HD
HETATM    9  N4  UNL     1      17.923  22.742  16.217  1.00  0.00    -0.267 N 
HETATM   10  C16 UNL     1      16.764  22.426  15.571  1.00  0.00     0.129 A 
HETATM   11  C17 UNL     1      15.831  21.649  16.223  1.00  0.00     0.049 A 
HETATM   12  C18 UNL     1      14.575  21.120  15.919  1.00  0.00     0.017 A 
ENDROOT
BRANCH  12  13
HETATM   13  C19 UNL     1      13.939  21.370  14.635  1.00  0.00     0.046 C 
BRANCH  13  14
HETATM   14  C20 UNL     1      14.115  20.369  13.553  1.00  0.00     0.024 C 
BRANCH  14  15
HETATM   15  C21 UNL     1      12.708  19.756  13.306  1.00  0.00     0.121 C 
BRANCH  15  16
HETATM   16  N7  UNL     1      12.777  18.358  13.045  1.00  0.00    -0.376 N 
ATOM     17  H7  UNL     1      13.603  17.826  13.320  1.00  0.00     0.161 HD
BRANCH  16  18
HETATM   18  C22 UNL     1      11.794  17.769  12.461  1.00  0.00     0.106 A 
HETATM   19  N8  UNL     1      10.525  18.218  12.492  1.00  0.00    -0.352 N 
HETATM   20  C23 UNL     1       9.496  17.594  11.864  1.00  0.00     0.089 A 
ATOM     21  H8  UNL     1      10.328  19.071  13.014  1.00  0.00     0.166 HD
HETATM   22  C24 UNL     1       9.690  16.441  11.144  1.00  0.00     0.018 A 
HETATM   23  C25 UNL     1      10.971  15.945  11.085  1.00  0.00     0.012 A 
HETATM   24  C26 UNL     1      12.009  16.594  11.732  1.00  0.00    -0.018 A 
HETATM   25  C27 UNL     1      13.374  16.071  11.672  1.00  0.00     0.052 C 
ENDBRANCH  16  18
ENDBRANCH  15  16
ENDBRANCH  14  15
ENDBRANCH  13  14
ENDBRANCH  12  13
BRANCH   1  26
HETATM   26  N1  UNL     1      12.993  19.722  17.128  1.00  0.00    -0.385 NA
BRANCH  26  27
HETATM   27  C5  UNL     1      11.918  19.269  17.418  1.00  0.00     0.162 C 
BRANCH  27  28
HETATM   28  C4  UNL     1      11.585  18.680  18.781  1.00  0.00     0.079 C 
BRANCH  28  29
HETATM   29  C3  UNL     1      12.608  17.725  19.273  1.00  0.00     0.007 C 
BRANCH  29  30
HETATM   30  C2  UNL     1      12.869  17.985  20.750  1.00  0.00    -0.004 C 
HETATM   31  C1  UNL     1      13.863  19.102  20.959  1.00  0.00     0.005 C 
ENDBRANCH  29  30
ENDBRANCH  28  29
ENDBRANCH  27  28
BRANCH  27  32
HETATM   32  C28 UNL     1      10.814  19.266  16.468  1.00  0.00     0.319 C 
HETATM   33  O2  UNL     1      10.010  20.228  16.481  1.00  0.00    -0.257 OA
BRANCH  32  34
HETATM   34  O3  UNL     1      10.578  18.275  15.544  1.00  0.00    -0.321 OA
HETATM   35  C29 UNL     1      10.562  16.897  15.931  1.00  0.00     0.213 C 
ENDBRANCH  32  34
ENDBRANCH  27  32
ENDBRANCH  26  27
ENDBRANCH   1  26
BRANCH  10  36
HETATM   36  N6  UNL     1      16.596  22.851  14.418  1.00  0.00    -0.384 N 
ATOM     37  H62 UNL     1      17.203  22.593  13.641  1.00  0.00     0.157 HD
ATOM     38  H61 UNL     1      15.817  23.486  14.243  1.00  0.00     0.157 HD
ENDBRANCH  10  36
BRANCH   9  39
HETATM   39  C10 UNL     1      18.877  23.550  15.506  1.00  0.00     0.253 C 
BRANCH  39  40
HETATM   40  C11 UNL     1      19.043  24.832  16.231  1.00  0.00     0.239 C 
HETATM   41  O1  UNL     1      18.220  25.108  17.138  1.00  0.00    -0.271 OA
HETATM   42  N5  UNL     1      20.086  25.741  15.932  1.00  0.00    -0.351 N 
HETATM   43  C12 UNL     1      21.108  25.546  14.911  1.00  0.00     0.126 C 
HETATM   44  C15 UNL     1      20.348  27.020  16.550  1.00  0.00     0.126 C 
HETATM   45  C13 UNL     1      21.537  26.953  14.513  1.00  0.00     0.021 C 
HETATM   46  C14 UNL     1      20.643  27.869  15.317  1.00  0.00     0.021 C 
ENDBRANCH  39  40
ENDBRANCH   9  39
TORSDOF 15
ENDMDL
