MODEL 1
REMARK VINA RESULT: -8.723710183      0.000      0.000
REMARK  14 active torsions:
REMARK  status: ('A' for Active; 'I' for Inactive)
REMARK    1  A    between atoms: N1_2  and  C2_3 
REMARK    2  A    between atoms: C2_3  and  C3_4 
REMARK    3  A    between atoms: C3_4  and  C4_5 
REMARK    4  A    between atoms: C4_5  and  C5_6 
REMARK    5  A    between atoms: C5_6  and  C6_7 
REMARK    6  A    between atoms: C6_7  and  C7_8 
REMARK    7  A    between atoms: C7_8  and  N2_9 
REMARK    8  A    between atoms: C12_14  and  C13_15 
REMARK    9  A    between atoms: C14_16  and  C15_17 
REMARK   10  A    between atoms: C15_17  and  O1_18 
REMARK   11  A    between atoms: O1_18  and  C16_19 
REMARK   12  A    between atoms: C21_30  and  N6_31 
REMARK   13  A    between atoms: C24_36  and  C25_37 
REMARK   14  A    between atoms: C25_37  and  O4_38 
ROOT
HETATM    1  C16 UNL     1       5.001  60.474  21.679  1.00  0.00     0.109 A 
HETATM    2  C17 UNL     1       4.254  61.204  22.574  1.00  0.00     0.080 A 
HETATM    3  C18 UNL     1       3.371  62.153  22.069  1.00  0.00     0.118 A 
HETATM    4  C19 UNL     1       2.586  62.922  23.015  1.00  0.00     0.117 C 
HETATM    5  N3  UNL     1       1.943  63.533  23.768  1.00  0.00    -0.190 NA
HETATM    6  N4  UNL     1       3.256  62.344  20.746  1.00  0.00    -0.332 N 
ATOM      7  H4  UNL     1       2.602  63.047  20.402  1.00  0.00     0.168 HD
HETATM    8  C20 UNL     1       3.985  61.631  19.856  1.00  0.00     0.136 A 
HETATM    9  N5  UNL     1       3.852  61.836  18.596  1.00  0.00    -0.383 N 
ATOM     10  H51 UNL     1       4.400  61.299  17.925  1.00  0.00     0.157 HD
ATOM     11  H52 UNL     1       3.193  62.540  18.265  1.00  0.00     0.157 HD
HETATM   12  C21 UNL     1       4.867  60.688  20.299  1.00  0.00     0.179 A 
ENDROOT
BRANCH   1  13
HETATM   13  O1  UNL     1       5.879  59.537  22.099  1.00  0.00    -0.337 OA
BRANCH  13  14
HETATM   14  C15 UNL     1       7.020  59.646  22.855  1.00  0.00     0.269 C 
BRANCH  14  15
HETATM   15  C14 UNL     1       7.892  60.671  22.283  1.00  0.00    -0.074 C 
HETATM   16  C13 UNL     1       8.627  61.518  21.780  1.00  0.00    -0.065 C 
BRANCH  16  17
HETATM   17  C12 UNL     1       9.493  62.486  21.174  1.00  0.00     0.018 A 
HETATM   18  C11 UNL     1       9.165  63.821  21.138  1.00  0.00     0.021 A 
HETATM   19  C10 UNL     1      10.005  64.760  20.553  1.00  0.00     0.011 A 
HETATM   20  C9  UNL     1      11.185  64.376  19.996  1.00  0.00    -0.032 A 
HETATM   21  C8  UNL     1      12.259  65.153  19.314  1.00  0.00     0.162 C 
HETATM   22  C23 UNL     1      11.552  63.035  20.012  1.00  0.00    -0.024 A 
HETATM   23  N2  UNL     1      13.143  64.187  18.765  1.00  0.00    -0.378 N 
HETATM   24  C24 UNL     1      12.881  62.914  19.336  1.00  0.00     0.141 C 
HETATM   25  C22 UNL     1      10.716  62.135  20.590  1.00  0.00     0.030 A 
BRANCH  23  26
HETATM   26  C7  UNL     1      13.417  64.239  17.390  1.00  0.00     0.059 C 
BRANCH  26  27
HETATM   27  C6  UNL     1      12.246  64.838  16.634  1.00  0.00     0.044 C 
BRANCH  27  28
HETATM   28  C5  UNL     1      11.923  63.841  15.526  1.00  0.00     0.005 C 
BRANCH  28  29
HETATM   29  C4  UNL     1      10.767  63.007  15.961  1.00  0.00     0.002 C 
BRANCH  29  30
HETATM   30  C3  UNL     1      10.605  61.714  15.200  1.00  0.00     0.028 C 
BRANCH  30  31
HETATM   31  C2  UNL     1       9.133  61.378  15.171  1.00  0.00     0.237 C 
BRANCH  31  32
HETATM   32  N1  UNL     1       8.820  60.010  15.409  1.00  0.00    -0.067 N 
HETATM   33  C1  UNL     1       9.461  59.605  16.663  1.00  0.00     0.272 C 
HETATM   34  C26 UNL     1       9.136  59.117  14.320  1.00  0.00     0.263 C 
HETATM   35  C27 UNL     1       8.956  57.687  14.820  1.00  0.00     0.195 C 
HETATM   36  O5  UNL     1       7.963  57.570  15.762  1.00  0.00    -0.388 OA
HETATM   37  C28 UNL     1       6.943  58.465  15.552  1.00  0.00     0.195 C 
HETATM   38  C29 UNL     1       7.368  59.907  15.621  1.00  0.00     0.263 C 
ENDBRANCH  31  32
ENDBRANCH  30  31
ENDBRANCH  29  30
ENDBRANCH  28  29
ENDBRANCH  27  28
ENDBRANCH  26  27
ENDBRANCH  23  26
BRANCH  24  39
HETATM   39  C25 UNL     1      12.780  61.790  18.339  1.00  0.00     0.194 C 
BRANCH  39  40
HETATM   40  O4  UNL     1      13.446  60.665  18.855  1.00  0.00    -0.398 OA
ATOM     41  H4  UNL     1      13.104  59.886  18.432  1.00  0.00     0.209 HD
ENDBRANCH  39  40
ENDBRANCH  24  39
ENDBRANCH  16  17
ENDBRANCH  14  15
ENDBRANCH  13  14
ENDBRANCH   1  13
BRANCH  12  42
HETATM   42  N6  UNL     1       5.643  59.924  19.402  1.00  0.00    -0.109 N 
HETATM   43  O2  UNL     1       6.779  60.246  19.000  1.00  0.00    -0.532 OA
HETATM   44  O3  UNL     1       5.133  58.740  18.926  1.00  0.00    -0.532 OA
ENDBRANCH  12  42
TORSDOF 14
ENDMDL
MODEL 2
REMARK VINA RESULT: -8.694757996      2.690      5.622
REMARK  14 active torsions:
REMARK  status: ('A' for Active; 'I' for Inactive)
REMARK    1  A    between atoms: N1_2  and  C2_3 
REMARK    2  A    between atoms: C2_3  and  C3_4 
REMARK    3  A    between atoms: C3_4  and  C4_5 
REMARK    4  A    between atoms: C4_5  and  C5_6 
REMARK    5  A    between atoms: C5_6  and  C6_7 
REMARK    6  A    between atoms: C6_7  and  C7_8 
REMARK    7  A    between atoms: C7_8  and  N2_9 
REMARK    8  A    between atoms: C12_14  and  C13_15 
REMARK    9  A    between atoms: C14_16  and  C15_17 
REMARK   10  A    between atoms: C15_17  and  O1_18 
REMARK   11  A    between atoms: O1_18  and  C16_19 
REMARK   12  A    between atoms: C21_30  and  N6_31 
REMARK   13  A    between atoms: C24_36  and  C25_37 
REMARK   14  A    between atoms: C25_37  and  O4_38 
ROOT
HETATM    1  C16 UNL     1       6.019  58.899  16.140  1.00  0.00     0.109 A 
HETATM    2  C17 UNL     1       4.756  58.966  15.601  1.00  0.00     0.080 A 
HETATM    3  C18 UNL     1       3.703  59.319  16.440  1.00  0.00     0.118 A 
HETATM    4  C19 UNL     1       2.372  59.387  15.869  1.00  0.00     0.117 C 
HETATM    5  N3  UNL     1       1.304  59.457  15.414  1.00  0.00    -0.190 NA
HETATM    6  N4  UNL     1       3.923  59.585  17.736  1.00  0.00    -0.332 N 
ATOM      7  H4  UNL     1       3.134  59.841  18.330  1.00  0.00     0.168 HD
HETATM    8  C20 UNL     1       5.162  59.524  18.278  1.00  0.00     0.136 A 
HETATM    9  N5  UNL     1       5.341  59.787  19.521  1.00  0.00    -0.383 N 
ATOM     10  H51 UNL     1       6.274  59.741  19.930  1.00  0.00     0.157 HD
ATOM     11  H52 UNL     1       4.544  60.043  20.103  1.00  0.00     0.157 HD
HETATM   12  C21 UNL     1       6.229  59.182  17.498  1.00  0.00     0.179 A 
ENDROOT
BRANCH   1  13
HETATM   13  O1  UNL     1       7.087  58.562  15.384  1.00  0.00    -0.337 OA
BRANCH  13  14
HETATM   14  C15 UNL     1       7.775  59.271  14.431  1.00  0.00     0.269 C 
BRANCH  14  15
HETATM   15  C14 UNL     1       8.940  59.913  15.040  1.00  0.00    -0.074 C 
HETATM   16  C13 UNL     1       9.931  60.428  15.553  1.00  0.00    -0.065 C 
BRANCH  16  17
HETATM   17  C12 UNL     1      11.094  61.003  16.162  1.00  0.00     0.018 A 
HETATM   18  C11 UNL     1      11.432  60.728  17.466  1.00  0.00     0.021 A 
HETATM   19  C10 UNL     1      12.559  61.283  18.057  1.00  0.00     0.011 A 
HETATM   20  C9  UNL     1      13.364  62.122  17.351  1.00  0.00    -0.032 A 
HETATM   21  C8  UNL     1      14.612  62.846  17.724  1.00  0.00     0.162 C 
HETATM   22  C23 UNL     1      13.056  62.425  16.029  1.00  0.00    -0.024 A 
HETATM   23  N2  UNL     1      14.885  63.726  16.643  1.00  0.00    -0.378 N 
HETATM   24  C24 UNL     1      14.105  63.359  15.515  1.00  0.00     0.141 C 
HETATM   25  C22 UNL     1      11.949  61.870  15.472  1.00  0.00     0.030 A 
BRANCH  23  26
HETATM   26  C7  UNL     1      15.027  65.095  16.918  1.00  0.00     0.059 C 
BRANCH  26  27
HETATM   27  C6  UNL     1      14.669  65.391  18.361  1.00  0.00     0.044 C 
BRANCH  27  28
HETATM   28  C5  UNL     1      13.531  66.403  18.301  1.00  0.00     0.005 C 
BRANCH  28  29
HETATM   29  C4  UNL     1      12.242  65.663  18.201  1.00  0.00     0.002 C 
BRANCH  29  30
HETATM   30  C3  UNL     1      11.896  64.838  19.417  1.00  0.00     0.028 C 
BRANCH  30  31
HETATM   31  C2  UNL     1      10.645  64.053  19.100  1.00  0.00     0.237 C 
BRANCH  31  32
HETATM   32  N1  UNL     1       9.899  63.622  20.232  1.00  0.00    -0.067 N 
HETATM   33  C1  UNL     1      10.117  64.583  21.318  1.00  0.00     0.272 C 
HETATM   34  C26 UNL     1      10.155  62.263  20.646  1.00  0.00     0.263 C 
HETATM   35  C27 UNL     1       9.460  62.043  21.987  1.00  0.00     0.195 C 
HETATM   36  O5  UNL     1       8.304  62.774  22.117  1.00  0.00    -0.388 OA
HETATM   37  C28 UNL     1       7.662  62.944  20.915  1.00  0.00     0.195 C 
HETATM   38  C29 UNL     1       8.471  63.687  19.887  1.00  0.00     0.263 C 
ENDBRANCH  31  32
ENDBRANCH  30  31
ENDBRANCH  29  30
ENDBRANCH  28  29
ENDBRANCH  27  28
ENDBRANCH  26  27
ENDBRANCH  23  26
BRANCH  24  39
HETATM   39  C25 UNL     1      13.398  64.506  14.843  1.00  0.00     0.194 C 
BRANCH  39  40
HETATM   40  O4  UNL     1      13.569  64.393  13.453  1.00  0.00    -0.398 OA
ATOM     41  H4  UNL     1      13.536  65.261  13.068  1.00  0.00     0.209 HD
ENDBRANCH  39  40
ENDBRANCH  24  39
ENDBRANCH  16  17
ENDBRANCH  14  15
ENDBRANCH  13  14
ENDBRANCH   1  13
BRANCH  12  42
HETATM   42  N6  UNL     1       7.535  59.109  18.025  1.00  0.00    -0.109 N 
HETATM   43  O2  UNL     1       8.214  58.064  18.087  1.00  0.00    -0.532 OA
HETATM   44  O3  UNL     1       8.120  60.253  18.510  1.00  0.00    -0.532 OA
ENDBRANCH  12  42
TORSDOF 14
ENDMDL
MODEL 3
REMARK VINA RESULT: -8.614160586      2.805      9.535
REMARK  14 active torsions:
REMARK  status: ('A' for Active; 'I' for Inactive)
REMARK    1  A    between atoms: N1_2  and  C2_3 
REMARK    2  A    between atoms: C2_3  and  C3_4 
REMARK    3  A    between atoms: C3_4  and  C4_5 
REMARK    4  A    between atoms: C4_5  and  C5_6 
REMARK    5  A    between atoms: C5_6  and  C6_7 
REMARK    6  A    between atoms: C6_7  and  C7_8 
REMARK    7  A    between atoms: C7_8  and  N2_9 
REMARK    8  A    between atoms: C12_14  and  C13_15 
REMARK    9  A    between atoms: C14_16  and  C15_17 
REMARK   10  A    between atoms: C15_17  and  O1_18 
REMARK   11  A    between atoms: O1_18  and  C16_19 
REMARK   12  A    between atoms: C21_30  and  N6_31 
REMARK   13  A    between atoms: C24_36  and  C25_37 
REMARK   14  A    between atoms: C25_37  and  O4_38 
ROOT
HETATM    1  C16 UNL     1      14.532  64.689  16.887  1.00  0.00     0.109 A 
HETATM    2  C17 UNL     1      15.856  64.829  16.545  1.00  0.00     0.080 A 
HETATM    3  C18 UNL     1      16.476  66.047  16.812  1.00  0.00     0.118 A 
HETATM    4  C19 UNL     1      17.873  66.192  16.448  1.00  0.00     0.117 C 
HETATM    5  N3  UNL     1      18.996  66.310  16.172  1.00  0.00    -0.190 NA
HETATM    6  N4  UNL     1      15.795  67.048  17.387  1.00  0.00    -0.332 N 
ATOM      7  H4  UNL     1      16.272  67.931  17.571  1.00  0.00     0.168 HD
HETATM    8  C20 UNL     1      14.492  66.922  17.730  1.00  0.00     0.136 A 
HETATM    9  N5  UNL     1      13.867  67.898  18.280  1.00  0.00    -0.383 N 
ATOM     10  H51 UNL     1      12.885  67.803  18.539  1.00  0.00     0.157 HD
ATOM     11  H52 UNL     1      14.357  68.774  18.461  1.00  0.00     0.157 HD
HETATM   12  C21 UNL     1      13.836  65.749  17.489  1.00  0.00     0.179 A 
ENDROOT
BRANCH   1  13
HETATM   13  O1  UNL     1      13.866  63.536  16.657  1.00  0.00    -0.337 OA
BRANCH  13  14
HETATM   14  C15 UNL     1      13.664  62.830  15.497  1.00  0.00     0.269 C 
BRANCH  14  15
HETATM   15  C14 UNL     1      12.348  62.192  15.532  1.00  0.00    -0.074 C 
HETATM   16  C13 UNL     1      11.241  61.658  15.535  1.00  0.00    -0.065 C 
BRANCH  16  17
HETATM   17  C12 UNL     1       9.945  61.047  15.513  1.00  0.00     0.018 A 
HETATM   18  C11 UNL     1       9.017  61.368  14.551  1.00  0.00     0.021 A 
HETATM   19  C10 UNL     1       7.760  60.775  14.527  1.00  0.00     0.011 A 
HETATM   20  C9  UNL     1       7.416  59.853  15.466  1.00  0.00    -0.032 A 
HETATM   21  C8  UNL     1       6.164  59.073  15.678  1.00  0.00     0.162 C 
HETATM   22  C23 UNL     1       8.328  59.503  16.456  1.00  0.00    -0.024 A 
HETATM   23  N2  UNL     1       6.320  58.427  16.932  1.00  0.00    -0.378 N 
HETATM   24  C24 UNL     1       7.680  58.481  17.336  1.00  0.00     0.141 C 
HETATM   25  C22 UNL     1       9.550  60.094  16.459  1.00  0.00     0.030 A 
BRANCH  23  26
HETATM   26  C7  UNL     1       5.341  58.635  17.915  1.00  0.00     0.059 C 
BRANCH  26  27
HETATM   27  C6  UNL     1       4.449  59.804  17.543  1.00  0.00     0.044 C 
BRANCH  27  28
HETATM   28  C5  UNL     1       3.893  60.330  18.861  1.00  0.00     0.005 C 
BRANCH  28  29
HETATM   29  C4  UNL     1       4.979  60.297  19.881  1.00  0.00     0.002 C 
BRANCH  29  30
HETATM   30  C3  UNL     1       5.684  61.616  20.090  1.00  0.00     0.028 C 
BRANCH  30  31
HETATM   31  C2  UNL     1       6.645  61.445  21.243  1.00  0.00     0.237 C 
BRANCH  31  32
HETATM   32  N1  UNL     1       7.927  62.033  21.052  1.00  0.00    -0.067 N 
HETATM   33  C1  UNL     1       8.046  62.427  19.644  1.00  0.00     0.272 C 
HETATM   34  C26 UNL     1       9.039  61.223  21.488  1.00  0.00     0.263 C 
HETATM   35  C27 UNL     1      10.324  61.892  21.007  1.00  0.00     0.195 C 
HETATM   36  O5  UNL     1      10.229  63.261  20.961  1.00  0.00    -0.388 OA
HETATM   37  C28 UNL     1       9.403  63.756  21.940  1.00  0.00     0.195 C 
HETATM   38  C29 UNL     1       7.982  63.271  21.845  1.00  0.00     0.263 C 
ENDBRANCH  31  32
ENDBRANCH  30  31
ENDBRANCH  29  30
ENDBRANCH  28  29
ENDBRANCH  27  28
ENDBRANCH  26  27
ENDBRANCH  23  26
BRANCH  24  39
HETATM   39  C25 UNL     1       7.893  58.914  18.763  1.00  0.00     0.194 C 
BRANCH  39  40
HETATM   40  O4  UNL     1       8.568  57.892  19.451  1.00  0.00    -0.398 OA
ATOM     41  H4  UNL     1       9.493  57.938  19.239  1.00  0.00     0.209 HD
ENDBRANCH  39  40
ENDBRANCH  24  39
ENDBRANCH  16  17
ENDBRANCH  14  15
ENDBRANCH  13  14
ENDBRANCH   1  13
BRANCH  12  42
HETATM   42  N6  UNL     1      12.479  65.577  17.833  1.00  0.00    -0.109 N 
HETATM   43  O2  UNL     1      11.524  65.751  17.048  1.00  0.00    -0.532 OA
HETATM   44  O3  UNL     1      12.162  65.194  19.113  1.00  0.00    -0.532 OA
ENDBRANCH  12  42
TORSDOF 14
ENDMDL
MODEL 4
REMARK VINA RESULT: -8.436469915      3.167      9.133
REMARK  14 active torsions:
REMARK  status: ('A' for Active; 'I' for Inactive)
REMARK    1  A    between atoms: N1_2  and  C2_3 
REMARK    2  A    between atoms: C2_3  and  C3_4 
REMARK    3  A    between atoms: C3_4  and  C4_5 
REMARK    4  A    between atoms: C4_5  and  C5_6 
REMARK    5  A    between atoms: C5_6  and  C6_7 
REMARK    6  A    between atoms: C6_7  and  C7_8 
REMARK    7  A    between atoms: C7_8  and  N2_9 
REMARK    8  A    between atoms: C12_14  and  C13_15 
REMARK    9  A    between atoms: C14_16  and  C15_17 
REMARK   10  A    between atoms: C15_17  and  O1_18 
REMARK   11  A    between atoms: O1_18  and  C16_19 
REMARK   12  A    between atoms: C21_30  and  N6_31 
REMARK   13  A    between atoms: C24_36  and  C25_37 
REMARK   14  A    between atoms: C25_37  and  O4_38 
ROOT
HETATM    1  C16 UNL     1      14.991  65.643  16.865  1.00  0.00     0.109 A 
HETATM    2  C17 UNL     1      15.736  66.391  17.746  1.00  0.00     0.080 A 
HETATM    3  C18 UNL     1      17.092  66.558  17.480  1.00  0.00     0.118 A 
HETATM    4  C19 UNL     1      17.874  67.347  18.412  1.00  0.00     0.117 C 
HETATM    5  N3  UNL     1      18.505  67.990  19.149  1.00  0.00    -0.190 NA
HETATM    6  N4  UNL     1      17.648  66.003  16.394  1.00  0.00    -0.332 N 
ATOM      7  H4  UNL     1      18.644  66.140  16.223  1.00  0.00     0.168 HD
HETATM    8  C20 UNL     1      16.926  65.266  15.519  1.00  0.00     0.136 A 
HETATM    9  N5  UNL     1      17.486  64.749  14.487  1.00  0.00    -0.383 N 
ATOM     10  H51 UNL     1      16.942  64.193  13.827  1.00  0.00     0.157 HD
ATOM     11  H52 UNL     1      18.483  64.895  14.327  1.00  0.00     0.157 HD
HETATM   12  C21 UNL     1      15.592  65.070  15.733  1.00  0.00     0.179 A 
ENDROOT
BRANCH   1  13
HETATM   13  O1  UNL     1      13.670  65.438  17.061  1.00  0.00    -0.337 OA
BRANCH  13  14
HETATM   14  C15 UNL     1      12.745  66.152  17.780  1.00  0.00     0.269 C 
BRANCH  14  15
HETATM   15  C14 UNL     1      11.945  65.239  18.596  1.00  0.00    -0.074 C 
HETATM   16  C13 UNL     1      11.285  64.451  19.271  1.00  0.00    -0.065 C 
BRANCH  16  17
HETATM   17  C12 UNL     1      10.522  63.512  20.038  1.00  0.00     0.018 A 
HETATM   18  C11 UNL     1      11.132  62.549  20.807  1.00  0.00     0.021 A 
HETATM   19  C10 UNL     1      10.393  61.638  21.552  1.00  0.00     0.011 A 
HETATM   20  C9  UNL     1       9.034  61.680  21.538  1.00  0.00    -0.032 A 
HETATM   21  C8  UNL     1       8.009  60.845  22.227  1.00  0.00     0.162 C 
HETATM   22  C23 UNL     1       8.380  62.638  20.772  1.00  0.00    -0.024 A 
HETATM   23  N2  UNL     1       6.761  61.227  21.667  1.00  0.00    -0.378 N 
HETATM   24  C24 UNL     1       6.907  62.443  20.949  1.00  0.00     0.141 C 
HETATM   25  C22 UNL     1       9.122  63.518  20.052  1.00  0.00     0.030 A 
BRANCH  23  26
HETATM   26  C7  UNL     1       5.951  60.231  21.102  1.00  0.00     0.059 C 
BRANCH  26  27
HETATM   27  C6  UNL     1       6.799  59.091  20.569  1.00  0.00     0.044 C 
BRANCH  27  28
HETATM   28  C5  UNL     1       6.437  58.969  19.093  1.00  0.00     0.005 C 
BRANCH  28  29
HETATM   29  C4  UNL     1       7.690  58.758  18.314  1.00  0.00     0.002 C 
BRANCH  29  30
HETATM   30  C3  UNL     1       8.572  59.978  18.201  1.00  0.00     0.028 C 
BRANCH  30  31
HETATM   31  C2  UNL     1       8.720  60.304  16.734  1.00  0.00     0.237 C 
BRANCH  31  32
HETATM   32  N1  UNL     1       9.970  60.877  16.366  1.00  0.00    -0.067 N 
HETATM   33  C1  UNL     1      10.469  60.167  15.185  1.00  0.00     0.272 C 
HETATM   34  C26 UNL     1      10.948  60.932  17.425  1.00  0.00     0.263 C 
HETATM   35  C27 UNL     1      12.280  61.353  16.811  1.00  0.00     0.195 C 
HETATM   36  O5  UNL     1      12.132  62.198  15.738  1.00  0.00    -0.388 OA
HETATM   37  C28 UNL     1      11.033  63.011  15.869  1.00  0.00     0.195 C 
HETATM   38  C29 UNL     1       9.727  62.268  15.954  1.00  0.00     0.263 C 
ENDBRANCH  31  32
ENDBRANCH  30  31
ENDBRANCH  29  30
ENDBRANCH  28  29
ENDBRANCH  27  28
ENDBRANCH  26  27
ENDBRANCH  23  26
BRANCH  24  39
HETATM   39  C25 UNL     1       6.284  62.439  19.579  1.00  0.00     0.194 C 
BRANCH  39  40
HETATM   40  O4  UNL     1       5.110  63.211  19.612  1.00  0.00    -0.398 OA
ATOM     41  H4  UNL     1       5.348  64.128  19.678  1.00  0.00     0.209 HD
ENDBRANCH  39  40
ENDBRANCH  24  39
ENDBRANCH  16  17
ENDBRANCH  14  15
ENDBRANCH  13  14
ENDBRANCH   1  13
BRANCH  12  42
HETATM   42  N6  UNL     1      14.805  64.309  14.844  1.00  0.00    -0.109 N 
HETATM   43  O2  UNL     1      13.888  64.774  14.137  1.00  0.00    -0.532 OA
HETATM   44  O3  UNL     1      15.045  62.961  14.731  1.00  0.00    -0.532 OA
ENDBRANCH  12  42
TORSDOF 14
ENDMDL
MODEL 5
REMARK VINA RESULT: -8.292719518      5.001     11.098
REMARK  14 active torsions:
REMARK  status: ('A' for Active; 'I' for Inactive)
REMARK    1  A    between atoms: N1_2  and  C2_3 
REMARK    2  A    between atoms: C2_3  and  C3_4 
REMARK    3  A    between atoms: C3_4  and  C4_5 
REMARK    4  A    between atoms: C4_5  and  C5_6 
REMARK    5  A    between atoms: C5_6  and  C6_7 
REMARK    6  A    between atoms: C6_7  and  C7_8 
REMARK    7  A    between atoms: C7_8  and  N2_9 
REMARK    8  A    between atoms: C12_14  and  C13_15 
REMARK    9  A    between atoms: C14_16  and  C15_17 
REMARK   10  A    between atoms: C15_17  and  O1_18 
REMARK   11  A    between atoms: O1_18  and  C16_19 
REMARK   12  A    between atoms: C21_30  and  N6_31 
REMARK   13  A    between atoms: C24_36  and  C25_37 
REMARK   14  A    between atoms: C25_37  and  O4_38 
ROOT
HETATM    1  C16 UNL     1      19.175  66.779  15.465  1.00  0.00     0.109 A 
HETATM    2  C17 UNL     1      18.893  66.655  16.805  1.00  0.00     0.080 A 
HETATM    3  C18 UNL     1      18.257  67.717  17.442  1.00  0.00     0.118 A 
HETATM    4  C19 UNL     1      17.962  67.582  18.856  1.00  0.00     0.117 C 
HETATM    5  N3  UNL     1      17.710  67.475  19.986  1.00  0.00    -0.190 NA
HETATM    6  N4  UNL     1      17.933  68.825  16.762  1.00  0.00    -0.332 N 
ATOM      7  H4  UNL     1      17.468  69.590  17.252  1.00  0.00     0.168 HD
HETATM    8  C20 UNL     1      18.204  68.960  15.443  1.00  0.00     0.136 A 
HETATM    9  N5  UNL     1      17.880  70.032  14.819  1.00  0.00    -0.383 N 
ATOM     10  H51 UNL     1      18.084  70.134  13.825  1.00  0.00     0.157 HD
ATOM     11  H52 UNL     1      17.414  70.788  15.321  1.00  0.00     0.157 HD
HETATM   12  C21 UNL     1      18.828  67.948  14.771  1.00  0.00     0.179 A 
ENDROOT
BRANCH   1  13
HETATM   13  O1  UNL     1      19.792  65.789  14.783  1.00  0.00    -0.337 OA
BRANCH  13  14
HETATM   14  C15 UNL     1      19.289  64.826  13.944  1.00  0.00     0.269 C 
BRANCH  14  15
HETATM   15  C14 UNL     1      17.917  64.501  14.333  1.00  0.00    -0.074 C 
HETATM   16  C13 UNL     1      16.755  64.242  14.638  1.00  0.00    -0.065 C 
BRANCH  16  17
HETATM   17  C12 UNL     1      15.391  63.963  14.978  1.00  0.00     0.018 A 
HETATM   18  C11 UNL     1      14.410  63.898  14.017  1.00  0.00     0.021 A 
HETATM   19  C10 UNL     1      13.088  63.626  14.345  1.00  0.00     0.011 A 
HETATM   20  C9  UNL     1      12.730  63.414  15.640  1.00  0.00    -0.032 A 
HETATM   21  C8  UNL     1      11.413  63.108  16.267  1.00  0.00     0.162 C 
HETATM   22  C23 UNL     1      13.693  63.472  16.641  1.00  0.00    -0.024 A 
HETATM   23  N2  UNL     1      11.623  63.199  17.668  1.00  0.00    -0.378 N 
HETATM   24  C24 UNL     1      13.016  63.203  17.947  1.00  0.00     0.141 C 
HETATM   25  C22 UNL     1      14.979  63.739  16.297  1.00  0.00     0.030 A 
BRANCH  23  26
HETATM   26  C7  UNL     1      10.809  64.068  18.410  1.00  0.00     0.059 C 
BRANCH  26  27
HETATM   27  C6  UNL     1       9.796  63.286  19.225  1.00  0.00     0.044 C 
BRANCH  27  28
HETATM   28  C5  UNL     1      10.352  63.252  20.644  1.00  0.00     0.005 C 
BRANCH  28  29
HETATM   29  C4  UNL     1       9.366  63.897  21.555  1.00  0.00     0.002 C 
BRANCH  29  30
HETATM   30  C3  UNL     1       8.152  63.055  21.865  1.00  0.00     0.028 C 
BRANCH  30  31
HETATM   31  C2  UNL     1       8.604  61.617  21.966  1.00  0.00     0.237 C 
BRANCH  31  32
HETATM   32  N1  UNL     1       7.714  60.663  21.398  1.00  0.00    -0.067 N 
HETATM   33  C1  UNL     1       7.377  59.679  22.430  1.00  0.00     0.272 C 
HETATM   34  C26 UNL     1       8.184  60.041  20.183  1.00  0.00     0.263 C 
HETATM   35  C27 UNL     1       7.230  58.900  19.841  1.00  0.00     0.195 C 
HETATM   36  O5  UNL     1       5.936  59.149  20.230  1.00  0.00    -0.388 OA
HETATM   37  C28 UNL     1       5.623  60.484  20.160  1.00  0.00     0.195 C 
HETATM   38  C29 UNL     1       6.465  61.358  21.050  1.00  0.00     0.263 C 
ENDBRANCH  31  32
ENDBRANCH  30  31
ENDBRANCH  29  30
ENDBRANCH  28  29
ENDBRANCH  27  28
ENDBRANCH  26  27
ENDBRANCH  23  26
BRANCH  24  39
HETATM   39  C25 UNL     1      13.457  64.270  18.913  1.00  0.00     0.194 C 
BRANCH  39  40
HETATM   40  O4  UNL     1      14.560  63.794  19.642  1.00  0.00    -0.398 OA
ATOM     41  H4  UNL     1      15.273  64.416  19.561  1.00  0.00     0.209 HD
ENDBRANCH  39  40
ENDBRANCH  24  39
ENDBRANCH  16  17
ENDBRANCH  14  15
ENDBRANCH  13  14
ENDBRANCH   1  13
BRANCH  12  42
HETATM   42  N6  UNL     1      19.127  68.049  13.396  1.00  0.00    -0.109 N 
HETATM   43  O2  UNL     1      20.231  68.403  12.937  1.00  0.00    -0.532 OA
HETATM   44  O3  UNL     1      18.150  67.742  12.480  1.00  0.00    -0.532 OA
ENDBRANCH  12  42
TORSDOF 14
ENDMDL
