MODEL 1
REMARK VINA RESULT: -9.108750322      0.000      0.000
REMARK  12 active torsions:
REMARK  status: ('A' for Active; 'I' for Inactive)
REMARK    1  A    between atoms: C2_2  and  C3_3 
REMARK    2  A    between atoms: C3_3  and  N1_4 
REMARK    3  A    between atoms: C6_8  and  C7_9 
REMARK    4  A    between atoms: N3_15  and  C11_17 
REMARK    5  A    between atoms: C13_21  and  N5_22 
REMARK    6  A    between atoms: N5_22  and  C14_23 
REMARK       I    between atoms: N5_22  and  C20_32 
REMARK    7  A    between atoms: C14_23  and  C15_24 
REMARK       I    between atoms: C15_24  and  N6_26 
REMARK    8  A    between atoms: N6_26  and  C16_28 
REMARK    9  A    between atoms: C20_32  and  C21_34 
REMARK   10  A    between atoms: C24_37  and  O3_38 
REMARK   11  A    between atoms: O3_38  and  C25_39 
REMARK   12  A    between atoms: C25_39  and  C26_40 
ROOT
HETATM    1  C11 UNL     1      13.926  63.890  17.904  1.00  0.00     0.098 A 
HETATM    2  C12 UNL     1      14.902  64.125  18.830  1.00  0.00     0.122 A 
HETATM    3  N4  UNL     1      15.841  65.046  18.645  1.00  0.00    -0.350 N 
ATOM      4  H4  UNL     1      16.543  65.174  19.373  1.00  0.00     0.166 HD
HETATM    5  C13 UNL     1      15.914  65.830  17.530  1.00  0.00     0.113 A 
HETATM    6  C23 UNL     1      14.935  65.606  16.584  1.00  0.00     0.087 A 
HETATM    7  C24 UNL     1      13.925  64.658  16.717  1.00  0.00     0.101 A 
ENDROOT
BRANCH   1   8
HETATM    8  N3  UNL     1      12.924  62.891  18.099  1.00  0.00    -0.188 N 
HETATM    9  C10 UNL     1      11.947  63.140  18.902  1.00  0.00     0.683 A 
HETATM   10  N2  UNL     1      11.899  64.329  19.534  1.00  0.00    -0.202 N 
HETATM   11  N7  UNL     1      10.959  62.243  19.102  1.00  0.00    -0.189 N 
HETATM   12  C9  UNL     1      10.898  64.651  20.361  1.00  0.00     0.108 A 
ATOM     13  H2  UNL     1      12.647  65.003  19.377  1.00  0.00     0.183 HD
HETATM   14  C8  UNL     1       9.902  63.714  20.545  1.00  0.00     0.050 A 
HETATM   15  C7  UNL     1       9.926  62.491  19.910  1.00  0.00     0.077 A 
ATOM     16  H7  UNL     1      11.004  61.345  18.619  1.00  0.00     0.184 HD
ATOM     17  H3  UNL     1      12.980  61.997  17.611  1.00  0.00     0.184 HD
BRANCH  15  18
HETATM   18  C6  UNL     1       8.838  61.537  20.110  1.00  0.00     0.064 A 
HETATM   19  C5  UNL     1       7.982  61.184  19.096  1.00  0.00     0.080 A 
HETATM   20  C4  UNL     1       6.929  60.286  19.321  1.00  0.00     0.104 A 
HETATM   21  N1  UNL     1       6.159  59.995  18.347  1.00  0.00    -0.373 N 
HETATM   22  N9  UNL     1       6.731  59.746  20.536  1.00  0.00    -0.333 N 
ATOM     23  H1  UNL     1       6.365  60.442  17.454  1.00  0.00     0.161 HD
HETATM   24  C28 UNL     1       7.591  60.110  21.515  1.00  0.00     0.079 A 
ATOM     25  H9  UNL     1       5.969  59.091  20.712  1.00  0.00     0.168 HD
HETATM   26  N8  UNL     1       8.597  60.968  21.308  1.00  0.00    -0.344 N 
HETATM   27  C29 UNL     1       7.382  59.520  22.862  1.00  0.00     0.089 C 
ATOM     28  H8  UNL     1       9.209  61.201  22.089  1.00  0.00     0.167 HD
BRANCH  21  29
HETATM   29  C3  UNL     1       5.046  59.115  18.376  1.00  0.00     0.147 C 
BRANCH  29  30
HETATM   30  C2  UNL     1       4.725  58.542  17.038  1.00  0.00    -0.018 C 
HETATM   31  C1  UNL     1       5.064  59.074  15.886  1.00  0.00     0.008 C 
ENDBRANCH  29  30
ENDBRANCH  21  29
ENDBRANCH  15  18
ENDBRANCH   1   8
BRANCH   7  32
HETATM   32  O3  UNL     1      12.952  64.432  15.792  1.00  0.00    -0.349 OA
BRANCH  32  33
HETATM   33  C25 UNL     1      12.801  63.581  14.736  1.00  0.00     0.175 C 
BRANCH  33  34
HETATM   34  C26 UNL     1      13.957  63.428  13.801  1.00  0.00     0.022 C 
HETATM   35  C27 UNL     1      13.976  64.606  12.814  1.00  0.00     0.007 C 
ENDBRANCH  33  34
ENDBRANCH  32  33
ENDBRANCH   7  32
BRANCH   5  36
HETATM   36  N5  UNL     1      16.962  66.770  17.416  1.00  0.00    -0.291 N 
HETATM   37  C20 UNL     1      16.931  68.036  18.017  1.00  0.00     0.248 C 
HETATM   38  O2  UNL     1      17.970  68.771  17.786  1.00  0.00    -0.268 OA
BRANCH  36  39
HETATM   39  C14 UNL     1      18.124  66.382  16.606  1.00  0.00     0.236 C 
BRANCH  39  40
HETATM   40  C15 UNL     1      17.987  66.659  15.184  1.00  0.00     0.236 C 
HETATM   41  O1  UNL     1      17.922  65.681  14.392  1.00  0.00    -0.272 OA
HETATM   42  N6  UNL     1      17.922  67.949  14.621  1.00  0.00    -0.352 N 
ATOM     43  H6  UNL     1      17.967  68.751  15.250  1.00  0.00     0.163 HD
BRANCH  42  44
HETATM   44  C16 UNL     1      17.794  68.200  13.200  1.00  0.00     0.022 C 
HETATM   45  C17 UNL     1      19.034  67.864  12.420  1.00  0.00     0.037 C 
HETATM   46  C18 UNL     1      17.540  69.708  13.062  1.00  0.00     0.037 C 
HETATM   47  C19 UNL     1      16.576  67.505  12.624  1.00  0.00     0.037 C 
ENDBRANCH  42  44
ENDBRANCH  39  40
ENDBRANCH  36  39
BRANCH  37  48
HETATM   48  C21 UNL     1      15.904  68.610  18.843  1.00  0.00     0.064 C 
HETATM   49  C22 UNL     1      15.940  68.356  20.179  1.00  0.00     0.017 C 
ENDBRANCH  37  48
ENDBRANCH   5  36
TORSDOF 12
ENDMDL
MODEL 2
REMARK VINA RESULT: -9.077047657      2.845     10.704
REMARK  12 active torsions:
REMARK  status: ('A' for Active; 'I' for Inactive)
REMARK    1  A    between atoms: C2_2  and  C3_3 
REMARK    2  A    between atoms: C3_3  and  N1_4 
REMARK    3  A    between atoms: C6_8  and  C7_9 
REMARK    4  A    between atoms: N3_15  and  C11_17 
REMARK    5  A    between atoms: C13_21  and  N5_22 
REMARK    6  A    between atoms: N5_22  and  C14_23 
REMARK       I    between atoms: N5_22  and  C20_32 
REMARK    7  A    between atoms: C14_23  and  C15_24 
REMARK       I    between atoms: C15_24  and  N6_26 
REMARK    8  A    between atoms: N6_26  and  C16_28 
REMARK    9  A    between atoms: C20_32  and  C21_34 
REMARK   10  A    between atoms: C24_37  and  O3_38 
REMARK   11  A    between atoms: O3_38  and  C25_39 
REMARK   12  A    between atoms: C25_39  and  C26_40 
ROOT
HETATM    1  C11 UNL     1      12.194  62.457  18.363  1.00  0.00     0.098 A 
HETATM    2  C12 UNL     1      11.897  61.882  19.566  1.00  0.00     0.122 A 
HETATM    3  N4  UNL     1      10.679  61.438  19.852  1.00  0.00    -0.350 N 
ATOM      4  H4  UNL     1      10.519  61.019  20.768  1.00  0.00     0.166 HD
HETATM    5  C13 UNL     1       9.628  61.514  18.983  1.00  0.00     0.113 A 
HETATM    6  C23 UNL     1       9.911  62.092  17.763  1.00  0.00     0.087 A 
HETATM    7  C24 UNL     1      11.164  62.577  17.401  1.00  0.00     0.101 A 
ENDROOT
BRANCH   1   8
HETATM    8  N3  UNL     1      13.502  62.946  18.061  1.00  0.00    -0.188 N 
HETATM    9  C10 UNL     1      13.696  64.219  18.030  1.00  0.00     0.683 A 
HETATM   10  N2  UNL     1      12.666  65.051  18.280  1.00  0.00    -0.202 N 
HETATM   11  N7  UNL     1      14.918  64.735  17.778  1.00  0.00    -0.189 N 
HETATM   12  C9  UNL     1      12.814  66.380  18.285  1.00  0.00     0.108 A 
ATOM     13  H2  UNL     1      11.746  64.655  18.472  1.00  0.00     0.183 HD
HETATM   14  C8  UNL     1      14.075  66.879  18.023  1.00  0.00     0.050 A 
HETATM   15  C7  UNL     1      15.146  66.050  17.765  1.00  0.00     0.077 A 
ATOM     16  H7  UNL     1      15.692  64.098  17.590  1.00  0.00     0.184 HD
ATOM     17  H3  UNL     1      14.268  62.299  17.873  1.00  0.00     0.184 HD
BRANCH  15  18
HETATM   18  C6  UNL     1      16.470  66.616  17.521  1.00  0.00     0.064 A 
HETATM   19  C5  UNL     1      16.818  67.871  17.957  1.00  0.00     0.080 A 
HETATM   20  C4  UNL     1      18.088  68.400  17.687  1.00  0.00     0.104 A 
HETATM   21  N1  UNL     1      18.360  69.573  18.109  1.00  0.00    -0.373 N 
HETATM   22  N9  UNL     1      18.998  67.693  16.994  1.00  0.00    -0.333 N 
ATOM     23  H1  UNL     1      17.624  70.054  18.625  1.00  0.00     0.161 HD
HETATM   24  C28 UNL     1      18.627  66.460  16.579  1.00  0.00     0.079 A 
ATOM     25  H9  UNL     1      19.924  68.069  16.792  1.00  0.00     0.168 HD
HETATM   26  N8  UNL     1      17.417  65.948  16.833  1.00  0.00    -0.344 N 
HETATM   27  C29 UNL     1      19.624  65.669  15.813  1.00  0.00     0.089 C 
ATOM     28  H8  UNL     1      17.202  65.012  16.491  1.00  0.00     0.167 HD
BRANCH  21  29
HETATM   29  C3  UNL     1      19.580  70.278  17.937  1.00  0.00     0.147 C 
BRANCH  29  30
HETATM   30  C2  UNL     1      19.376  71.702  17.547  1.00  0.00    -0.018 C 
HETATM   31  C1  UNL     1      18.728  72.110  16.480  1.00  0.00     0.008 C 
ENDBRANCH  29  30
ENDBRANCH  21  29
ENDBRANCH  15  18
ENDBRANCH   1   8
BRANCH   7  32
HETATM   32  O3  UNL     1      11.455  63.145  16.199  1.00  0.00    -0.349 OA
BRANCH  32  33
HETATM   33  C25 UNL     1      12.046  62.716  15.045  1.00  0.00     0.175 C 
BRANCH  33  34
HETATM   34  C26 UNL     1      13.027  63.632  14.389  1.00  0.00     0.022 C 
HETATM   35  C27 UNL     1      14.441  63.040  14.510  1.00  0.00     0.007 C 
ENDBRANCH  33  34
ENDBRANCH  32  33
ENDBRANCH   7  32
BRANCH   5  36
HETATM   36  N5  UNL     1       8.363  61.032  19.386  1.00  0.00    -0.291 N 
HETATM   37  C20 UNL     1       7.479  61.766  20.188  1.00  0.00     0.248 C 
HETATM   38  O2  UNL     1       6.375  61.155  20.476  1.00  0.00    -0.268 OA
BRANCH  36  39
HETATM   39  C14 UNL     1       7.990  59.683  18.943  1.00  0.00     0.236 C 
BRANCH  39  40
HETATM   40  C15 UNL     1       8.283  59.406  17.544  1.00  0.00     0.236 C 
HETATM   41  O1  UNL     1       8.809  58.297  17.257  1.00  0.00    -0.272 OA
HETATM   42  N6  UNL     1       8.023  60.291  16.480  1.00  0.00    -0.352 N 
ATOM     43  H6  UNL     1       7.593  61.190  16.696  1.00  0.00     0.163 HD
BRANCH  42  44
HETATM   44  C16 UNL     1       8.333  59.996  15.096  1.00  0.00     0.022 C 
HETATM   45  C17 UNL     1       9.764  59.591  14.876  1.00  0.00     0.037 C 
HETATM   46  C18 UNL     1       8.085  61.300  14.324  1.00  0.00     0.037 C 
HETATM   47  C19 UNL     1       7.376  58.969  14.523  1.00  0.00     0.037 C 
ENDBRANCH  42  44
ENDBRANCH  39  40
ENDBRANCH  36  39
BRANCH  37  48
HETATM   48  C21 UNL     1       7.643  63.090  20.723  1.00  0.00     0.064 C 
HETATM   49  C22 UNL     1       8.239  63.219  21.939  1.00  0.00     0.017 C 
ENDBRANCH  37  48
ENDBRANCH   5  36
TORSDOF 12
ENDMDL
MODEL 3
REMARK VINA RESULT: -8.920079579      2.947     11.351
REMARK  12 active torsions:
REMARK  status: ('A' for Active; 'I' for Inactive)
REMARK    1  A    between atoms: C2_2  and  C3_3 
REMARK    2  A    between atoms: C3_3  and  N1_4 
REMARK    3  A    between atoms: C6_8  and  C7_9 
REMARK    4  A    between atoms: N3_15  and  C11_17 
REMARK    5  A    between atoms: C13_21  and  N5_22 
REMARK    6  A    between atoms: N5_22  and  C14_23 
REMARK       I    between atoms: N5_22  and  C20_32 
REMARK    7  A    between atoms: C14_23  and  C15_24 
REMARK       I    between atoms: C15_24  and  N6_26 
REMARK    8  A    between atoms: N6_26  and  C16_28 
REMARK    9  A    between atoms: C20_32  and  C21_34 
REMARK   10  A    between atoms: C24_37  and  O3_38 
REMARK   11  A    between atoms: O3_38  and  C25_39 
REMARK   12  A    between atoms: C25_39  and  C26_40 
ROOT
HETATM    1  C11 UNL     1      12.061  62.043  18.815  1.00  0.00     0.098 A 
HETATM    2  C12 UNL     1      11.631  61.837  20.095  1.00  0.00     0.122 A 
HETATM    3  N4  UNL     1      10.418  61.369  20.363  1.00  0.00    -0.350 N 
ATOM      4  H4  UNL     1      10.155  61.237  21.340  1.00  0.00     0.166 HD
HETATM    5  C13 UNL     1       9.504  61.054  19.399  1.00  0.00     0.113 A 
HETATM    6  C23 UNL     1       9.922  61.257  18.100  1.00  0.00     0.087 A 
HETATM    7  C24 UNL     1      11.177  61.744  17.752  1.00  0.00     0.101 A 
ENDROOT
BRANCH   1   8
HETATM    8  N3  UNL     1      13.362  62.559  18.528  1.00  0.00    -0.188 N 
HETATM    9  C10 UNL     1      13.496  63.825  18.328  1.00  0.00     0.683 A 
HETATM   10  N2  UNL     1      12.413  64.622  18.392  1.00  0.00    -0.202 N 
HETATM   11  N7  UNL     1      14.706  64.369  18.081  1.00  0.00    -0.189 N 
HETATM   12  C9  UNL     1      12.496  65.945  18.216  1.00  0.00     0.108 A 
ATOM     13  H2  UNL     1      11.502  64.205  18.582  1.00  0.00     0.183 HD
HETATM   14  C8  UNL     1      13.747  66.474  17.964  1.00  0.00     0.050 A 
HETATM   15  C7  UNL     1      14.872  65.681  17.895  1.00  0.00     0.077 A 
ATOM     16  H7  UNL     1      15.521  63.757  18.034  1.00  0.00     0.184 HD
ATOM     17  H3  UNL     1      14.169  61.937  18.483  1.00  0.00     0.184 HD
BRANCH  15  18
HETATM   18  C6  UNL     1      16.181  66.282  17.655  1.00  0.00     0.064 A 
HETATM   19  C5  UNL     1      16.515  67.521  18.145  1.00  0.00     0.080 A 
HETATM   20  C4  UNL     1      17.770  68.086  17.878  1.00  0.00     0.104 A 
HETATM   21  N1  UNL     1      18.030  69.241  18.351  1.00  0.00    -0.373 N 
HETATM   22  N9  UNL     1      18.680  67.430  17.136  1.00  0.00    -0.333 N 
ATOM     23  H1  UNL     1      17.295  69.683  18.903  1.00  0.00     0.161 HD
HETATM   24  C28 UNL     1      18.323  66.211  16.668  1.00  0.00     0.079 A 
ATOM     25  H9  UNL     1      19.595  67.832  16.936  1.00  0.00     0.168 HD
HETATM   26  N8  UNL     1      17.127  65.665  16.918  1.00  0.00    -0.344 N 
HETATM   27  C29 UNL     1      19.319  65.476  15.848  1.00  0.00     0.089 C 
ATOM     28  H8  UNL     1      16.921  64.743  16.535  1.00  0.00     0.167 HD
BRANCH  21  29
HETATM   29  C3  UNL     1      19.233  69.976  18.191  1.00  0.00     0.147 C 
BRANCH  29  30
HETATM   30  C2  UNL     1      19.033  71.268  17.476  1.00  0.00    -0.018 C 
HETATM   31  C1  UNL     1      19.646  72.394  17.762  1.00  0.00     0.008 C 
ENDBRANCH  29  30
ENDBRANCH  21  29
ENDBRANCH  15  18
ENDBRANCH   1   8
BRANCH   7  32
HETATM   32  O3  UNL     1      11.602  61.943  16.474  1.00  0.00    -0.349 OA
BRANCH  32  33
HETATM   33  C25 UNL     1      10.989  62.082  15.263  1.00  0.00     0.175 C 
BRANCH  33  34
HETATM   34  C26 UNL     1      10.285  60.889  14.703  1.00  0.00     0.022 C 
HETATM   35  C27 UNL     1       8.797  61.221  14.500  1.00  0.00     0.007 C 
ENDBRANCH  33  34
ENDBRANCH  32  33
ENDBRANCH   7  32
BRANCH   5  36
HETATM   36  N5  UNL     1       8.230  60.580  19.785  1.00  0.00    -0.291 N 
HETATM   37  C20 UNL     1       7.248  61.396  20.364  1.00  0.00     0.248 C 
HETATM   38  O2  UNL     1       6.150  60.784  20.673  1.00  0.00    -0.268 OA
BRANCH  36  39
HETATM   39  C14 UNL     1       7.955  59.154  19.573  1.00  0.00     0.236 C 
BRANCH  39  40
HETATM   40  C15 UNL     1       7.246  58.855  18.337  1.00  0.00     0.236 C 
HETATM   41  O1  UNL     1       7.848  58.187  17.454  1.00  0.00    -0.272 OA
HETATM   42  N6  UNL     1       5.928  59.261  18.051  1.00  0.00    -0.352 N 
ATOM     43  H6  UNL     1       5.425  59.798  18.758  1.00  0.00     0.163 HD
BRANCH  42  44
HETATM   44  C16 UNL     1       5.246  58.959  16.809  1.00  0.00     0.022 C 
HETATM   45  C17 UNL     1       6.042  59.318  15.586  1.00  0.00     0.037 C 
HETATM   46  C18 UNL     1       3.970  59.814  16.812  1.00  0.00     0.037 C 
HETATM   47  C19 UNL     1       4.792  57.512  16.766  1.00  0.00     0.037 C 
ENDBRANCH  42  44
ENDBRANCH  39  40
ENDBRANCH  36  39
BRANCH  37  48
HETATM   48  C21 UNL     1       7.308  62.802  20.655  1.00  0.00     0.064 C 
HETATM   49  C22 UNL     1       7.860  63.188  21.837  1.00  0.00     0.017 C 
ENDBRANCH  37  48
ENDBRANCH   5  36
TORSDOF 12
ENDMDL
MODEL 4
REMARK VINA RESULT: -8.917192952      2.885     11.062
REMARK  12 active torsions:
REMARK  status: ('A' for Active; 'I' for Inactive)
REMARK    1  A    between atoms: C2_2  and  C3_3 
REMARK    2  A    between atoms: C3_3  and  N1_4 
REMARK    3  A    between atoms: C6_8  and  C7_9 
REMARK    4  A    between atoms: N3_15  and  C11_17 
REMARK    5  A    between atoms: C13_21  and  N5_22 
REMARK    6  A    between atoms: N5_22  and  C14_23 
REMARK       I    between atoms: N5_22  and  C20_32 
REMARK    7  A    between atoms: C14_23  and  C15_24 
REMARK       I    between atoms: C15_24  and  N6_26 
REMARK    8  A    between atoms: N6_26  and  C16_28 
REMARK    9  A    between atoms: C20_32  and  C21_34 
REMARK   10  A    between atoms: C24_37  and  O3_38 
REMARK   11  A    between atoms: O3_38  and  C25_39 
REMARK   12  A    between atoms: C25_39  and  C26_40 
ROOT
HETATM    1  C11 UNL     1      11.655  62.088  18.081  1.00  0.00     0.098 A 
HETATM    2  C12 UNL     1      11.554  61.777  19.408  1.00  0.00     0.122 A 
HETATM    3  N4  UNL     1      10.423  61.333  19.942  1.00  0.00    -0.350 N 
ATOM      4  H4  UNL     1      10.411  61.118  20.940  1.00  0.00     0.166 HD
HETATM    5  C13 UNL     1       9.276  61.148  19.227  1.00  0.00     0.113 A 
HETATM    6  C23 UNL     1       9.360  61.457  17.885  1.00  0.00     0.087 A 
HETATM    7  C24 UNL     1      10.512  61.926  17.264  1.00  0.00     0.101 A 
ENDROOT
BRANCH   1   8
HETATM    8  N3  UNL     1      12.868  62.579  17.510  1.00  0.00    -0.188 N 
HETATM    9  C10 UNL     1      13.182  63.816  17.689  1.00  0.00     0.683 A 
HETATM   10  N2  UNL     1      12.362  64.608  18.405  1.00  0.00    -0.202 N 
HETATM   11  N7  UNL     1      14.331  64.324  17.195  1.00  0.00    -0.189 N 
HETATM   12  C9  UNL     1      12.648  65.893  18.642  1.00  0.00     0.108 A 
ATOM     13  H2  UNL     1      11.497  64.218  18.777  1.00  0.00     0.183 HD
HETATM   14  C8  UNL     1      13.829  66.386  18.125  1.00  0.00     0.050 A 
HETATM   15  C7  UNL     1      14.687  65.596  17.390  1.00  0.00     0.077 A 
ATOM     16  H7  UNL     1      14.946  63.717  16.654  1.00  0.00     0.184 HD
ATOM     17  H3  UNL     1      13.475  61.962  16.970  1.00  0.00     0.184 HD
BRANCH  15  18
HETATM   18  C6  UNL     1      15.941  66.148  16.883  1.00  0.00     0.064 A 
HETATM   19  C5  UNL     1      16.501  65.722  15.704  1.00  0.00     0.080 A 
HETATM   20  C4  UNL     1      17.719  66.250  15.253  1.00  0.00     0.104 A 
HETATM   21  N1  UNL     1      18.200  65.817  14.154  1.00  0.00    -0.373 N 
HETATM   22  N9  UNL     1      18.371  67.187  15.963  1.00  0.00    -0.333 N 
ATOM     23  H1  UNL     1      17.656  65.104  13.667  1.00  0.00     0.161 HD
HETATM   24  C28 UNL     1      17.795  67.588  17.120  1.00  0.00     0.079 A 
ATOM     25  H9  UNL     1      19.258  67.577  15.645  1.00  0.00     0.168 HD
HETATM   26  N8  UNL     1      16.632  67.088  17.557  1.00  0.00    -0.344 N 
HETATM   27  C29 UNL     1      18.505  68.623  17.914  1.00  0.00     0.089 C 
ATOM     28  H8  UNL     1      16.253  67.434  18.438  1.00  0.00     0.167 HD
BRANCH  21  29
HETATM   29  C3  UNL     1      19.412  66.222  13.536  1.00  0.00     0.147 C 
BRANCH  29  30
HETATM   30  C2  UNL     1      20.064  65.126  12.765  1.00  0.00    -0.018 C 
HETATM   31  C1  UNL     1      20.504  63.999  13.275  1.00  0.00     0.008 C 
ENDBRANCH  29  30
ENDBRANCH  21  29
ENDBRANCH  15  18
ENDBRANCH   1   8
BRANCH   7  32
HETATM   32  O3  UNL     1      10.608  62.230  15.940  1.00  0.00    -0.349 OA
BRANCH  32  33
HETATM   33  C25 UNL     1      10.659  61.507  14.784  1.00  0.00     0.175 C 
BRANCH  33  34
HETATM   34  C26 UNL     1       9.418  60.790  14.361  1.00  0.00     0.022 C 
HETATM   35  C27 UNL     1       9.663  59.272  14.407  1.00  0.00     0.007 C 
ENDBRANCH  33  34
ENDBRANCH  32  33
ENDBRANCH   7  32
BRANCH   5  36
HETATM   36  N5  UNL     1       8.116  60.688  19.890  1.00  0.00    -0.291 N 
HETATM   37  C20 UNL     1       7.298  61.515  20.672  1.00  0.00     0.248 C 
HETATM   38  O2  UNL     1       6.291  60.915  21.221  1.00  0.00    -0.268 OA
BRANCH  36  39
HETATM   39  C14 UNL     1       7.784  59.265  19.748  1.00  0.00     0.236 C 
BRANCH  39  40
HETATM   40  C15 UNL     1       7.152  58.917  18.483  1.00  0.00     0.236 C 
HETATM   41  O1  UNL     1       7.770  58.143  17.704  1.00  0.00    -0.272 OA
HETATM   42  N6  UNL     1       5.892  59.384  18.062  1.00  0.00    -0.352 N 
ATOM     43  H6  UNL     1       5.377  60.007  18.684  1.00  0.00     0.163 HD
BRANCH  42  44
HETATM   44  C16 UNL     1       5.288  59.030  16.794  1.00  0.00     0.022 C 
HETATM   45  C17 UNL     1       6.113  59.433  15.604  1.00  0.00     0.037 C 
HETATM   46  C18 UNL     1       3.961  59.801  16.733  1.00  0.00     0.037 C 
HETATM   47  C19 UNL     1       4.931  57.558  16.744  1.00  0.00     0.037 C 
ENDBRANCH  42  44
ENDBRANCH  39  40
ENDBRANCH  36  39
BRANCH  37  48
HETATM   48  C21 UNL     1       7.437  62.920  20.939  1.00  0.00     0.064 C 
HETATM   49  C22 UNL     1       8.265  63.301  21.949  1.00  0.00     0.017 C 
ENDBRANCH  37  48
ENDBRANCH   5  36
TORSDOF 12
ENDMDL
MODEL 5
REMARK VINA RESULT: -8.874430282      2.885     11.774
REMARK  12 active torsions:
REMARK  status: ('A' for Active; 'I' for Inactive)
REMARK    1  A    between atoms: C2_2  and  C3_3 
REMARK    2  A    between atoms: C3_3  and  N1_4 
REMARK    3  A    between atoms: C6_8  and  C7_9 
REMARK    4  A    between atoms: N3_15  and  C11_17 
REMARK    5  A    between atoms: C13_21  and  N5_22 
REMARK    6  A    between atoms: N5_22  and  C14_23 
REMARK       I    between atoms: N5_22  and  C20_32 
REMARK    7  A    between atoms: C14_23  and  C15_24 
REMARK       I    between atoms: C15_24  and  N6_26 
REMARK    8  A    between atoms: N6_26  and  C16_28 
REMARK    9  A    between atoms: C20_32  and  C21_34 
REMARK   10  A    between atoms: C24_37  and  O3_38 
REMARK   11  A    between atoms: O3_38  and  C25_39 
REMARK   12  A    between atoms: C25_39  and  C26_40 
ROOT
HETATM    1  C11 UNL     1      11.842  62.001  17.455  1.00  0.00     0.098 A 
HETATM    2  C12 UNL     1      11.800  60.686  17.089  1.00  0.00     0.122 A 
HETATM    3  N4  UNL     1      10.662  60.006  17.039  1.00  0.00    -0.350 N 
ATOM      4  H4  UNL     1      10.695  59.025  16.758  1.00  0.00     0.166 HD
HETATM    5  C13 UNL     1       9.447  60.550  17.342  1.00  0.00     0.113 A 
HETATM    6  C23 UNL     1       9.472  61.879  17.714  1.00  0.00     0.087 A 
HETATM    7  C24 UNL     1      10.629  62.646  17.788  1.00  0.00     0.101 A 
ENDROOT
BRANCH   1   8
HETATM    8  N3  UNL     1      13.070  62.729  17.522  1.00  0.00    -0.188 N 
HETATM    9  C10 UNL     1      13.572  63.198  16.431  1.00  0.00     0.683 A 
HETATM   10  N2  UNL     1      12.930  62.990  15.266  1.00  0.00    -0.202 N 
HETATM   11  N7  UNL     1      14.715  63.917  16.440  1.00  0.00    -0.189 N 
HETATM   12  C9  UNL     1      13.392  63.473  14.107  1.00  0.00     0.108 A 
ATOM     13  H2  UNL     1      12.066  62.448  15.266  1.00  0.00     0.183 HD
HETATM   14  C8  UNL     1      14.563  64.204  14.146  1.00  0.00     0.050 A 
HETATM   15  C7  UNL     1      15.238  64.433  15.326  1.00  0.00     0.077 A 
ATOM     16  H7  UNL     1      15.194  64.069  17.328  1.00  0.00     0.184 HD
ATOM     17  H3  UNL     1      13.541  62.874  18.415  1.00  0.00     0.184 HD
BRANCH  15  18
HETATM   18  C6  UNL     1      16.459  65.235  15.330  1.00  0.00     0.064 A 
HETATM   19  C5  UNL     1      16.582  66.371  16.092  1.00  0.00     0.080 A 
HETATM   20  C4  UNL     1      17.756  67.137  16.057  1.00  0.00     0.104 A 
HETATM   21  N1  UNL     1      17.819  68.187  16.779  1.00  0.00    -0.373 N 
HETATM   22  N9  UNL     1      18.792  66.780  15.277  1.00  0.00    -0.333 N 
ATOM     23  H1  UNL     1      16.997  68.400  17.345  1.00  0.00     0.161 HD
HETATM   24  C28 UNL     1      18.641  65.656  14.539  1.00  0.00     0.079 A 
ATOM     25  H9  UNL     1      19.649  67.330  15.244  1.00  0.00     0.168 HD
HETATM   26  N8  UNL     1      17.524  64.920  14.566  1.00  0.00    -0.344 N 
HETATM   27  C29 UNL     1      19.778  65.251  13.673  1.00  0.00     0.089 C 
ATOM     28  H8  UNL     1      17.476  64.084  13.985  1.00  0.00     0.167 HD
BRANCH  21  29
HETATM   29  C3  UNL     1      18.910  69.087  16.879  1.00  0.00     0.147 C 
BRANCH  29  30
HETATM   30  C2  UNL     1      18.565  70.339  17.611  1.00  0.00    -0.018 C 
HETATM   31  C1  UNL     1      18.878  71.554  17.221  1.00  0.00     0.008 C 
ENDBRANCH  29  30
ENDBRANCH  21  29
ENDBRANCH  15  18
ENDBRANCH   1   8
BRANCH   7  32
HETATM   32  O3  UNL     1      10.664  63.959  18.149  1.00  0.00    -0.349 OA
BRANCH  32  33
HETATM   33  C25 UNL     1      10.900  64.635  19.310  1.00  0.00     0.175 C 
BRANCH  33  34
HETATM   34  C26 UNL     1      10.880  63.852  20.583  1.00  0.00     0.022 C 
HETATM   35  C27 UNL     1       9.866  64.479  21.554  1.00  0.00     0.007 C 
ENDBRANCH  33  34
ENDBRANCH  32  33
ENDBRANCH   7  32
BRANCH   5  36
HETATM   36  N5  UNL     1       8.292  59.739  17.277  1.00  0.00    -0.291 N 
HETATM   37  C20 UNL     1       7.453  59.683  16.156  1.00  0.00     0.248 C 
HETATM   38  O2  UNL     1       6.429  58.902  16.285  1.00  0.00    -0.268 OA
BRANCH  36  39
HETATM   39  C14 UNL     1       7.970  58.938  18.464  1.00  0.00     0.236 C 
BRANCH  39  40
HETATM   40  C15 UNL     1       7.370  59.693  19.556  1.00  0.00     0.236 C 
HETATM   41  O1  UNL     1       6.598  60.645  19.264  1.00  0.00    -0.272 OA
HETATM   42  N6  UNL     1       7.592  59.438  20.923  1.00  0.00    -0.352 N 
ATOM     43  H6  UNL     1       8.210  58.666  21.174  1.00  0.00     0.163 HD
BRANCH  42  44
HETATM   44  C16 UNL     1       6.990  60.209  21.991  1.00  0.00     0.022 C 
HETATM   45  C17 UNL     1       7.500  61.621  22.070  1.00  0.00     0.037 C 
HETATM   46  C18 UNL     1       7.376  59.492  23.294  1.00  0.00     0.037 C 
HETATM   47  C19 UNL     1       5.477  60.174  21.914  1.00  0.00     0.037 C 
ENDBRANCH  42  44
ENDBRANCH  39  40
ENDBRANCH  36  39
BRANCH  37  48
HETATM   48  C21 UNL     1       7.584  60.376  14.903  1.00  0.00     0.064 C 
HETATM   49  C22 UNL     1       8.647  60.071  14.112  1.00  0.00     0.017 C 
ENDBRANCH  37  48
ENDBRANCH   5  36
TORSDOF 12
ENDMDL
