MODEL 1
REMARK VINA RESULT: -8.625891245      0.000      0.000
REMARK  11 active torsions:
REMARK  status: ('A' for Active; 'I' for Inactive)
REMARK       I    between atoms: C1_2  and  N2_4 
REMARK    1  A    between atoms: N2_4  and  C2_6 
REMARK    2  A    between atoms: C2_6  and  C3_7 
REMARK    3  A    between atoms: C2_6  and  N3_12 
REMARK    4  A    between atoms: C3_7  and  C4_8 
REMARK    5  A    between atoms: C4_8  and  C5_9 
REMARK       I    between atoms: N3_12  and  C6_14 
REMARK    6  A    between atoms: C6_14  and  C7_16 
REMARK    7  A    between atoms: C7_16  and  N4_17 
REMARK    8  A    between atoms: C7_16  and  N5_21 
REMARK    9  A    between atoms: N5_21  and  C8_23 
REMARK   10  A    between atoms: C8_23  and  O5_24 
REMARK   11  A    between atoms: C8_23  and  C9_26 
ROOT
HETATM    1  C7  UNL     1      16.097  81.203  26.199  1.00  0.00     0.372 C 
ENDROOT
BRANCH   1   2
HETATM    2  C6  UNL     1      15.544  79.886  25.890  1.00  0.00     0.269 C 
HETATM    3  N3  UNL     1      14.845  79.139  26.919  1.00  0.00    -0.337 N 
ATOM      4  H3  UNL     1      14.747  79.547  27.848  1.00  0.00     0.164 HD
HETATM    5  O4  UNL     1      15.625  79.334  24.785  1.00  0.00    -0.269 OA
BRANCH   3   6
HETATM    6  C2  UNL     1      14.289  77.844  26.662  1.00  0.00     0.188 C 
BRANCH   6   7
HETATM    7  N2  UNL     1      15.431  77.015  26.257  1.00  0.00    -0.324 N 
HETATM    8  C1  UNL     1      16.401  76.510  27.125  1.00  0.00     0.330 C 
HETATM    9  N1  UNL     1      17.461  75.723  26.649  1.00  0.00    -0.040 NA
HETATM   10  O1  UNL     1      16.355  76.748  28.371  1.00  0.00    -0.251 OA
ATOM     11  H2  UNL     1      15.522  76.789  25.266  1.00  0.00     0.166 HD
ENDBRANCH   6   7
BRANCH   6  12
HETATM   12  C3  UNL     1      13.212  77.829  25.668  1.00  0.00     0.057 C 
BRANCH  12  13
HETATM   13  C4  UNL     1      11.863  78.294  26.050  1.00  0.00     0.117 C 
BRANCH  13  14
HETATM   14  C5  UNL     1      11.524  79.696  26.075  1.00  0.00     0.172 C 
HETATM   15  O2  UNL     1      12.255  80.676  26.321  1.00  0.00    -0.648 OA
HETATM   16  O3  UNL     1      10.177  80.073  25.788  1.00  0.00    -0.648 OA
ENDBRANCH  13  14
ENDBRANCH  12  13
ENDBRANCH   6  12
ENDBRANCH   3   6
ENDBRANCH   1   2
BRANCH   1  17
HETATM   17  N4  UNL     1      14.987  82.048  26.659  1.00  0.00    -0.050 N 
ATOM     18  H43 UNL     1      14.230  82.119  25.977  1.00  0.00     0.277 HD
ATOM     19  H42 UNL     1      14.447  81.623  27.412  1.00  0.00     0.277 HD
ATOM     20  H41 UNL     1      15.379  82.955  26.913  1.00  0.00     0.277 HD
ENDBRANCH   1  17
BRANCH   1  21
HETATM   21  N5  UNL     1      16.874  81.805  25.209  1.00  0.00    -0.358 N 
ATOM     22  H5  UNL     1      17.889  81.786  25.311  1.00  0.00     0.158 HD
BRANCH  21  23
HETATM   23  C8  UNL     1      16.331  82.432  24.083  1.00  0.00     0.268 C 
BRANCH  23  24
HETATM   24  O5  UNL     1      16.087  81.727  22.947  1.00  0.00    -0.371 OA
ATOM     25  H5  UNL     1      15.239  81.773  22.522  1.00  0.00     0.212 HD
ENDBRANCH  23  24
BRANCH  23  26
HETATM   26  C9  UNL     1      17.262  83.572  23.721  1.00  0.00     0.074 A 
HETATM   27  C10 UNL     1      17.233  84.852  24.209  1.00  0.00     0.118 A 
HETATM   28  N6  UNL     1      18.245  85.540  23.616  1.00  0.00    -0.360 N 
HETATM   29  C11 UNL     1      18.876  84.697  22.784  1.00  0.00     0.180 A 
ATOM     30  H6  UNL     1      18.481  86.520  23.774  1.00  0.00     0.166 HD
HETATM   31  N7  UNL     1      18.268  83.493  22.852  1.00  0.00    -0.351 N 
ATOM     32  H7  UNL     1      18.536  82.661  22.326  1.00  0.00     0.166 HD
ENDBRANCH  23  26
ENDBRANCH  21  23
ENDBRANCH   1  21
TORSDOF 11
ENDMDL
MODEL 2
REMARK VINA RESULT: -8.551886060      1.612      1.755
REMARK  11 active torsions:
REMARK  status: ('A' for Active; 'I' for Inactive)
REMARK       I    between atoms: C1_2  and  N2_4 
REMARK    1  A    between atoms: N2_4  and  C2_6 
REMARK    2  A    between atoms: C2_6  and  C3_7 
REMARK    3  A    between atoms: C2_6  and  N3_12 
REMARK    4  A    between atoms: C3_7  and  C4_8 
REMARK    5  A    between atoms: C4_8  and  C5_9 
REMARK       I    between atoms: N3_12  and  C6_14 
REMARK    6  A    between atoms: C6_14  and  C7_16 
REMARK    7  A    between atoms: C7_16  and  N4_17 
REMARK    8  A    between atoms: C7_16  and  N5_21 
REMARK    9  A    between atoms: N5_21  and  C8_23 
REMARK   10  A    between atoms: C8_23  and  O5_24 
REMARK   11  A    between atoms: C8_23  and  C9_26 
ROOT
HETATM    1  C7  UNL     1      16.081  80.578  26.070  1.00  0.00     0.372 C 
ENDROOT
BRANCH   1   2
HETATM    2  C6  UNL     1      15.350  79.329  26.273  1.00  0.00     0.269 C 
HETATM    3  N3  UNL     1      14.683  78.694  25.153  1.00  0.00    -0.337 N 
ATOM      4  H3  UNL     1      14.734  79.130  24.233  1.00  0.00     0.164 HD
HETATM    5  O4  UNL     1      15.250  78.746  27.361  1.00  0.00    -0.269 OA
BRANCH   3   6
HETATM    6  C2  UNL     1      13.954  77.470  25.307  1.00  0.00     0.188 C 
BRANCH   6   7
HETATM    7  N2  UNL     1      14.633  76.512  24.425  1.00  0.00    -0.324 N 
HETATM    8  C1  UNL     1      15.834  75.865  24.720  1.00  0.00     0.330 C 
HETATM    9  N1  UNL     1      16.412  74.961  23.815  1.00  0.00    -0.040 NA
HETATM   10  O1  UNL     1      16.442  76.074  25.814  1.00  0.00    -0.251 OA
ATOM     11  H2  UNL     1      14.192  76.302  23.529  1.00  0.00     0.166 HD
ENDBRANCH   6   7
BRANCH   6  12
HETATM   12  C3  UNL     1      12.521  77.572  25.018  1.00  0.00     0.057 C 
BRANCH  12  13
HETATM   13  C4  UNL     1      11.625  78.221  25.997  1.00  0.00     0.117 C 
BRANCH  13  14
HETATM   14  C5  UNL     1      11.447  79.652  26.028  1.00  0.00     0.172 C 
HETATM   15  O2  UNL     1      12.294  80.545  26.228  1.00  0.00    -0.648 OA
HETATM   16  O3  UNL     1      10.137  80.177  25.808  1.00  0.00    -0.648 OA
ENDBRANCH  13  14
ENDBRANCH  12  13
ENDBRANCH   6  12
ENDBRANCH   3   6
ENDBRANCH   1   2
BRANCH   1  17
HETATM   17  N4  UNL     1      17.269  80.538  26.933  1.00  0.00    -0.050 N 
ATOM     18  H43 UNL     1      17.158  81.082  27.789  1.00  0.00     0.277 HD
ATOM     19  H42 UNL     1      17.412  79.628  27.371  1.00  0.00     0.277 HD
ATOM     20  H41 UNL     1      18.065  80.839  26.370  1.00  0.00     0.277 HD
ENDBRANCH   1  17
BRANCH   1  21
HETATM   21  N5  UNL     1      15.349  81.760  26.193  1.00  0.00    -0.358 N 
ATOM     22  H5  UNL     1      15.145  82.108  27.130  1.00  0.00     0.158 HD
BRANCH  21  23
HETATM   23  C8  UNL     1      14.882  82.490  25.096  1.00  0.00     0.268 C 
BRANCH  23  24
HETATM   24  O5  UNL     1      14.222  81.870  24.082  1.00  0.00    -0.371 OA
ATOM     25  H5  UNL     1      13.868  82.372  23.357  1.00  0.00     0.212 HD
ENDBRANCH  23  24
BRANCH  23  26
HETATM   26  C9  UNL     1      16.080  83.197  24.494  1.00  0.00     0.074 A 
HETATM   27  C10 UNL     1      16.611  84.400  24.880  1.00  0.00     0.118 A 
HETATM   28  N6  UNL     1      17.675  84.657  24.073  1.00  0.00    -0.360 N 
HETATM   29  C11 UNL     1      17.789  83.632  23.213  1.00  0.00     0.180 A 
ATOM     30  H6  UNL     1      18.277  85.479  24.113  1.00  0.00     0.166 HD
HETATM   31  N7  UNL     1      16.808  82.741  23.476  1.00  0.00    -0.351 N 
ATOM     32  H7  UNL     1      16.651  81.865  22.979  1.00  0.00     0.166 HD
ENDBRANCH  23  26
ENDBRANCH  21  23
ENDBRANCH   1  21
TORSDOF 11
ENDMDL
MODEL 3
REMARK VINA RESULT: -8.429093649      1.426      1.624
REMARK  11 active torsions:
REMARK  status: ('A' for Active; 'I' for Inactive)
REMARK       I    between atoms: C1_2  and  N2_4 
REMARK    1  A    between atoms: N2_4  and  C2_6 
REMARK    2  A    between atoms: C2_6  and  C3_7 
REMARK    3  A    between atoms: C2_6  and  N3_12 
REMARK    4  A    between atoms: C3_7  and  C4_8 
REMARK    5  A    between atoms: C4_8  and  C5_9 
REMARK       I    between atoms: N3_12  and  C6_14 
REMARK    6  A    between atoms: C6_14  and  C7_16 
REMARK    7  A    between atoms: C7_16  and  N4_17 
REMARK    8  A    between atoms: C7_16  and  N5_21 
REMARK    9  A    between atoms: N5_21  and  C8_23 
REMARK   10  A    between atoms: C8_23  and  O5_24 
REMARK   11  A    between atoms: C8_23  and  C9_26 
ROOT
HETATM    1  C7  UNL     1      15.769  80.620  26.427  1.00  0.00     0.372 C 
ENDROOT
BRANCH   1   2
HETATM    2  C6  UNL     1      15.111  79.320  26.548  1.00  0.00     0.269 C 
HETATM    3  N3  UNL     1      14.489  78.717  25.385  1.00  0.00    -0.337 N 
ATOM      4  H3  UNL     1      14.520  79.211  24.493  1.00  0.00     0.164 HD
HETATM    5  O4  UNL     1      15.039  78.668  27.597  1.00  0.00    -0.269 OA
BRANCH   3   6
HETATM    6  C2  UNL     1      13.832  77.446  25.458  1.00  0.00     0.188 C 
BRANCH   6   7
HETATM    7  N2  UNL     1      14.553  76.592  24.505  1.00  0.00    -0.324 N 
HETATM    8  C1  UNL     1      15.769  75.955  24.762  1.00  0.00     0.330 C 
HETATM    9  N1  UNL     1      16.388  75.155  23.790  1.00  0.00    -0.040 NA
HETATM   10  O1  UNL     1      16.352  76.082  25.883  1.00  0.00    -0.251 OA
ATOM     11  H2  UNL     1      14.134  76.452  23.586  1.00  0.00     0.166 HD
ENDBRANCH   6   7
BRANCH   6  12
HETATM   12  C3  UNL     1      12.392  77.486  25.187  1.00  0.00     0.057 C 
BRANCH  12  13
HETATM   13  C4  UNL     1      11.485  78.119  26.166  1.00  0.00     0.117 C 
BRANCH  13  14
HETATM   14  C5  UNL     1      11.121  79.511  26.072  1.00  0.00     0.172 C 
HETATM   15  O2  UNL     1      10.008  80.016  25.822  1.00  0.00    -0.648 OA
HETATM   16  O3  UNL     1      12.136  80.494  26.282  1.00  0.00    -0.648 OA
ENDBRANCH  13  14
ENDBRANCH  12  13
ENDBRANCH   6  12
ENDBRANCH   3   6
ENDBRANCH   1   2
BRANCH   1  17
HETATM   17  N4  UNL     1      14.790  81.645  26.814  1.00  0.00    -0.050 N 
ATOM     18  H43 UNL     1      13.980  81.677  26.193  1.00  0.00     0.277 HD
ATOM     19  H42 UNL     1      14.290  81.414  27.672  1.00  0.00     0.277 HD
ATOM     20  H41 UNL     1      15.286  82.535  26.868  1.00  0.00     0.277 HD
ENDBRANCH   1  17
BRANCH   1  21
HETATM   21  N5  UNL     1      16.402  80.892  25.213  1.00  0.00    -0.358 N 
ATOM     22  H5  UNL     1      17.343  80.529  25.065  1.00  0.00     0.158 HD
BRANCH  21  23
HETATM   23  C8  UNL     1      15.809  81.639  24.191  1.00  0.00     0.268 C 
BRANCH  23  24
HETATM   24  O5  UNL     1      15.620  81.098  22.958  1.00  0.00    -0.371 OA
ATOM     25  H5  UNL     1      14.916  80.479  22.804  1.00  0.00     0.212 HD
ENDBRANCH  23  24
BRANCH  23  26
HETATM   26  C9  UNL     1      16.647  82.890  24.015  1.00  0.00     0.074 A 
HETATM   27  C10 UNL     1      16.547  84.060  24.722  1.00  0.00     0.118 A 
HETATM   28  N6  UNL     1      17.488  84.913  24.237  1.00  0.00    -0.360 N 
HETATM   29  C11 UNL     1      18.148  84.277  23.257  1.00  0.00     0.180 A 
ATOM     30  H6  UNL     1      17.662  85.865  24.561  1.00  0.00     0.166 HD
HETATM   31  N7  UNL     1      17.626  83.037  23.125  1.00  0.00    -0.351 N 
ATOM     32  H7  UNL     1      17.933  82.332  22.455  1.00  0.00     0.166 HD
ENDBRANCH  23  26
ENDBRANCH  21  23
ENDBRANCH   1  21
TORSDOF 11
ENDMDL
MODEL 4
REMARK VINA RESULT: -8.368299665      1.882      2.185
REMARK  11 active torsions:
REMARK  status: ('A' for Active; 'I' for Inactive)
REMARK       I    between atoms: C1_2  and  N2_4 
REMARK    1  A    between atoms: N2_4  and  C2_6 
REMARK    2  A    between atoms: C2_6  and  C3_7 
REMARK    3  A    between atoms: C2_6  and  N3_12 
REMARK    4  A    between atoms: C3_7  and  C4_8 
REMARK    5  A    between atoms: C4_8  and  C5_9 
REMARK       I    between atoms: N3_12  and  C6_14 
REMARK    6  A    between atoms: C6_14  and  C7_16 
REMARK    7  A    between atoms: C7_16  and  N4_17 
REMARK    8  A    between atoms: C7_16  and  N5_21 
REMARK    9  A    between atoms: N5_21  and  C8_23 
REMARK   10  A    between atoms: C8_23  and  O5_24 
REMARK   11  A    between atoms: C8_23  and  C9_26 
ROOT
HETATM    1  C7  UNL     1      14.028  81.809  24.673  1.00  0.00     0.372 C 
ENDROOT
BRANCH   1   2
HETATM    2  C6  UNL     1      13.772  80.763  25.661  1.00  0.00     0.269 C 
HETATM    3  N3  UNL     1      13.942  79.370  25.295  1.00  0.00    -0.337 N 
ATOM      4  H3  UNL     1      14.241  79.138  24.348  1.00  0.00     0.164 HD
HETATM    5  O4  UNL     1      13.410  80.973  26.825  1.00  0.00    -0.269 OA
BRANCH   3   6
HETATM    6  C2  UNL     1      13.701  78.311  26.230  1.00  0.00     0.188 C 
BRANCH   6   7
HETATM    7  N2  UNL     1      14.921  77.494  26.200  1.00  0.00    -0.324 N 
HETATM    8  C1  UNL     1      16.188  77.933  26.589  1.00  0.00     0.330 C 
HETATM    9  N1  UNL     1      17.302  77.080  26.527  1.00  0.00    -0.040 NA
HETATM   10  O1  UNL     1      16.373  79.116  27.010  1.00  0.00    -0.251 OA
ATOM     11  H2  UNL     1      14.836  76.532  25.870  1.00  0.00     0.166 HD
ENDBRANCH   6   7
BRANCH   6  12
HETATM   12  C3  UNL     1      12.497  77.521  25.961  1.00  0.00     0.057 C 
BRANCH  12  13
HETATM   13  C4  UNL     1      12.213  77.074  24.582  1.00  0.00     0.117 C 
BRANCH  13  14
HETATM   14  C5  UNL     1      11.260  77.760  23.744  1.00  0.00     0.172 C 
HETATM   15  O2  UNL     1      10.246  77.308  23.177  1.00  0.00    -0.648 OA
HETATM   16  O3  UNL     1      11.457  79.152  23.493  1.00  0.00    -0.648 OA
ENDBRANCH  13  14
ENDBRANCH  12  13
ENDBRANCH   6  12
ENDBRANCH   3   6
ENDBRANCH   1   2
BRANCH   1  17
HETATM   17  N4  UNL     1      13.934  81.190  23.344  1.00  0.00    -0.050 N 
ATOM     18  H43 UNL     1      14.845  81.033  22.912  1.00  0.00     0.277 HD
ATOM     19  H42 UNL     1      13.633  80.217  23.378  1.00  0.00     0.277 HD
ATOM     20  H41 UNL     1      13.321  81.777  22.778  1.00  0.00     0.277 HD
ENDBRANCH   1  17
BRANCH   1  21
HETATM   21  N5  UNL     1      15.186  82.567  24.848  1.00  0.00    -0.358 N 
ATOM     22  H5  UNL     1      15.107  83.475  25.306  1.00  0.00     0.158 HD
BRANCH  21  23
HETATM   23  C8  UNL     1      16.450  82.143  24.426  1.00  0.00     0.268 C 
BRANCH  23  24
HETATM   24  O5  UNL     1      17.270  81.463  25.270  1.00  0.00    -0.371 OA
ATOM     25  H5  UNL     1      18.132  81.801  25.485  1.00  0.00     0.212 HD
ENDBRANCH  23  24
BRANCH  23  26
HETATM   26  C9  UNL     1      17.198  83.377  23.961  1.00  0.00     0.074 A 
HETATM   27  C10 UNL     1      17.040  84.661  24.415  1.00  0.00     0.118 A 
HETATM   28  N6  UNL     1      17.909  85.448  23.726  1.00  0.00    -0.360 N 
HETATM   29  C11 UNL     1      18.582  84.661  22.872  1.00  0.00     0.180 A 
ATOM     30  H6  UNL     1      18.028  86.455  23.838  1.00  0.00     0.166 HD
HETATM   31  N7  UNL     1      18.140  83.393  23.021  1.00  0.00    -0.351 N 
ATOM     32  H7  UNL     1      18.474  82.583  22.499  1.00  0.00     0.166 HD
ENDBRANCH  23  26
ENDBRANCH  21  23
ENDBRANCH   1  21
TORSDOF 11
ENDMDL
MODEL 5
REMARK VINA RESULT: -8.310215004      1.985      3.322
REMARK  11 active torsions:
REMARK  status: ('A' for Active; 'I' for Inactive)
REMARK       I    between atoms: C1_2  and  N2_4 
REMARK    1  A    between atoms: N2_4  and  C2_6 
REMARK    2  A    between atoms: C2_6  and  C3_7 
REMARK    3  A    between atoms: C2_6  and  N3_12 
REMARK    4  A    between atoms: C3_7  and  C4_8 
REMARK    5  A    between atoms: C4_8  and  C5_9 
REMARK       I    between atoms: N3_12  and  C6_14 
REMARK    6  A    between atoms: C6_14  and  C7_16 
REMARK    7  A    between atoms: C7_16  and  N4_17 
REMARK    8  A    between atoms: C7_16  and  N5_21 
REMARK    9  A    between atoms: N5_21  and  C8_23 
REMARK   10  A    between atoms: C8_23  and  O5_24 
REMARK   11  A    between atoms: C8_23  and  C9_26 
ROOT
HETATM    1  C7  UNL     1      16.192  81.382  26.283  1.00  0.00     0.372 C 
ENDROOT
BRANCH   1   2
HETATM    2  C6  UNL     1      15.371  80.172  26.294  1.00  0.00     0.269 C 
HETATM    3  N3  UNL     1      15.728  79.052  25.446  1.00  0.00    -0.337 N 
ATOM      4  H3  UNL     1      16.553  79.123  24.850  1.00  0.00     0.164 HD
HETATM    5  O4  UNL     1      14.361  80.020  26.992  1.00  0.00    -0.269 OA
BRANCH   3   6
HETATM    6  C2  UNL     1      14.952  77.848  25.423  1.00  0.00     0.188 C 
BRANCH   6   7
HETATM    7  N2  UNL     1      15.167  77.233  26.739  1.00  0.00    -0.324 N 
HETATM    8  C1  UNL     1      16.416  76.981  27.309  1.00  0.00     0.330 C 
HETATM    9  N1  UNL     1      16.529  76.388  28.577  1.00  0.00    -0.040 NA
HETATM   10  O1  UNL     1      17.489  77.279  26.700  1.00  0.00    -0.251 OA
ATOM     11  H2  UNL     1      14.342  76.970  27.278  1.00  0.00     0.166 HD
ENDBRANCH   6   7
BRANCH   6  12
HETATM   12  C3  UNL     1      15.274  76.934  24.324  1.00  0.00     0.057 C 
BRANCH  12  13
HETATM   13  C4  UNL     1      15.185  75.475  24.540  1.00  0.00     0.117 C 
BRANCH  13  14
HETATM   14  C5  UNL     1      16.359  74.639  24.556  1.00  0.00     0.172 C 
HETATM   15  O2  UNL     1      16.798  73.920  25.475  1.00  0.00    -0.648 OA
HETATM   16  O3  UNL     1      17.174  74.591  23.384  1.00  0.00    -0.648 OA
ENDBRANCH  13  14
ENDBRANCH  12  13
ENDBRANCH   6  12
ENDBRANCH   3   6
ENDBRANCH   1   2
BRANCH   1  17
HETATM   17  N4  UNL     1      15.341  82.494  26.724  1.00  0.00    -0.050 N 
ATOM     18  H43 UNL     1      15.417  82.682  27.724  1.00  0.00     0.277 HD
ATOM     19  H42 UNL     1      15.669  83.402  26.394  1.00  0.00     0.277 HD
ATOM     20  H41 UNL     1      14.387  82.284  26.429  1.00  0.00     0.277 HD
ENDBRANCH   1  17
BRANCH   1  21
HETATM   21  N5  UNL     1      16.891  81.654  25.106  1.00  0.00    -0.358 N 
ATOM     22  H5  UNL     1      17.862  81.351  25.036  1.00  0.00     0.158 HD
BRANCH  21  23
HETATM   23  C8  UNL     1      16.324  82.324  24.017  1.00  0.00     0.268 C 
BRANCH  23  24
HETATM   24  O5  UNL     1      16.066  81.665  22.857  1.00  0.00    -0.371 OA
ATOM     25  H5  UNL     1      15.213  81.278  22.700  1.00  0.00     0.212 HD
ENDBRANCH  23  24
BRANCH  23  26
HETATM   26  C9  UNL     1      17.242  83.484  23.686  1.00  0.00     0.074 A 
HETATM   27  C10 UNL     1      17.186  84.755  24.195  1.00  0.00     0.118 A 
HETATM   28  N6  UNL     1      18.194  85.469  23.628  1.00  0.00    -0.360 N 
HETATM   29  C11 UNL     1      18.851  84.651  22.791  1.00  0.00     0.180 A 
ATOM     30  H6  UNL     1      18.413  86.450  23.805  1.00  0.00     0.166 HD
HETATM   31  N7  UNL     1      18.261  83.436  22.831  1.00  0.00    -0.351 N 
ATOM     32  H7  UNL     1      18.549  82.617  22.295  1.00  0.00     0.166 HD
ENDBRANCH  23  26
ENDBRANCH  21  23
ENDBRANCH   1  21
TORSDOF 11
ENDMDL
