MODEL 1
REMARK VINA RESULT: -8.133134366      0.000      0.000
REMARK  7 active torsions:
REMARK  status: ('A' for Active; 'I' for Inactive)
REMARK    1  A    between atoms: N1_1  and  C1_4 
REMARK    2  A    between atoms: C3_9  and  N4_10 
REMARK       I    between atoms: N4_10  and  C4_12 
REMARK    3  A    between atoms: C4_12  and  C5_14 
REMARK    4  A    between atoms: N5_15  and  N6_17 
REMARK    5  A    between atoms: C6_19  and  C7_20 
REMARK    6  A    between atoms: C7_20  and  O3_22 
REMARK    7  A    between atoms: O3_22  and  N7_23 
ROOT
HETATM    1  N4  UNL     1      16.482  77.163  26.332  1.00  0.00    -0.315 N 
ATOM      2  H4  UNL     1      17.083  77.258  25.513  1.00  0.00     0.169 HD
HETATM    3  C4  UNL     1      16.968  76.452  27.456  1.00  0.00     0.263 C 
HETATM    4  O1  UNL     1      16.210  76.347  28.455  1.00  0.00    -0.267 OA
ENDROOT
BRANCH   1   5
HETATM    5  C3  UNL     1      15.195  77.746  26.303  1.00  0.00     0.146 A 
HETATM    6  C2  UNL     1      14.152  77.046  25.706  1.00  0.00     0.164 A 
HETATM    7  N2  UNL     1      12.947  77.631  25.698  1.00  0.00    -0.177 N 
HETATM    8  N3  UNL     1      14.361  75.750  25.122  1.00  0.00    -0.080 NA
HETATM    9  C1  UNL     1      12.695  78.840  26.228  1.00  0.00     0.680 A 
ATOM     10  H2  UNL     1      12.173  77.128  25.263  1.00  0.00     0.185 HD
HETATM   11  N8  UNL     1      13.689  79.543  26.815  1.00  0.00    -0.154 N 
HETATM   12  C8  UNL     1      14.911  78.981  26.838  1.00  0.00     0.289 A 
ATOM     13  H8  UNL     1      13.520  80.462  27.223  1.00  0.00     0.187 HD
HETATM   14  O4  UNL     1      15.858  79.620  27.382  1.00  0.00    -0.265 OA
BRANCH   9  15
HETATM   15  N1  UNL     1      11.509  79.381  26.204  1.00  0.00    -0.234 N 
ATOM     16  H12 UNL     1      10.858  79.055  25.490  1.00  0.00     0.174 HD
ATOM     17  H11 UNL     1      11.224  80.105  26.864  1.00  0.00     0.174 HD
ENDBRANCH   9  15
ENDBRANCH   1   5
BRANCH   3  18
HETATM   18  C5  UNL     1      18.283  75.847  27.507  1.00  0.00     0.181 C 
HETATM   19  N5  UNL     1      18.519  74.643  27.172  1.00  0.00    -0.307 N 
ATOM     20  H5  UNL     1      19.483  74.318  27.245  1.00  0.00     0.186 HD
BRANCH  19  21
HETATM   21  N6  UNL     1      17.581  73.740  26.718  1.00  0.00    -0.306 N 
HETATM   22  C6  UNL     1      17.497  73.367  25.503  1.00  0.00     0.191 C 
ATOM     23  H6  UNL     1      16.921  73.350  27.391  1.00  0.00     0.186 HD
BRANCH  22  24
HETATM   24  C7  UNL     1      18.413  73.890  24.503  1.00  0.00     0.321 C 
HETATM   25  O2  UNL     1      19.661  73.921  24.721  1.00  0.00    -0.257 OA
BRANCH  24  26
HETATM   26  O3  UNL     1      17.933  74.363  23.290  1.00  0.00    -0.202 OA
BRANCH  26  27
HETATM   27  N7  UNL     1      17.748  73.477  22.278  1.00  0.00    -0.302 N 
ATOM     28  H72 UNL     1      18.315  72.630  22.235  1.00  0.00     0.184 HD
ATOM     29  H71 UNL     1      17.037  73.684  21.576  1.00  0.00     0.184 HD
ENDBRANCH  26  27
ENDBRANCH  24  26
ENDBRANCH  22  24
ENDBRANCH  19  21
ENDBRANCH   3  18
TORSDOF 7
ENDMDL
MODEL 2
REMARK VINA RESULT: -7.987592335      1.030      1.834
REMARK  7 active torsions:
REMARK  status: ('A' for Active; 'I' for Inactive)
REMARK    1  A    between atoms: N1_1  and  C1_4 
REMARK    2  A    between atoms: C3_9  and  N4_10 
REMARK       I    between atoms: N4_10  and  C4_12 
REMARK    3  A    between atoms: C4_12  and  C5_14 
REMARK    4  A    between atoms: N5_15  and  N6_17 
REMARK    5  A    between atoms: C6_19  and  C7_20 
REMARK    6  A    between atoms: C7_20  and  O3_22 
REMARK    7  A    between atoms: O3_22  and  N7_23 
ROOT
HETATM    1  N4  UNL     1      16.580  77.232  26.310  1.00  0.00    -0.315 N 
ATOM      2  H4  UNL     1      17.213  77.332  25.517  1.00  0.00     0.169 HD
HETATM    3  C4  UNL     1      17.003  76.473  27.429  1.00  0.00     0.263 C 
HETATM    4  O1  UNL     1      16.206  76.362  28.396  1.00  0.00    -0.267 OA
ENDROOT
BRANCH   1   5
HETATM    5  C3  UNL     1      15.312  77.855  26.254  1.00  0.00     0.146 A 
HETATM    6  C2  UNL     1      15.183  79.160  26.718  1.00  0.00     0.164 A 
HETATM    7  N2  UNL     1      13.966  79.716  26.648  1.00  0.00    -0.177 N 
HETATM    8  N3  UNL     1      16.308  79.878  27.249  1.00  0.00    -0.080 NA
HETATM    9  C1  UNL     1      12.880  79.091  26.162  1.00  0.00     0.680 A 
ATOM     10  H2  UNL     1      13.857  80.673  26.985  1.00  0.00     0.185 HD
HETATM   11  N8  UNL     1      12.977  77.823  25.704  1.00  0.00    -0.154 N 
HETATM   12  C8  UNL     1      14.186  77.237  25.761  1.00  0.00     0.289 A 
ATOM     13  H8  UNL     1      12.166  77.330  25.331  1.00  0.00     0.187 HD
HETATM   14  O4  UNL     1      14.302  76.050  25.338  1.00  0.00    -0.265 OA
BRANCH   9  15
HETATM   15  N1  UNL     1      11.709  79.661  26.108  1.00  0.00    -0.234 N 
ATOM     16  H12 UNL     1      11.070  79.497  26.885  1.00  0.00     0.174 HD
ATOM     17  H11 UNL     1      11.424  80.253  25.327  1.00  0.00     0.174 HD
ENDBRANCH   9  15
ENDBRANCH   1   5
BRANCH   3  18
HETATM   18  C5  UNL     1      18.296  75.826  27.507  1.00  0.00     0.181 C 
HETATM   19  N5  UNL     1      18.501  74.615  27.176  1.00  0.00    -0.307 N 
ATOM     20  H5  UNL     1      19.453  74.260  27.270  1.00  0.00     0.186 HD
BRANCH  19  21
HETATM   21  N6  UNL     1      17.546  73.743  26.700  1.00  0.00    -0.306 N 
HETATM   22  C6  UNL     1      17.468  73.385  25.480  1.00  0.00     0.191 C 
ATOM     23  H6  UNL     1      16.866  73.365  27.360  1.00  0.00     0.186 HD
BRANCH  22  24
HETATM   24  C7  UNL     1      18.411  73.892  24.498  1.00  0.00     0.321 C 
HETATM   25  O2  UNL     1      19.657  73.890  24.735  1.00  0.00    -0.257 OA
BRANCH  24  26
HETATM   26  O3  UNL     1      17.962  74.387  23.283  1.00  0.00    -0.202 OA
BRANCH  26  27
HETATM   27  N7  UNL     1      17.757  73.513  22.265  1.00  0.00    -0.302 N 
ATOM     28  H72 UNL     1      18.152  73.704  21.344  1.00  0.00     0.184 HD
ATOM     29  H71 UNL     1      17.204  72.675  22.448  1.00  0.00     0.184 HD
ENDBRANCH  26  27
ENDBRANCH  24  26
ENDBRANCH  22  24
ENDBRANCH  19  21
ENDBRANCH   3  18
TORSDOF 7
ENDMDL
MODEL 3
REMARK VINA RESULT: -7.793392728      3.346      5.282
REMARK  7 active torsions:
REMARK  status: ('A' for Active; 'I' for Inactive)
REMARK    1  A    between atoms: N1_1  and  C1_4 
REMARK    2  A    between atoms: C3_9  and  N4_10 
REMARK       I    between atoms: N4_10  and  C4_12 
REMARK    3  A    between atoms: C4_12  and  C5_14 
REMARK    4  A    between atoms: N5_15  and  N6_17 
REMARK    5  A    between atoms: C6_19  and  C7_20 
REMARK    6  A    between atoms: C7_20  and  O3_22 
REMARK    7  A    between atoms: O3_22  and  N7_23 
ROOT
HETATM    1  N4  UNL     1      16.880  77.072  27.235  1.00  0.00    -0.315 N 
ATOM      2  H4  UNL     1      17.619  77.588  26.757  1.00  0.00     0.169 HD
HETATM    3  C4  UNL     1      17.172  76.454  28.475  1.00  0.00     0.263 C 
HETATM    4  O1  UNL     1      16.246  75.823  29.048  1.00  0.00    -0.267 OA
ENDROOT
BRANCH   1   5
HETATM    5  C3  UNL     1      15.602  77.000  26.636  1.00  0.00     0.146 A 
HETATM    6  C2  UNL     1      15.356  76.008  25.691  1.00  0.00     0.164 A 
HETATM    7  N2  UNL     1      14.133  75.972  25.145  1.00  0.00    -0.177 N 
HETATM    8  N3  UNL     1      16.373  75.064  25.320  1.00  0.00    -0.080 NA
HETATM    9  C1  UNL     1      13.146  76.830  25.456  1.00  0.00     0.680 A 
ATOM     10  H2  UNL     1      13.940  75.250  24.452  1.00  0.00     0.185 HD
HETATM   11  N8  UNL     1      13.357  77.804  26.370  1.00  0.00    -0.154 N 
HETATM   12  C8  UNL     1      14.575  77.866  26.935  1.00  0.00     0.289 A 
ATOM     13  H8  UNL     1      12.622  78.465  26.620  1.00  0.00     0.187 HD
HETATM   14  O4  UNL     1      14.797  78.768  27.794  1.00  0.00    -0.265 OA
BRANCH   9  15
HETATM   15  N1  UNL     1      11.966  76.767  24.906  1.00  0.00    -0.234 N 
ATOM     16  H12 UNL     1      11.597  75.841  24.687  1.00  0.00     0.174 HD
ATOM     17  H11 UNL     1      11.416  77.600  24.694  1.00  0.00     0.174 HD
ENDBRANCH   9  15
ENDBRANCH   1   5
BRANCH   3  18
HETATM   18  C5  UNL     1      18.474  76.515  29.107  1.00  0.00     0.181 C 
HETATM   19  N5  UNL     1      18.726  76.024  30.253  1.00  0.00    -0.307 N 
ATOM     20  H5  UNL     1      19.679  76.122  30.604  1.00  0.00     0.186 HD
BRANCH  19  21
HETATM   21  N6  UNL     1      17.821  75.371  31.060  1.00  0.00    -0.306 N 
HETATM   22  C6  UNL     1      17.555  75.733  32.253  1.00  0.00     0.191 C 
ATOM     23  H6  UNL     1      17.338  74.554  30.684  1.00  0.00     0.186 HD
BRANCH  22  24
HETATM   24  C7  UNL     1      18.212  76.888  32.839  1.00  0.00     0.321 C 
HETATM   25  O2  UNL     1      19.470  76.907  32.996  1.00  0.00    -0.257 OA
BRANCH  24  26
HETATM   26  O3  UNL     1      17.471  77.991  33.237  1.00  0.00    -0.202 OA
BRANCH  26  27
HETATM   27  N7  UNL     1      18.082  78.945  33.985  1.00  0.00    -0.302 N 
ATOM     28  H72 UNL     1      18.230  78.791  34.982  1.00  0.00     0.184 HD
ATOM     29  H71 UNL     1      18.382  79.805  33.524  1.00  0.00     0.184 HD
ENDBRANCH  26  27
ENDBRANCH  24  26
ENDBRANCH  22  24
ENDBRANCH  19  21
ENDBRANCH   3  18
TORSDOF 7
ENDMDL
MODEL 4
REMARK VINA RESULT: -7.553557964      3.247      6.606
REMARK  7 active torsions:
REMARK  status: ('A' for Active; 'I' for Inactive)
REMARK    1  A    between atoms: N1_1  and  C1_4 
REMARK    2  A    between atoms: C3_9  and  N4_10 
REMARK       I    between atoms: N4_10  and  C4_12 
REMARK    3  A    between atoms: C4_12  and  C5_14 
REMARK    4  A    between atoms: N5_15  and  N6_17 
REMARK    5  A    between atoms: C6_19  and  C7_20 
REMARK    6  A    between atoms: C7_20  and  O3_22 
REMARK    7  A    between atoms: O3_22  and  N7_23 
ROOT
HETATM    1  N4  UNL     1      17.212  76.462  27.456  1.00  0.00    -0.315 N 
ATOM      2  H4  UNL     1      17.731  75.968  26.731  1.00  0.00     0.169 HD
HETATM    3  C4  UNL     1      16.173  77.345  27.069  1.00  0.00     0.263 C 
HETATM    4  O1  UNL     1      15.545  77.945  27.979  1.00  0.00    -0.267 OA
ENDROOT
BRANCH   1   5
HETATM    5  C3  UNL     1      17.553  76.243  28.810  1.00  0.00     0.146 A 
HETATM    6  C2  UNL     1      18.734  76.788  29.303  1.00  0.00     0.164 A 
HETATM    7  N2  UNL     1      19.024  76.558  30.591  1.00  0.00    -0.177 N 
HETATM    8  N3  UNL     1      19.605  77.564  28.464  1.00  0.00    -0.080 NA
HETATM    9  C1  UNL     1      18.246  75.840  31.419  1.00  0.00     0.680 A 
ATOM     10  H2  UNL     1      19.887  76.952  30.965  1.00  0.00     0.185 HD
HETATM   11  N8  UNL     1      17.093  75.299  30.967  1.00  0.00    -0.154 N 
HETATM   12  C8  UNL     1      16.775  75.513  29.678  1.00  0.00     0.289 A 
ATOM     13  H8  UNL     1      16.488  74.751  31.579  1.00  0.00     0.187 HD
HETATM   14  O4  UNL     1      15.700  75.017  29.231  1.00  0.00    -0.265 OA
BRANCH   9  15
HETATM   15  N1  UNL     1      18.557  75.635  32.669  1.00  0.00    -0.234 N 
ATOM     16  H12 UNL     1      19.374  75.055  32.861  1.00  0.00     0.174 HD
ATOM     17  H11 UNL     1      18.017  76.030  33.439  1.00  0.00     0.174 HD
ENDBRANCH   9  15
ENDBRANCH   1   5
BRANCH   3  18
HETATM   18  C5  UNL     1      15.808  77.584  25.688  1.00  0.00     0.181 C 
HETATM   19  N5  UNL     1      15.781  78.739  25.155  1.00  0.00    -0.307 N 
ATOM     20  H5  UNL     1      15.510  78.795  24.173  1.00  0.00     0.186 HD
BRANCH  19  21
HETATM   21  N6  UNL     1      16.089  79.922  25.792  1.00  0.00    -0.306 N 
HETATM   22  C6  UNL     1      15.243  80.855  25.986  1.00  0.00     0.191 C 
ATOM     23  H6  UNL     1      17.043  80.057  26.127  1.00  0.00     0.186 HD
BRANCH  22  24
HETATM   24  C7  UNL     1      13.871  80.716  25.531  1.00  0.00     0.321 C 
HETATM   25  O2  UNL     1      13.569  80.906  24.314  1.00  0.00    -0.257 OA
BRANCH  24  26
HETATM   26  O3  UNL     1      12.866  80.372  26.423  1.00  0.00    -0.202 OA
BRANCH  26  27
HETATM   27  N7  UNL     1      12.768  79.077  26.819  1.00  0.00    -0.302 N 
ATOM     28  H72 UNL     1      12.573  78.859  27.796  1.00  0.00     0.184 HD
ATOM     29  H71 UNL     1      12.892  78.345  26.119  1.00  0.00     0.184 HD
ENDBRANCH  26  27
ENDBRANCH  24  26
ENDBRANCH  22  24
ENDBRANCH  19  21
ENDBRANCH   3  18
TORSDOF 7
ENDMDL
MODEL 5
REMARK VINA RESULT: -7.431603954      3.332      5.529
REMARK  7 active torsions:
REMARK  status: ('A' for Active; 'I' for Inactive)
REMARK    1  A    between atoms: N1_1  and  C1_4 
REMARK    2  A    between atoms: C3_9  and  N4_10 
REMARK       I    between atoms: N4_10  and  C4_12 
REMARK    3  A    between atoms: C4_12  and  C5_14 
REMARK    4  A    between atoms: N5_15  and  N6_17 
REMARK    5  A    between atoms: C6_19  and  C7_20 
REMARK    6  A    between atoms: C7_20  and  O3_22 
REMARK    7  A    between atoms: O3_22  and  N7_23 
ROOT
HETATM    1  N4  UNL     1      17.048  77.001  27.042  1.00  0.00    -0.315 N 
ATOM      2  H4  UNL     1      17.805  77.472  26.547  1.00  0.00     0.169 HD
HETATM    3  C4  UNL     1      17.293  76.496  28.342  1.00  0.00     0.263 C 
HETATM    4  O1  UNL     1      16.345  75.918  28.934  1.00  0.00    -0.267 OA
ENDROOT
BRANCH   1   5
HETATM    5  C3  UNL     1      15.793  76.874  26.405  1.00  0.00     0.146 A 
HETATM    6  C2  UNL     1      14.824  77.847  26.629  1.00  0.00     0.164 A 
HETATM    7  N2  UNL     1      13.646  77.692  26.008  1.00  0.00    -0.177 N 
HETATM    8  N3  UNL     1      15.077  78.968  27.489  1.00  0.00    -0.080 NA
HETATM    9  C1  UNL     1      13.356  76.663  25.193  1.00  0.00     0.680 A 
ATOM     10  H2  UNL     1      12.927  78.398  26.163  1.00  0.00     0.185 HD
HETATM   11  N8  UNL     1      14.278  75.704  24.957  1.00  0.00    -0.154 N 
HETATM   12  C8  UNL     1      15.471  75.832  25.567  1.00  0.00     0.289 A 
ATOM     13  H8  UNL     1      14.079  74.915  24.343  1.00  0.00     0.187 HD
HETATM   14  O4  UNL     1      16.351  74.946  25.362  1.00  0.00    -0.265 OA
BRANCH   9  15
HETATM   15  N1  UNL     1      12.200  76.542  24.603  1.00  0.00    -0.234 N 
ATOM     16  H12 UNL     1      12.175  76.652  23.589  1.00  0.00     0.174 HD
ATOM     17  H11 UNL     1      11.341  76.346  25.117  1.00  0.00     0.174 HD
ENDBRANCH   9  15
ENDBRANCH   1   5
BRANCH   3  18
HETATM   18  C5  UNL     1      18.571  76.615  29.013  1.00  0.00     0.181 C 
HETATM   19  N5  UNL     1      18.820  76.107  30.153  1.00  0.00    -0.307 N 
ATOM     20  H5  UNL     1      19.755  76.250  30.534  1.00  0.00     0.186 HD
BRANCH  19  21
HETATM   21  N6  UNL     1      17.932  75.380  30.916  1.00  0.00    -0.306 N 
HETATM   22  C6  UNL     1      17.612  75.692  32.109  1.00  0.00     0.191 C 
ATOM     23  H6  UNL     1      17.509  74.548  30.504  1.00  0.00     0.186 HD
BRANCH  22  24
HETATM   24  C7  UNL     1      18.184  76.867  32.745  1.00  0.00     0.321 C 
HETATM   25  O2  UNL     1      19.424  76.926  33.001  1.00  0.00    -0.257 OA
BRANCH  24  26
HETATM   26  O3  UNL     1      17.378  77.945  33.082  1.00  0.00    -0.202 OA
BRANCH  26  27
HETATM   27  N7  UNL     1      17.736  78.711  34.144  1.00  0.00    -0.302 N 
ATOM     28  H72 UNL     1      18.665  79.131  34.177  1.00  0.00     0.184 HD
ATOM     29  H71 UNL     1      17.057  78.851  34.893  1.00  0.00     0.184 HD
ENDBRANCH  26  27
ENDBRANCH  24  26
ENDBRANCH  22  24
ENDBRANCH  19  21
ENDBRANCH   3  18
TORSDOF 7
ENDMDL
