MODEL 1
REMARK VINA RESULT: -7.755412375      0.000      0.000
REMARK  15 active torsions:
REMARK  status: ('A' for Active; 'I' for Inactive)
REMARK    1  A    between atoms: C2_2  and  C3_3 
REMARK    2  A    between atoms: C3_3  and  C4_4 
REMARK    3  A    between atoms: C4_4  and  N1_5 
REMARK    4  A    between atoms: N1_5  and  C5_6 
REMARK    5  A    between atoms: N1_5  and  C7_8 
REMARK    6  A    between atoms: N1_5  and  C9_11 
REMARK    7  A    between atoms: C7_8  and  C8_9 
REMARK    8  A    between atoms: C9_11  and  C10_12 
REMARK    9  A    between atoms: C10_12  and  C11_13 
REMARK   10  A    between atoms: N2_16  and  C14_17 
REMARK   11  A    between atoms: C14_17  and  C15_18 
REMARK   12  A    between atoms: C15_18  and  N3_19 
REMARK       I    between atoms: N3_19  and  C16_20 
REMARK   13  A    between atoms: C16_20  and  C17_22 
REMARK   14  A    between atoms: C20_25  and  N4_26 
REMARK   15  A    between atoms: N4_26  and  C21_28 
ROOT
HETATM    1  C14 UNL     1       8.717   2.996  49.430  1.00  0.00     0.091 C 
ENDROOT
BRANCH   1   2
HETATM    2  N2  UNL     1       8.841   1.796  50.117  1.00  0.00    -0.290 NA
HETATM    3  C13 UNL     1       8.376   0.584  49.536  1.00  0.00     0.095 C 
HETATM    4  C12 UNL     1       9.338  -0.568  49.897  1.00  0.00     0.019 C 
HETATM    5  C11 UNL     1      10.533  -0.404  48.969  1.00  0.00    -0.011 C 
HETATM    6  C29 UNL     1      11.013   1.052  49.293  1.00  0.00     0.019 C 
HETATM    7  C28 UNL     1      10.295   1.624  50.465  1.00  0.00     0.095 C 
BRANCH   5   8
HETATM    8  C10 UNL     1      11.703  -1.273  49.343  1.00  0.00     0.032 C 
BRANCH   8   9
HETATM    9  C9  UNL     1      12.775  -1.412  48.344  1.00  0.00     0.238 C 
BRANCH   9  10
HETATM   10  N1  UNL     1      13.466  -2.669  48.193  1.00  0.00    -0.067 N 
BRANCH  10  11
HETATM   11  C4  UNL     1      14.830  -2.334  47.790  1.00  0.00     0.237 C 
BRANCH  11  12
HETATM   12  C3  UNL     1      15.121  -0.891  47.585  1.00  0.00     0.027 C 
BRANCH  12  13
HETATM   13  C2  UNL     1      16.494  -0.595  48.238  1.00  0.00    -0.003 C 
HETATM   14  C1  UNL     1      17.294  -1.882  48.302  1.00  0.00     0.005 C 
ENDBRANCH  12  13
ENDBRANCH  11  12
ENDBRANCH  10  11
BRANCH  10  15
HETATM   15  C5  UNL     1      12.770  -3.438  47.202  1.00  0.00     0.233 C 
HETATM   16  C6  UNL     1      11.354  -3.785  47.410  1.00  0.00     0.035 C 
ENDBRANCH  10  15
BRANCH  10  17
HETATM   17  C7  UNL     1      13.485  -3.484  49.383  1.00  0.00     0.248 C 
BRANCH  17  18
HETATM   18  C8  UNL     1      14.708  -4.260  49.698  1.00  0.00     0.113 C 
HETATM   19 BR1  UNL     1      14.710  -6.116  49.288  1.00  0.00    -0.095 Br
ENDBRANCH  17  18
ENDBRANCH  10  17
ENDBRANCH   9  10
ENDBRANCH   8   9
ENDBRANCH   5   8
ENDBRANCH   1   2
BRANCH   1  20
HETATM   20  C15 UNL     1       7.850   4.077  50.051  1.00  0.00     0.198 C 
BRANCH  20  21
HETATM   21  N3  UNL     1       6.713   3.533  50.596  1.00  0.00    -0.378 NA
HETATM   22  C16 UNL     1       5.569   2.993  51.149  1.00  0.00     0.327 C 
HETATM   23  O1  UNL     1       4.817   3.536  51.980  1.00  0.00    -0.251 OA
BRANCH  22  24
HETATM   24  C17 UNL     1       5.186   1.605  50.755  1.00  0.00     0.069 A 
HETATM   25  C18 UNL     1       5.506   0.675  51.762  1.00  0.00     0.024 A 
HETATM   26  C19 UNL     1       5.356  -0.655  51.497  1.00  0.00     0.049 A 
HETATM   27  C20 UNL     1       4.888  -1.123  50.253  1.00  0.00     0.101 A 
HETATM   28  N5  UNL     1       4.598  -0.183  49.343  1.00  0.00    -0.346 N 
HETATM   29  C26 UNL     1       4.742   1.152  49.585  1.00  0.00     0.023 A 
ATOM     30  H5  UNL     1       4.253  -0.479  48.429  1.00  0.00     0.167 HD
HETATM   31  C27 UNL     1       4.378   2.153  48.528  1.00  0.00     0.069 C 
BRANCH  27  32
HETATM   32  N4  UNL     1       4.833  -2.349  50.125  1.00  0.00    -0.372 N 
ATOM     33  H4  UNL     1       4.010  -2.712  50.606  1.00  0.00     0.161 HD
BRANCH  32  34
HETATM   34  C21 UNL     1       5.537  -3.397  49.531  1.00  0.00     0.083 C 
HETATM   35  C22 UNL     1       5.376  -3.460  48.014  1.00  0.00     0.025 C 
HETATM   36  C23 UNL     1       6.745  -3.433  47.429  1.00  0.00     0.002 C 
HETATM   37  C24 UNL     1       7.744  -3.462  48.544  1.00  0.00     0.002 C 
HETATM   38  C25 UNL     1       6.983  -3.540  49.853  1.00  0.00     0.025 C 
ENDBRANCH  32  34
ENDBRANCH  27  32
ENDBRANCH  22  24
ENDBRANCH  20  21
ENDBRANCH   1  20
TORSDOF 15
ENDMDL
MODEL 2
REMARK VINA RESULT: -7.680753020      3.822      9.174
REMARK  15 active torsions:
REMARK  status: ('A' for Active; 'I' for Inactive)
REMARK    1  A    between atoms: C2_2  and  C3_3 
REMARK    2  A    between atoms: C3_3  and  C4_4 
REMARK    3  A    between atoms: C4_4  and  N1_5 
REMARK    4  A    between atoms: N1_5  and  C5_6 
REMARK    5  A    between atoms: N1_5  and  C7_8 
REMARK    6  A    between atoms: N1_5  and  C9_11 
REMARK    7  A    between atoms: C7_8  and  C8_9 
REMARK    8  A    between atoms: C9_11  and  C10_12 
REMARK    9  A    between atoms: C10_12  and  C11_13 
REMARK   10  A    between atoms: N2_16  and  C14_17 
REMARK   11  A    between atoms: C14_17  and  C15_18 
REMARK   12  A    between atoms: C15_18  and  N3_19 
REMARK       I    between atoms: N3_19  and  C16_20 
REMARK   13  A    between atoms: C16_20  and  C17_22 
REMARK   14  A    between atoms: C20_25  and  N4_26 
REMARK   15  A    between atoms: N4_26  and  C21_28 
ROOT
HETATM    1  C14 UNL     1      12.642   0.139  48.503  1.00  0.00     0.091 C 
ENDROOT
BRANCH   1   2
HETATM    2  N2  UNL     1      11.870   0.615  49.555  1.00  0.00    -0.290 NA
HETATM    3  C13 UNL     1      11.214   1.873  49.452  1.00  0.00     0.095 C 
HETATM    4  C12 UNL     1       9.833   1.796  50.138  1.00  0.00     0.019 C 
HETATM    5  C11 UNL     1       8.929   1.072  49.150  1.00  0.00    -0.011 C 
HETATM    6  C29 UNL     1       9.690  -0.278  48.926  1.00  0.00     0.019 C 
HETATM    7  C28 UNL     1      10.835  -0.432  49.865  1.00  0.00     0.095 C 
BRANCH   5   8
HETATM    8  C10 UNL     1       7.608   0.663  49.740  1.00  0.00     0.032 C 
BRANCH   8   9
HETATM    9  C9  UNL     1       7.337  -0.782  49.830  1.00  0.00     0.238 C 
BRANCH   9  10
HETATM   10  N1  UNL     1       6.109  -1.323  49.303  1.00  0.00    -0.067 N 
BRANCH  10  11
HETATM   11  C4  UNL     1       6.155  -2.760  49.568  1.00  0.00     0.237 C 
BRANCH  11  12
HETATM   12  C3  UNL     1       7.481  -3.319  49.941  1.00  0.00     0.027 C 
BRANCH  12  13
HETATM   13  C2  UNL     1       7.853  -4.385  48.882  1.00  0.00    -0.003 C 
HETATM   14  C1  UNL     1       8.850  -3.782  47.909  1.00  0.00     0.005 C 
ENDBRANCH  12  13
ENDBRANCH  11  12
ENDBRANCH  10  11
BRANCH  10  15
HETATM   15  C5  UNL     1       6.061  -1.021  47.902  1.00  0.00     0.233 C 
HETATM   16  C6  UNL     1       5.571  -2.035  46.953  1.00  0.00     0.035 C 
ENDBRANCH  10  15
BRANCH  10  17
HETATM   17  C7  UNL     1       4.914  -0.751  49.872  1.00  0.00     0.248 C 
BRANCH  17  18
HETATM   18  C8  UNL     1       4.685  -0.880  51.331  1.00  0.00     0.113 C 
HETATM   19 BR1  UNL     1       4.175   0.680  52.289  1.00  0.00    -0.095 Br
ENDBRANCH  17  18
ENDBRANCH  10  17
ENDBRANCH   9  10
ENDBRANCH   8   9
ENDBRANCH   5   8
ENDBRANCH   1   2
BRANCH   1  20
HETATM   20  C15 UNL     1      13.909   0.901  48.159  1.00  0.00     0.198 C 
BRANCH  20  21
HETATM   21  N3  UNL     1      14.986   0.050  48.102  1.00  0.00    -0.378 NA
HETATM   22  C16 UNL     1      16.073  -0.799  48.041  1.00  0.00     0.327 C 
HETATM   23  O1  UNL     1      17.225  -0.506  47.669  1.00  0.00    -0.251 OA
BRANCH  22  24
HETATM   24  C17 UNL     1      15.870  -2.227  48.423  1.00  0.00     0.069 A 
HETATM   25  C18 UNL     1      14.753  -2.783  47.773  1.00  0.00     0.024 A 
HETATM   26  C19 UNL     1      14.344  -4.036  48.128  1.00  0.00     0.049 A 
HETATM   27  C20 UNL     1      15.008  -4.788  49.117  1.00  0.00     0.101 A 
HETATM   28  N5  UNL     1      16.067  -4.200  49.691  1.00  0.00    -0.346 N 
HETATM   29  C26 UNL     1      16.492  -2.948  49.354  1.00  0.00     0.023 A 
ATOM     30  H5  UNL     1      16.578  -4.712  50.411  1.00  0.00     0.167 HD
HETATM   31  C27 UNL     1      17.699  -2.357  50.021  1.00  0.00     0.069 C 
BRANCH  27  32
HETATM   32  N4  UNL     1      14.518  -5.891  49.375  1.00  0.00    -0.372 N 
ATOM     33  H4  UNL     1      13.581  -5.774  49.761  1.00  0.00     0.161 HD
BRANCH  32  34
HETATM   34  C21 UNL     1      14.836  -7.248  49.305  1.00  0.00     0.083 C 
HETATM   35  C22 UNL     1      16.085  -7.541  48.476  1.00  0.00     0.025 C 
HETATM   36  C23 UNL     1      17.015  -8.312  49.346  1.00  0.00     0.002 C 
HETATM   37  C24 UNL     1      16.333  -8.592  50.649  1.00  0.00     0.002 C 
HETATM   38  C25 UNL     1      14.934  -8.009  50.580  1.00  0.00     0.025 C 
ENDBRANCH  32  34
ENDBRANCH  27  32
ENDBRANCH  22  24
ENDBRANCH  20  21
ENDBRANCH   1  20
TORSDOF 15
ENDMDL
MODEL 3
REMARK VINA RESULT: -7.513734466      4.168      8.410
REMARK  15 active torsions:
REMARK  status: ('A' for Active; 'I' for Inactive)
REMARK    1  A    between atoms: C2_2  and  C3_3 
REMARK    2  A    between atoms: C3_3  and  C4_4 
REMARK    3  A    between atoms: C4_4  and  N1_5 
REMARK    4  A    between atoms: N1_5  and  C5_6 
REMARK    5  A    between atoms: N1_5  and  C7_8 
REMARK    6  A    between atoms: N1_5  and  C9_11 
REMARK    7  A    between atoms: C7_8  and  C8_9 
REMARK    8  A    between atoms: C9_11  and  C10_12 
REMARK    9  A    between atoms: C10_12  and  C11_13 
REMARK   10  A    between atoms: N2_16  and  C14_17 
REMARK   11  A    between atoms: C14_17  and  C15_18 
REMARK   12  A    between atoms: C15_18  and  N3_19 
REMARK       I    between atoms: N3_19  and  C16_20 
REMARK   13  A    between atoms: C16_20  and  C17_22 
REMARK   14  A    between atoms: C20_25  and  N4_26 
REMARK   15  A    between atoms: N4_26  and  C21_28 
ROOT
HETATM    1  C14 UNL     1      10.444   1.846  50.025  1.00  0.00     0.091 C 
ENDROOT
BRANCH   1   2
HETATM    2  N2  UNL     1       9.434   2.443  49.282  1.00  0.00    -0.290 NA
HETATM    3  C13 UNL     1       8.800   1.730  48.227  1.00  0.00     0.095 C 
HETATM    4  C12 UNL     1       7.297   2.078  48.195  1.00  0.00     0.019 C 
HETATM    5  C11 UNL     1       6.669   1.270  49.322  1.00  0.00    -0.011 C 
HETATM    6  C29 UNL     1       7.484   1.748  50.571  1.00  0.00     0.019 C 
HETATM    7  C28 UNL     1       8.373   2.897  50.248  1.00  0.00     0.095 C 
BRANCH   5   8
HETATM    8  C10 UNL     1       5.252   1.671  49.626  1.00  0.00     0.032 C 
BRANCH   8   9
HETATM    9  C9  UNL     1       4.796   2.965  49.092  1.00  0.00     0.238 C 
BRANCH   9  10
HETATM   10  N1  UNL     1       4.003   3.848  49.912  1.00  0.00    -0.067 N 
BRANCH  10  11
HETATM   11  C4  UNL     1       4.050   5.155  49.260  1.00  0.00     0.237 C 
BRANCH  11  12
HETATM   12  C3  UNL     1       4.844   5.238  48.006  1.00  0.00     0.027 C 
BRANCH  12  13
HETATM   13  C2  UNL     1       5.833   6.420  48.159  1.00  0.00    -0.003 C 
HETATM   14  C1  UNL     1       7.243   5.868  48.266  1.00  0.00     0.005 C 
ENDBRANCH  12  13
ENDBRANCH  11  12
ENDBRANCH  10  11
BRANCH  10  15
HETATM   15  C5  UNL     1       4.578   3.864  51.226  1.00  0.00     0.233 C 
HETATM   16  C6  UNL     1       5.463   4.973  51.621  1.00  0.00     0.035 C 
ENDBRANCH  10  15
BRANCH  10  17
HETATM   17  C7  UNL     1       2.634   3.428  50.085  1.00  0.00     0.248 C 
BRANCH  17  18
HETATM   18  C8  UNL     1       1.672   4.368  50.709  1.00  0.00     0.113 C 
HETATM   19 BR1  UNL     1      -0.059   4.506  49.938  1.00  0.00    -0.095 Br
ENDBRANCH  17  18
ENDBRANCH  10  17
ENDBRANCH   9  10
ENDBRANCH   8   9
ENDBRANCH   5   8
ENDBRANCH   1   2
BRANCH   1  20
HETATM   20  C15 UNL     1      11.699   1.415  49.288  1.00  0.00     0.198 C 
BRANCH  20  21
HETATM   21  N3  UNL     1      11.759   0.046  49.189  1.00  0.00    -0.378 NA
HETATM   22  C16 UNL     1      11.826  -1.329  49.091  1.00  0.00     0.327 C 
HETATM   23  O1  UNL     1      12.830  -2.040  49.291  1.00  0.00    -0.251 OA
BRANCH  22  24
HETATM   24  C17 UNL     1      10.597  -2.065  48.675  1.00  0.00     0.069 A 
HETATM   25  C18 UNL     1       9.472  -1.649  49.411  1.00  0.00     0.024 A 
HETATM   26  C19 UNL     1       8.299  -2.329  49.256  1.00  0.00     0.049 A 
HETATM   27  C20 UNL     1       8.180  -3.427  48.380  1.00  0.00     0.101 A 
HETATM   28  N5  UNL     1       9.289  -3.765  47.707  1.00  0.00    -0.346 N 
HETATM   29  C26 UNL     1      10.472  -3.101  47.848  1.00  0.00     0.023 A 
ATOM     30  H5  UNL     1       9.245  -4.553  47.061  1.00  0.00     0.167 HD
HETATM   31  C27 UNL     1      11.671  -3.519  47.048  1.00  0.00     0.069 C 
BRANCH  27  32
HETATM   32  N4  UNL     1       7.077  -3.981  48.357  1.00  0.00    -0.372 N 
ATOM     33  H4  UNL     1       7.185  -4.976  48.555  1.00  0.00     0.161 HD
BRANCH  32  34
HETATM   34  C21 UNL     1       5.731  -3.681  48.148  1.00  0.00     0.083 C 
HETATM   35  C22 UNL     1       4.969  -3.365  49.433  1.00  0.00     0.025 C 
HETATM   36  C23 UNL     1       4.343  -2.026  49.251  1.00  0.00     0.002 C 
HETATM   37  C24 UNL     1       4.611  -1.557  47.855  1.00  0.00     0.002 C 
HETATM   38  C25 UNL     1       5.395  -2.640  47.139  1.00  0.00     0.025 C 
ENDBRANCH  32  34
ENDBRANCH  27  32
ENDBRANCH  22  24
ENDBRANCH  20  21
ENDBRANCH   1  20
TORSDOF 15
ENDMDL
MODEL 4
REMARK VINA RESULT: -7.443707952      3.740      9.454
REMARK  15 active torsions:
REMARK  status: ('A' for Active; 'I' for Inactive)
REMARK    1  A    between atoms: C2_2  and  C3_3 
REMARK    2  A    between atoms: C3_3  and  C4_4 
REMARK    3  A    between atoms: C4_4  and  N1_5 
REMARK    4  A    between atoms: N1_5  and  C5_6 
REMARK    5  A    between atoms: N1_5  and  C7_8 
REMARK    6  A    between atoms: N1_5  and  C9_11 
REMARK    7  A    between atoms: C7_8  and  C8_9 
REMARK    8  A    between atoms: C9_11  and  C10_12 
REMARK    9  A    between atoms: C10_12  and  C11_13 
REMARK   10  A    between atoms: N2_16  and  C14_17 
REMARK   11  A    between atoms: C14_17  and  C15_18 
REMARK   12  A    between atoms: C15_18  and  N3_19 
REMARK       I    between atoms: N3_19  and  C16_20 
REMARK   13  A    between atoms: C16_20  and  C17_22 
REMARK   14  A    between atoms: C20_25  and  N4_26 
REMARK   15  A    between atoms: N4_26  and  C21_28 
ROOT
HETATM    1  C14 UNL     1      12.784   0.218  48.136  1.00  0.00     0.091 C 
ENDROOT
BRANCH   1   2
HETATM    2  N2  UNL     1      11.988   0.124  49.270  1.00  0.00    -0.290 NA
HETATM    3  C13 UNL     1      10.845   0.957  49.416  1.00  0.00     0.095 C 
HETATM    4  C12 UNL     1       9.707   0.164  50.095  1.00  0.00     0.019 C 
HETATM    5  C11 UNL     1       9.116  -0.714  49.002  1.00  0.00    -0.011 C 
HETATM    6  C29 UNL     1      10.362  -1.530  48.516  1.00  0.00     0.019 C 
HETATM    7  C28 UNL     1      11.545  -1.309  49.392  1.00  0.00     0.095 C 
BRANCH   5   8
HETATM    8  C10 UNL     1       8.167  -1.758  49.523  1.00  0.00     0.032 C 
BRANCH   8   9
HETATM    9  C9  UNL     1       7.017  -2.098  48.669  1.00  0.00     0.238 C 
BRANCH   9  10
HETATM   10  N1  UNL     1       5.673  -1.894  49.149  1.00  0.00    -0.067 N 
BRANCH  10  11
HETATM   11  C4  UNL     1       5.803  -1.439  50.531  1.00  0.00     0.237 C 
BRANCH  11  12
HETATM   12  C3  UNL     1       4.597  -0.814  51.136  1.00  0.00     0.027 C 
BRANCH  12  13
HETATM   13  C2  UNL     1       5.063   0.444  51.911  1.00  0.00    -0.003 C 
HETATM   14  C1  UNL     1       6.207   1.090  51.153  1.00  0.00     0.005 C 
ENDBRANCH  12  13
ENDBRANCH  11  12
ENDBRANCH  10  11
BRANCH  10  15
HETATM   15  C5  UNL     1       4.972  -3.141  49.041  1.00  0.00     0.233 C 
HETATM   16  C6  UNL     1       5.288  -4.062  47.937  1.00  0.00     0.035 C 
ENDBRANCH  10  15
BRANCH  10  17
HETATM   17  C7  UNL     1       4.906  -0.942  48.383  1.00  0.00     0.248 C 
BRANCH  17  18
HETATM   18  C8  UNL     1       5.595  -0.139  47.345  1.00  0.00     0.113 C 
HETATM   19 BR1  UNL     1       5.195  -0.513  45.525  1.00  0.00    -0.095 Br
ENDBRANCH  17  18
ENDBRANCH  10  17
ENDBRANCH   9  10
ENDBRANCH   8   9
ENDBRANCH   5   8
ENDBRANCH   1   2
BRANCH   1  20
HETATM   20  C15 UNL     1      14.102   0.960  48.261  1.00  0.00     0.198 C 
BRANCH  20  21
HETATM   21  N3  UNL     1      15.160   0.087  48.183  1.00  0.00    -0.378 NA
HETATM   22  C16 UNL     1      16.227  -0.785  48.101  1.00  0.00     0.327 C 
HETATM   23  O1  UNL     1      17.375  -0.519  47.697  1.00  0.00    -0.251 OA
BRANCH  22  24
HETATM   24  C17 UNL     1      16.006  -2.206  48.501  1.00  0.00     0.069 A 
HETATM   25  C18 UNL     1      14.911  -2.769  47.820  1.00  0.00     0.024 A 
HETATM   26  C19 UNL     1      14.484  -4.014  48.182  1.00  0.00     0.049 A 
HETATM   27  C20 UNL     1      15.109  -4.751  49.207  1.00  0.00     0.101 A 
HETATM   28  N5  UNL     1      16.149  -4.157  49.809  1.00  0.00    -0.346 N 
HETATM   29  C26 UNL     1      16.591  -2.912  49.466  1.00  0.00     0.023 A 
ATOM     30  H5  UNL     1      16.632  -4.657  50.555  1.00  0.00     0.167 HD
HETATM   31  C27 UNL     1      17.775  -2.313  50.166  1.00  0.00     0.069 C 
BRANCH  27  32
HETATM   32  N4  UNL     1      14.606  -5.848  49.466  1.00  0.00    -0.372 N 
ATOM     33  H4  UNL     1      13.719  -5.717  49.951  1.00  0.00     0.161 HD
BRANCH  32  34
HETATM   34  C21 UNL     1      14.864  -7.210  49.305  1.00  0.00     0.083 C 
HETATM   35  C22 UNL     1      16.110  -7.502  48.471  1.00  0.00     0.025 C 
HETATM   36  C23 UNL     1      16.992  -8.374  49.296  1.00  0.00     0.002 C 
HETATM   37  C24 UNL     1      16.279  -8.711  50.568  1.00  0.00     0.002 C 
HETATM   38  C25 UNL     1      14.909  -8.061  50.524  1.00  0.00     0.025 C 
ENDBRANCH  32  34
ENDBRANCH  27  32
ENDBRANCH  22  24
ENDBRANCH  20  21
ENDBRANCH   1  20
TORSDOF 15
ENDMDL
MODEL 5
REMARK VINA RESULT: -7.439007495      3.740      8.536
REMARK  15 active torsions:
REMARK  status: ('A' for Active; 'I' for Inactive)
REMARK    1  A    between atoms: C2_2  and  C3_3 
REMARK    2  A    between atoms: C3_3  and  C4_4 
REMARK    3  A    between atoms: C4_4  and  N1_5 
REMARK    4  A    between atoms: N1_5  and  C5_6 
REMARK    5  A    between atoms: N1_5  and  C7_8 
REMARK    6  A    between atoms: N1_5  and  C9_11 
REMARK    7  A    between atoms: C7_8  and  C8_9 
REMARK    8  A    between atoms: C9_11  and  C10_12 
REMARK    9  A    between atoms: C10_12  and  C11_13 
REMARK   10  A    between atoms: N2_16  and  C14_17 
REMARK   11  A    between atoms: C14_17  and  C15_18 
REMARK   12  A    between atoms: C15_18  and  N3_19 
REMARK       I    between atoms: N3_19  and  C16_20 
REMARK   13  A    between atoms: C16_20  and  C17_22 
REMARK   14  A    between atoms: C20_25  and  N4_26 
REMARK   15  A    between atoms: N4_26  and  C21_28 
ROOT
HETATM    1  C14 UNL     1      10.216   1.842  50.027  1.00  0.00     0.091 C 
ENDROOT
BRANCH   1   2
HETATM    2  N2  UNL     1       9.208   2.437  49.281  1.00  0.00    -0.290 NA
HETATM    3  C13 UNL     1       8.633   1.752  48.175  1.00  0.00     0.095 C 
HETATM    4  C12 UNL     1       7.119   2.048  48.110  1.00  0.00     0.019 C 
HETATM    5  C11 UNL     1       6.488   1.168  49.179  1.00  0.00    -0.011 C 
HETATM    6  C29 UNL     1       7.247   1.615  50.475  1.00  0.00     0.019 C 
HETATM    7  C28 UNL     1       8.102   2.808  50.232  1.00  0.00     0.095 C 
BRANCH   5   8
HETATM    8  C10 UNL     1       5.048   1.504  49.456  1.00  0.00     0.032 C 
BRANCH   8   9
HETATM    9  C9  UNL     1       4.633   1.546  50.868  1.00  0.00     0.238 C 
BRANCH   9  10
HETATM   10  N1  UNL     1       3.767   2.599  51.337  1.00  0.00    -0.067 N 
BRANCH  10  11
HETATM   11  C4  UNL     1       3.118   2.081  52.540  1.00  0.00     0.237 C 
BRANCH  11  12
HETATM   12  C3  UNL     1       3.445   0.680  52.915  1.00  0.00     0.027 C 
BRANCH  12  13
HETATM   13  C2  UNL     1       2.142   0.018  53.425  1.00  0.00    -0.003 C 
HETATM   14  C1  UNL     1       1.154   1.107  53.801  1.00  0.00     0.005 C 
ENDBRANCH  12  13
ENDBRANCH  11  12
ENDBRANCH  10  11
BRANCH  10  15
HETATM   15  C5  UNL     1       2.833   2.899  50.291  1.00  0.00     0.233 C 
HETATM   16  C6  UNL     1       1.391   2.925  50.586  1.00  0.00     0.035 C 
ENDBRANCH  10  15
BRANCH  10  17
HETATM   17  C7  UNL     1       4.443   3.838  51.632  1.00  0.00     0.248 C 
BRANCH  17  18
HETATM   18  C8  UNL     1       4.219   5.003  50.743  1.00  0.00     0.113 C 
HETATM   19 BR1  UNL     1       5.534   5.377  49.424  1.00  0.00    -0.095 Br
ENDBRANCH  17  18
ENDBRANCH  10  17
ENDBRANCH   9  10
ENDBRANCH   8   9
ENDBRANCH   5   8
ENDBRANCH   1   2
BRANCH   1  20
HETATM   20  C15 UNL     1      11.496   1.463  49.306  1.00  0.00     0.198 C 
BRANCH  20  21
HETATM   21  N3  UNL     1      11.608   0.097  49.200  1.00  0.00    -0.378 NA
HETATM   22  C16 UNL     1      11.728  -1.274  49.095  1.00  0.00     0.327 C 
HETATM   23  O1  UNL     1      12.755  -1.948  49.300  1.00  0.00    -0.251 OA
BRANCH  22  24
HETATM   24  C17 UNL     1      10.531  -2.053  48.662  1.00  0.00     0.069 A 
HETATM   25  C18 UNL     1       9.382  -1.677  49.383  1.00  0.00     0.024 A 
HETATM   26  C19 UNL     1       8.236  -2.398  49.212  1.00  0.00     0.049 A 
HETATM   27  C20 UNL     1       8.168  -3.499  48.336  1.00  0.00     0.101 A 
HETATM   28  N5  UNL     1       9.297  -3.798  47.677  1.00  0.00    -0.346 N 
HETATM   29  C26 UNL     1      10.454  -3.093  47.834  1.00  0.00     0.023 A 
ATOM     30  H5  UNL     1       9.290  -4.586  47.030  1.00  0.00     0.167 HD
HETATM   31  C27 UNL     1      11.677  -3.467  47.050  1.00  0.00     0.069 C 
BRANCH  27  32
HETATM   32  N4  UNL     1       7.086  -4.092  48.298  1.00  0.00    -0.372 N 
ATOM     33  H4  UNL     1       7.238  -5.097  48.379  1.00  0.00     0.161 HD
BRANCH  32  34
HETATM   34  C21 UNL     1       5.722  -3.825  48.181  1.00  0.00     0.083 C 
HETATM   35  C22 UNL     1       5.057  -3.450  49.504  1.00  0.00     0.025 C 
HETATM   36  C23 UNL     1       4.391  -2.134  49.300  1.00  0.00     0.002 C 
HETATM   37  C24 UNL     1       4.539  -1.739  47.863  1.00  0.00     0.002 C 
HETATM   38  C25 UNL     1       5.286  -2.848  47.147  1.00  0.00     0.025 C 
ENDBRANCH  32  34
ENDBRANCH  27  32
ENDBRANCH  22  24
ENDBRANCH  20  21
ENDBRANCH   1  20
TORSDOF 15
ENDMDL
