MODEL 1
REMARK VINA RESULT: -5.036899716      0.000      0.000
REMARK  2 active torsions:
REMARK  status: ('A' for Active; 'I' for Inactive)
REMARK    1  A    between atoms: C3_3  and  O1_4 
REMARK    2  A    between atoms: C7_9  and  O2_10 
ROOT
HETATM    1  C1  UNL     1      32.285  21.131  84.753  1.00  0.00     0.015 C 
HETATM    2  C2  UNL     1      30.958  21.259  84.032  1.00  0.00     0.039 C 
HETATM    3  C3  UNL     1      30.470  19.901  83.527  1.00  0.00     0.124 C 
HETATM    4  C4  UNL     1      29.158  20.200  82.791  1.00  0.00     0.032 C 
HETATM    5  C5  UNL     1      28.118  20.604  83.782  1.00  0.00     0.005 C 
HETATM    6  C6  UNL     1      28.615  21.362  84.952  1.00  0.00     0.032 C 
HETATM    7  C7  UNL     1      29.941  21.996  84.811  1.00  0.00     0.124 C 
ENDROOT
BRANCH   3   8
HETATM    8  O1  UNL     1      31.357  19.472  82.517  1.00  0.00    -0.395 OA
ATOM      9  H1  UNL     1      32.216  19.822  82.718  1.00  0.00     0.210 HD
ENDBRANCH   3   8
BRANCH   7  10
HETATM   10  O2  UNL     1      30.445  22.213  86.116  1.00  0.00    -0.395 OA
ATOM     11  H2  UNL     1      29.886  22.844  86.554  1.00  0.00     0.210 HD
ENDBRANCH   7  10
TORSDOF 2
ENDMDL
MODEL 2
REMARK VINA RESULT: -4.853173227      1.329      2.693
REMARK  2 active torsions:
REMARK  status: ('A' for Active; 'I' for Inactive)
REMARK    1  A    between atoms: C3_3  and  O1_4 
REMARK    2  A    between atoms: C7_9  and  O2_10 
ROOT
HETATM    1  C1  UNL     1      27.656  20.473  82.948  1.00  0.00     0.015 C 
HETATM    2  C2  UNL     1      28.824  20.434  83.913  1.00  0.00     0.039 C 
HETATM    3  C3  UNL     1      30.157  20.402  83.165  1.00  0.00     0.124 C 
HETATM    4  C4  UNL     1      31.225  20.320  84.262  1.00  0.00     0.032 C 
HETATM    5  C5  UNL     1      31.268  21.612  85.007  1.00  0.00     0.005 C 
HETATM    6  C6  UNL     1      29.968  22.305  85.151  1.00  0.00     0.032 C 
HETATM    7  C7  UNL     1      28.758  21.484  84.950  1.00  0.00     0.124 C 
ENDROOT
BRANCH   3   8
HETATM    8  O1  UNL     1      30.243  19.166  82.489  1.00  0.00    -0.395 OA
ATOM      9  H1  UNL     1      30.064  18.479  83.119  1.00  0.00     0.210 HD
ENDBRANCH   3   8
BRANCH   7  10
HETATM   10  O2  UNL     1      27.699  22.367  84.629  1.00  0.00    -0.395 OA
ATOM     11  H2  UNL     1      27.028  21.877  84.166  1.00  0.00     0.210 HD
ENDBRANCH   7  10
TORSDOF 2
ENDMDL
MODEL 3
REMARK VINA RESULT: -4.795378227      0.431      2.769
REMARK  2 active torsions:
REMARK  status: ('A' for Active; 'I' for Inactive)
REMARK    1  A    between atoms: C3_3  and  O1_4 
REMARK    2  A    between atoms: C7_9  and  O2_10 
ROOT
HETATM    1  C1  UNL     1      32.262  21.239  84.630  1.00  0.00     0.015 C 
HETATM    2  C2  UNL     1      30.845  20.717  84.760  1.00  0.00     0.039 C 
HETATM    3  C3  UNL     1      29.873  21.843  85.112  1.00  0.00     0.124 C 
HETATM    4  C4  UNL     1      28.507  21.159  85.251  1.00  0.00     0.032 C 
HETATM    5  C5  UNL     1      28.046  20.699  83.909  1.00  0.00     0.005 C 
HETATM    6  C6  UNL     1      29.116  20.257  82.987  1.00  0.00     0.032 C 
HETATM    7  C7  UNL     1      30.413  19.909  83.601  1.00  0.00     0.124 C 
ENDROOT
BRANCH   3   8
HETATM    8  O1  UNL     1      30.183  22.290  86.414  1.00  0.00    -0.395 OA
ATOM      9  H1  UNL     1      30.943  22.856  86.352  1.00  0.00     0.210 HD
ENDBRANCH   3   8
BRANCH   7  10
HETATM   10  O2  UNL     1      31.398  20.011  82.590  1.00  0.00    -0.395 OA
ATOM     11  H2  UNL     1      32.148  20.474  82.945  1.00  0.00     0.210 HD
ENDBRANCH   7  10
TORSDOF 2
ENDMDL
MODEL 4
REMARK VINA RESULT: -4.286266465      1.494      2.770
REMARK  2 active torsions:
REMARK  status: ('A' for Active; 'I' for Inactive)
REMARK    1  A    between atoms: C3_3  and  O1_4 
REMARK    2  A    between atoms: C7_9  and  O2_10 
ROOT
HETATM    1  C1  UNL     1      30.975  19.431  83.041  1.00  0.00     0.015 C 
HETATM    2  C2  UNL     1      30.248  20.133  84.170  1.00  0.00     0.039 C 
HETATM    3  C3  UNL     1      30.915  21.466  84.512  1.00  0.00     0.124 C 
HETATM    4  C4  UNL     1      30.102  22.026  85.686  1.00  0.00     0.032 C 
HETATM    5  C5  UNL     1      28.747  22.423  85.203  1.00  0.00     0.005 C 
HETATM    6  C6  UNL     1      28.188  21.583  84.120  1.00  0.00     0.032 C 
HETATM    7  C7  UNL     1      28.792  20.248  83.944  1.00  0.00     0.124 C 
ENDROOT
BRANCH   3   8
HETATM    8  O1  UNL     1      32.185  21.184  85.059  1.00  0.00    -0.395 OA
ATOM      9  H1  UNL     1      32.534  20.425  84.607  1.00  0.00     0.210 HD
ENDBRANCH   3   8
BRANCH   7  10
HETATM   10  O2  UNL     1      28.509  19.828  82.621  1.00  0.00    -0.395 OA
ATOM     11  H2  UNL     1      28.944  18.998  82.469  1.00  0.00     0.210 HD
ENDBRANCH   7  10
TORSDOF 2
ENDMDL
MODEL 5
REMARK VINA RESULT: -4.246077987      1.322      3.816
REMARK  2 active torsions:
REMARK  status: ('A' for Active; 'I' for Inactive)
REMARK    1  A    between atoms: C3_3  and  O1_4 
REMARK    2  A    between atoms: C7_9  and  O2_10 
ROOT
HETATM    1  C1  UNL     1      27.119  20.162  83.664  1.00  0.00     0.015 C 
HETATM    2  C2  UNL     1      28.459  20.850  83.833  1.00  0.00     0.039 C 
HETATM    3  C3  UNL     1      28.971  20.715  85.268  1.00  0.00     0.124 C 
HETATM    4  C4  UNL     1      30.294  21.489  85.291  1.00  0.00     0.032 C 
HETATM    5  C5  UNL     1      31.310  20.754  84.482  1.00  0.00     0.005 C 
HETATM    6  C6  UNL     1      30.782  20.031  83.304  1.00  0.00     0.032 C 
HETATM    7  C7  UNL     1      29.453  20.449  82.816  1.00  0.00     0.124 C 
ENDROOT
BRANCH   3   8
HETATM    8  O1  UNL     1      28.109  21.455  86.105  1.00  0.00    -0.395 OA
ATOM      9  H1  UNL     1      27.683  22.115  85.571  1.00  0.00     0.210 HD
ENDBRANCH   3   8
BRANCH   7  10
HETATM   10  O2  UNL     1      28.920  19.371  82.068  1.00  0.00    -0.395 OA
ATOM     11  H2  UNL     1      28.239  18.954  82.584  1.00  0.00     0.210 HD
ENDBRANCH   7  10
TORSDOF 2
ENDMDL
