MODEL 1
REMARK VINA RESULT: -8.608194706      0.000      0.000
REMARK  6 active torsions:
REMARK  status: ('A' for Active; 'I' for Inactive)
REMARK    1  A    between atoms: N2_5  and  C3_6 
REMARK    2  A    between atoms: C3_6  and  C4_7 
REMARK    3  A    between atoms: C4_7  and  C5_8 
REMARK    4  A    between atoms: C6_11  and  C7_12 
REMARK       I    between atoms: C7_12  and  N4_14 
REMARK    5  A    between atoms: N4_14  and  N5_16 
REMARK    6  A    between atoms: C8_23  and  N8_24 
ROOT
HETATM    1  C5  UNL     1      34.705  61.587   9.142  1.00  0.00     0.080 A 
HETATM    2  N3  UNL     1      33.989  61.174  10.246  1.00  0.00    -0.334 N 
ATOM      3  H3  UNL     1      34.018  60.186  10.499  1.00  0.00     0.168 HD
HETATM    4  C6  UNL     1      33.260  61.998  11.000  1.00  0.00     0.191 A 
HETATM    5  N6  UNL     1      33.196  63.312  10.698  1.00  0.00    -0.279 N 
ATOM      6  H6  UNL     1      32.639  63.942  11.275  1.00  0.00     0.189 HD
HETATM    7  N7  UNL     1      33.846  63.771   9.673  1.00  0.00    -0.282 N 
ATOM      8  H7  UNL     1      33.798  64.764   9.446  1.00  0.00     0.188 HD
HETATM    9  C8  UNL     1      34.587  62.939   8.902  1.00  0.00     0.141 A 
ENDROOT
BRANCH   1  10
HETATM   10  C4  UNL     1      35.464  60.639   8.382  1.00  0.00     0.054 C 
BRANCH  10  11
HETATM   11  C3  UNL     1      36.096  59.585   8.761  1.00  0.00     0.139 C 
BRANCH  11  12
HETATM   12  N2  UNL     1      35.593  58.254   8.495  1.00  0.00    -0.208 N 
HETATM   13  N1  UNL     1      34.944  57.911   7.418  1.00  0.00    -0.283 N 
HETATM   14  C2  UNL     1      34.621  56.618   7.480  1.00  0.00     0.047 A 
ATOM     15  H1  UNL     1      34.717  58.537   6.645  1.00  0.00     0.189 HD
HETATM   16  C1  UNL     1      33.868  55.850   6.428  1.00  0.00     0.072 C 
HETATM   17  C9  UNL     1      35.106  56.145   8.674  1.00  0.00     0.047 A 
HETATM   18  N9  UNL     1      35.702  57.192   9.271  1.00  0.00    -0.283 N 
HETATM   19  C10 UNL     1      34.975  54.745   9.165  1.00  0.00     0.072 C 
ATOM     20  H9  UNL     1      36.165  57.169  10.180  1.00  0.00     0.189 HD
ENDBRANCH  11  12
ENDBRANCH  10  11
ENDBRANCH   1  10
BRANCH   9  21
HETATM   21  N8  UNL     1      35.188  63.483   7.917  1.00  0.00    -0.383 N 
ATOM     22  H82 UNL     1      35.315  62.893   7.095  1.00  0.00     0.157 HD
ATOM     23  H81 UNL     1      35.512  64.449   7.971  1.00  0.00     0.157 HD
ENDBRANCH   9  21
BRANCH   4  24
HETATM   24  C7  UNL     1      32.519  61.516  12.159  1.00  0.00     0.304 C 
HETATM   25  O1  UNL     1      31.275  61.642  12.183  1.00  0.00    -0.263 OA
HETATM   26  N4  UNL     1      33.239  60.921  13.222  1.00  0.00    -0.270 N 
ATOM     27  H4  UNL     1      34.254  60.827  13.186  1.00  0.00     0.189 HD
BRANCH  26  28
HETATM   28  N5  UNL     1      32.495  60.460  14.337  1.00  0.00    -0.342 N 
ATOM     29  H52 UNL     1      31.648  59.909  14.201  1.00  0.00     0.176 HD
ATOM     30  H51 UNL     1      32.842  60.703  15.265  1.00  0.00     0.176 HD
ENDBRANCH  26  28
ENDBRANCH   4  24
TORSDOF 6
ENDMDL
MODEL 2
REMARK VINA RESULT: -8.542935444      0.118      1.284
REMARK  6 active torsions:
REMARK  status: ('A' for Active; 'I' for Inactive)
REMARK    1  A    between atoms: N2_5  and  C3_6 
REMARK    2  A    between atoms: C3_6  and  C4_7 
REMARK    3  A    between atoms: C4_7  and  C5_8 
REMARK    4  A    between atoms: C6_11  and  C7_12 
REMARK       I    between atoms: C7_12  and  N4_14 
REMARK    5  A    between atoms: N4_14  and  N5_16 
REMARK    6  A    between atoms: C8_23  and  N8_24 
ROOT
HETATM    1  C5  UNL     1      34.716  61.573   9.158  1.00  0.00     0.080 A 
HETATM    2  N3  UNL     1      33.996  61.163  10.260  1.00  0.00    -0.334 N 
ATOM      3  H3  UNL     1      34.025  60.176  10.516  1.00  0.00     0.168 HD
HETATM    4  C6  UNL     1      33.263  61.988  11.008  1.00  0.00     0.191 A 
HETATM    5  N6  UNL     1      33.198  63.301  10.702  1.00  0.00    -0.279 N 
ATOM      6  H6  UNL     1      32.637  63.933  11.274  1.00  0.00     0.189 HD
HETATM    7  N7  UNL     1      33.852  63.758   9.677  1.00  0.00    -0.282 N 
ATOM      8  H7  UNL     1      33.804  64.750   9.448  1.00  0.00     0.188 HD
HETATM    9  C8  UNL     1      34.597  62.924   8.913  1.00  0.00     0.141 A 
ENDROOT
BRANCH   1  10
HETATM   10  C4  UNL     1      35.479  60.624   8.405  1.00  0.00     0.054 C 
BRANCH  10  11
HETATM   11  C3  UNL     1      36.040  59.526   8.774  1.00  0.00     0.139 C 
BRANCH  11  12
HETATM   12  N2  UNL     1      35.524  58.233   8.381  1.00  0.00    -0.208 N 
HETATM   13  N1  UNL     1      35.632  57.146   9.093  1.00  0.00    -0.283 N 
HETATM   14  C2  UNL     1      35.052  56.129   8.453  1.00  0.00     0.047 A 
ATOM     15  H1  UNL     1      36.090  57.084  10.002  1.00  0.00     0.189 HD
HETATM   16  C1  UNL     1      34.969  54.712   8.951  1.00  0.00     0.072 C 
HETATM   17  C9  UNL     1      34.560  56.632   7.274  1.00  0.00     0.047 A 
HETATM   18  N9  UNL     1      34.873  57.939   7.270  1.00  0.00    -0.283 N 
HETATM   19  C10 UNL     1      33.830  55.847   6.239  1.00  0.00     0.072 C 
ATOM     20  H9  UNL     1      34.645  58.600   6.527  1.00  0.00     0.189 HD
ENDBRANCH  11  12
ENDBRANCH  10  11
ENDBRANCH   1  10
BRANCH   9  21
HETATM   21  N8  UNL     1      35.202  63.466   7.929  1.00  0.00    -0.383 N 
ATOM     22  H82 UNL     1      34.609  63.953   7.257  1.00  0.00     0.157 HD
ATOM     23  H81 UNL     1      36.217  63.403   7.840  1.00  0.00     0.157 HD
ENDBRANCH   9  21
BRANCH   4  24
HETATM   24  C7  UNL     1      32.517  61.509  12.165  1.00  0.00     0.304 C 
HETATM   25  O1  UNL     1      31.272  61.634  12.184  1.00  0.00    -0.263 OA
HETATM   26  N4  UNL     1      33.232  60.917  13.232  1.00  0.00    -0.270 N 
ATOM     27  H4  UNL     1      34.247  60.824  13.202  1.00  0.00     0.189 HD
BRANCH  26  28
HETATM   28  N5  UNL     1      32.484  60.460  14.346  1.00  0.00    -0.342 N 
ATOM     29  H52 UNL     1      31.688  60.998  14.689  1.00  0.00     0.176 HD
ATOM     30  H51 UNL     1      32.775  59.583  14.780  1.00  0.00     0.176 HD
ENDBRANCH  26  28
ENDBRANCH   4  24
TORSDOF 6
ENDMDL
MODEL 3
REMARK VINA RESULT: -8.032196557      2.683      5.704
REMARK  6 active torsions:
REMARK  status: ('A' for Active; 'I' for Inactive)
REMARK    1  A    between atoms: N2_5  and  C3_6 
REMARK    2  A    between atoms: C3_6  and  C4_7 
REMARK    3  A    between atoms: C4_7  and  C5_8 
REMARK    4  A    between atoms: C6_11  and  C7_12 
REMARK       I    between atoms: C7_12  and  N4_14 
REMARK    5  A    between atoms: N4_14  and  N5_16 
REMARK    6  A    between atoms: C8_23  and  N8_24 
ROOT
HETATM    1  C5  UNL     1      35.505  61.521   8.075  1.00  0.00     0.080 A 
HETATM    2  N3  UNL     1      35.136  60.210   7.860  1.00  0.00    -0.334 N 
ATOM      3  H3  UNL     1      34.173  59.939   8.060  1.00  0.00     0.168 HD
HETATM    4  C6  UNL     1      35.972  59.276   7.404  1.00  0.00     0.191 A 
HETATM    5  N6  UNL     1      37.255  59.594   7.127  1.00  0.00    -0.279 N 
ATOM      6  H6  UNL     1      37.894  58.880   6.778  1.00  0.00     0.189 HD
HETATM    7  N7  UNL     1      37.671  60.810   7.305  1.00  0.00    -0.282 N 
ATOM      8  H7  UNL     1      38.639  61.050   7.094  1.00  0.00     0.188 HD
HETATM    9  C8  UNL     1      36.827  61.763   7.769  1.00  0.00     0.141 A 
ENDROOT
BRANCH   1  10
HETATM   10  C4  UNL     1      34.547  62.465   8.567  1.00  0.00     0.054 C 
BRANCH  10  11
HETATM   11  C3  UNL     1      34.313  62.863   9.768  1.00  0.00     0.139 C 
BRANCH  11  12
HETATM   12  N2  UNL     1      33.699  62.000  10.754  1.00  0.00    -0.208 N 
HETATM   13  N1  UNL     1      32.633  62.304  11.441  1.00  0.00    -0.283 N 
HETATM   14  C2  UNL     1      32.324  61.297  12.261  1.00  0.00     0.047 A 
ATOM     15  H1  UNL     1      32.113  63.178  11.363  1.00  0.00     0.189 HD
HETATM   16  C1  UNL     1      31.161  61.268  13.215  1.00  0.00     0.072 C 
HETATM   17  C9  UNL     1      33.265  60.318  12.059  1.00  0.00     0.047 A 
HETATM   18  N9  UNL     1      34.098  60.795  11.117  1.00  0.00    -0.283 N 
HETATM   19  C10 UNL     1      33.312  59.007  12.765  1.00  0.00     0.072 C 
ATOM     20  H9  UNL     1      34.909  60.303  10.741  1.00  0.00     0.189 HD
ENDBRANCH  11  12
ENDBRANCH  10  11
ENDBRANCH   1  10
BRANCH   9  21
HETATM   21  N8  UNL     1      37.328  62.927   7.911  1.00  0.00    -0.383 N 
ATOM     22  H82 UNL     1      37.888  63.069   8.752  1.00  0.00     0.157 HD
ATOM     23  H81 UNL     1      37.167  63.655   7.214  1.00  0.00     0.157 HD
ENDBRANCH   9  21
BRANCH   4  24
HETATM   24  C7  UNL     1      35.538  57.901   7.193  1.00  0.00     0.304 C 
HETATM   25  O1  UNL     1      35.529  57.435   6.032  1.00  0.00    -0.263 OA
HETATM   26  N4  UNL     1      35.137  57.139   8.315  1.00  0.00    -0.270 N 
ATOM     27  H4  UNL     1      35.149  57.534   9.255  1.00  0.00     0.189 HD
BRANCH  26  28
HETATM   28  N5  UNL     1      34.719  55.804   8.083  1.00  0.00    -0.342 N 
ATOM     29  H52 UNL     1      34.000  55.379   8.669  1.00  0.00     0.176 HD
ATOM     30  H51 UNL     1      35.164  55.299   7.317  1.00  0.00     0.176 HD
ENDBRANCH  26  28
ENDBRANCH   4  24
TORSDOF 6
ENDMDL
MODEL 4
REMARK VINA RESULT: -8.008040116      2.513      5.980
REMARK  6 active torsions:
REMARK  status: ('A' for Active; 'I' for Inactive)
REMARK    1  A    between atoms: N2_5  and  C3_6 
REMARK    2  A    between atoms: C3_6  and  C4_7 
REMARK    3  A    between atoms: C4_7  and  C5_8 
REMARK    4  A    between atoms: C6_11  and  C7_12 
REMARK       I    between atoms: C7_12  and  N4_14 
REMARK    5  A    between atoms: N4_14  and  N5_16 
REMARK    6  A    between atoms: C8_23  and  N8_24 
ROOT
HETATM    1  C5  UNL     1      35.274  60.133   8.308  1.00  0.00     0.080 A 
HETATM    2  N3  UNL     1      35.214  58.812   8.701  1.00  0.00    -0.334 N 
ATOM      3  H3  UNL     1      35.066  58.608   9.689  1.00  0.00     0.168 HD
HETATM    4  C6  UNL     1      35.340  57.788   7.857  1.00  0.00     0.191 A 
HETATM    5  N6  UNL     1      35.537  58.016   6.541  1.00  0.00    -0.279 N 
ATOM      6  H6  UNL     1      35.633  57.232   5.895  1.00  0.00     0.189 HD
HETATM    7  N7  UNL     1      35.603  59.235   6.100  1.00  0.00    -0.282 N 
ATOM      8  H7  UNL     1      35.750  59.407   5.106  1.00  0.00     0.188 HD
HETATM    9  C8  UNL     1      35.477  60.280   6.953  1.00  0.00     0.141 A 
ENDROOT
BRANCH   1  10
HETATM   10  C4  UNL     1      35.130  61.177   9.277  1.00  0.00     0.054 C 
BRANCH  10  11
HETATM   11  C3  UNL     1      34.071  61.751   9.731  1.00  0.00     0.139 C 
BRANCH  11  12
HETATM   12  N2  UNL     1      33.481  61.375  10.997  1.00  0.00    -0.208 N 
HETATM   13  N1  UNL     1      34.000  60.515  11.828  1.00  0.00    -0.283 N 
HETATM   14  C2  UNL     1      33.212  60.393  12.899  1.00  0.00     0.047 A 
ATOM     15  H1  UNL     1      34.875  60.012  11.682  1.00  0.00     0.189 HD
HETATM   16  C1  UNL     1      33.469  59.496  14.079  1.00  0.00     0.072 C 
HETATM   17  C9  UNL     1      32.145  61.234  12.705  1.00  0.00     0.047 A 
HETATM   18  N9  UNL     1      32.352  61.824  11.514  1.00  0.00    -0.283 N 
HETATM   19  C10 UNL     1      31.011  61.423  13.652  1.00  0.00     0.072 C 
ATOM     20  H9  UNL     1      31.734  62.510  11.079  1.00  0.00     0.189 HD
ENDBRANCH  11  12
ENDBRANCH  10  11
ENDBRANCH   1  10
BRANCH   9  21
HETATM   21  N8  UNL     1      35.556  61.439   6.426  1.00  0.00    -0.383 N 
ATOM     22  H82 UNL     1      36.500  61.774   6.231  1.00  0.00     0.157 HD
ATOM     23  H81 UNL     1      34.715  61.979   6.221  1.00  0.00     0.157 HD
ENDBRANCH   9  21
BRANCH   4  24
HETATM   24  C7  UNL     1      35.271  56.406   8.317  1.00  0.00     0.304 C 
HETATM   25  O1  UNL     1      35.205  55.484   7.475  1.00  0.00    -0.263 OA
HETATM   26  N4  UNL     1      35.279  56.158   9.710  1.00  0.00    -0.270 N 
ATOM     27  H4  UNL     1      35.332  56.921  10.384  1.00  0.00     0.189 HD
BRANCH  26  28
HETATM   28  N5  UNL     1      35.211  54.806  10.133  1.00  0.00    -0.342 N 
ATOM     29  H52 UNL     1      35.138  54.054   9.447  1.00  0.00     0.176 HD
ATOM     30  H51 UNL     1      35.237  54.626  11.136  1.00  0.00     0.176 HD
ENDBRANCH  26  28
ENDBRANCH   4  24
TORSDOF 6
ENDMDL
MODEL 5
REMARK VINA RESULT: -7.994084937      2.519      5.902
REMARK  6 active torsions:
REMARK  status: ('A' for Active; 'I' for Inactive)
REMARK    1  A    between atoms: N2_5  and  C3_6 
REMARK    2  A    between atoms: C3_6  and  C4_7 
REMARK    3  A    between atoms: C4_7  and  C5_8 
REMARK    4  A    between atoms: C6_11  and  C7_12 
REMARK       I    between atoms: C7_12  and  N4_14 
REMARK    5  A    between atoms: N4_14  and  N5_16 
REMARK    6  A    between atoms: C8_23  and  N8_24 
ROOT
HETATM    1  C5  UNL     1      35.274  60.128   8.311  1.00  0.00     0.080 A 
HETATM    2  N3  UNL     1      35.221  58.809   8.709  1.00  0.00    -0.334 N 
ATOM      3  H3  UNL     1      35.075  58.608   9.698  1.00  0.00     0.168 HD
HETATM    4  C6  UNL     1      35.351  57.782   7.868  1.00  0.00     0.191 A 
HETATM    5  N6  UNL     1      35.544  58.006   6.551  1.00  0.00    -0.279 N 
ATOM      6  H6  UNL     1      35.644  57.221   5.908  1.00  0.00     0.189 HD
HETATM    7  N7  UNL     1      35.604  59.224   6.106  1.00  0.00    -0.282 N 
ATOM      8  H7  UNL     1      35.748  59.393   5.111  1.00  0.00     0.188 HD
HETATM    9  C8  UNL     1      35.474  60.272   6.955  1.00  0.00     0.141 A 
ENDROOT
BRANCH   1  10
HETATM   10  C4  UNL     1      35.126  61.176   9.276  1.00  0.00     0.054 C 
BRANCH  10  11
HETATM   11  C3  UNL     1      34.063  61.718   9.760  1.00  0.00     0.139 C 
BRANCH  11  12
HETATM   12  N2  UNL     1      33.519  61.323  11.041  1.00  0.00    -0.208 N 
HETATM   13  N1  UNL     1      32.394  61.763  11.534  1.00  0.00    -0.283 N 
HETATM   14  C2  UNL     1      32.177  61.206  12.727  1.00  0.00     0.047 A 
ATOM     15  H1  UNL     1      31.775  62.431  11.076  1.00  0.00     0.189 HD
HETATM   16  C1  UNL     1      30.987  61.460  13.610  1.00  0.00     0.072 C 
HETATM   17  C9  UNL     1      33.241  60.373  12.975  1.00  0.00     0.047 A 
HETATM   18  N9  UNL     1      34.048  60.475  11.904  1.00  0.00    -0.283 N 
HETATM   19  C10 UNL     1      33.419  59.542  14.198  1.00  0.00     0.072 C 
ATOM     20  H9  UNL     1      34.929  59.977  11.779  1.00  0.00     0.189 HD
ENDBRANCH  11  12
ENDBRANCH  10  11
ENDBRANCH   1  10
BRANCH   9  21
HETATM   21  N8  UNL     1      35.546  61.429   6.424  1.00  0.00    -0.383 N 
ATOM     22  H82 UNL     1      36.017  62.143   6.979  1.00  0.00     0.157 HD
ATOM     23  H81 UNL     1      35.152  61.606   5.500  1.00  0.00     0.157 HD
ENDBRANCH   9  21
BRANCH   4  24
HETATM   24  C7  UNL     1      35.289  56.402   8.334  1.00  0.00     0.304 C 
HETATM   25  O1  UNL     1      35.240  55.476   7.495  1.00  0.00    -0.263 OA
HETATM   26  N4  UNL     1      35.285  56.160   9.728  1.00  0.00    -0.270 N 
ATOM     27  H4  UNL     1      35.324  56.926  10.399  1.00  0.00     0.189 HD
BRANCH  26  28
HETATM   28  N5  UNL     1      35.224  54.809  10.156  1.00  0.00    -0.342 N 
ATOM     29  H52 UNL     1      34.774  54.568  11.039  1.00  0.00     0.176 HD
ATOM     30  H51 UNL     1      35.645  54.105   9.550  1.00  0.00     0.176 HD
ENDBRANCH  26  28
ENDBRANCH   4  24
TORSDOF 6
ENDMDL
