MODEL 1
REMARK VINA RESULT: -9.056449157      0.000      0.000
REMARK  7 active torsions:
REMARK  status: ('A' for Active; 'I' for Inactive)
REMARK    1  A    between atoms: C18_19  and  O2_20 
REMARK    2  A    between atoms: C18_19  and  C19_22 
REMARK    3  A    between atoms: C19_22  and  N1_23 
REMARK    4  A    between atoms: N1_23  and  C20_24 
REMARK    5  A    between atoms: N1_23  and  C22_27 
REMARK    6  A    between atoms: C22_27  and  C23_28 
REMARK    7  A    between atoms: C23_28  and  C24_29 
ROOT
HETATM    1  C20 UNL     1      11.545   4.816  30.872  1.00  0.00     0.184 C 
HETATM    2  C21 UNL     1      12.793   5.525  31.246  1.00  0.00     0.105 C 
HETATM    3  N2  UNL     1      13.767   6.071  31.559  1.00  0.00    -0.191 NA
ENDROOT
BRANCH   1   4
HETATM    4  N1  UNL     1      10.424   5.644  30.881  1.00  0.00    -0.358 N 
BRANCH   4   5
HETATM    5  C19 UNL     1      10.670   7.028  30.865  1.00  0.00     0.101 C 
BRANCH   5   6
HETATM    6  C18 UNL     1       9.781   7.794  29.978  1.00  0.00     0.091 C 
HETATM    7  C17 UNL     1       9.640   7.027  28.604  1.00  0.00     0.049 C 
HETATM    8  C16 UNL     1       8.528   7.872  28.069  1.00  0.00     0.002 C 
HETATM    9  C2  UNL     1       7.495   7.656  29.139  1.00  0.00    -0.037 C 
HETATM   10  C6  UNL     1       8.117   7.619  26.679  1.00  0.00    -0.001 C 
HETATM   11  C1  UNL     1       7.056   6.245  29.323  1.00  0.00     0.015 C 
HETATM   12  C3  UNL     1       6.392   8.628  28.919  1.00  0.00     0.010 C 
HETATM   13  C25 UNL     1       8.359   7.993  30.376  1.00  0.00     0.053 C 
HETATM   14  C4  UNL     1       6.105   8.902  27.445  1.00  0.00     0.007 C 
HETATM   15  C5  UNL     1       6.633   7.816  26.542  1.00  0.00     0.003 C 
HETATM   16  C14 UNL     1       6.172   8.007  25.145  1.00  0.00    -0.016 C 
HETATM   17  C9  UNL     1       7.105   8.658  24.222  1.00  0.00    -0.068 C 
HETATM   18  C13 UNL     1       5.845   6.646  24.509  1.00  0.00     0.021 C 
HETATM   19  C15 UNL     1       4.841   8.751  25.148  1.00  0.00     0.020 C 
HETATM   20  C8  UNL     1       8.343   8.890  24.522  1.00  0.00    -0.022 C 
HETATM   21  C10 UNL     1       6.586   9.042  22.882  1.00  0.00     0.113 C 
HETATM   22  C7  UNL     1       8.920   8.543  25.812  1.00  0.00     0.033 C 
HETATM   23  C11 UNL     1       6.131   7.743  22.269  1.00  0.00     0.130 C 
HETATM   24  O1  UNL     1       6.387   7.548  21.108  1.00  0.00    -0.298 OA
HETATM   25  C12 UNL     1       5.404   6.773  23.084  1.00  0.00     0.079 C 
BRANCH   6  26
HETATM   26  O2  UNL     1      10.392   8.995  29.564  1.00  0.00    -0.384 OA
ATOM     27  H2  UNL     1      11.310   8.798  29.710  1.00  0.00     0.211 HD
ENDBRANCH   6  26
ENDBRANCH   5   6
ENDBRANCH   4   5
BRANCH   4  28
HETATM   28  C22 UNL     1       9.251   5.219  31.566  1.00  0.00     0.138 C 
BRANCH  28  29
HETATM   29  C23 UNL     1       9.311   3.754  31.949  1.00  0.00     0.133 C 
BRANCH  29  30
HETATM   30  C24 UNL     1       7.899   3.256  31.990  1.00  0.00     0.174 C 
HETATM   31  O3  UNL     1       6.898   4.012  32.040  1.00  0.00    -0.648 OA
HETATM   32  O4  UNL     1       7.635   1.872  31.972  1.00  0.00    -0.648 OA
ENDBRANCH  29  30
ENDBRANCH  28  29
ENDBRANCH   4  28
ENDBRANCH   1   4
TORSDOF 7
ENDMDL
MODEL 2
REMARK VINA RESULT: -9.019354310      1.919      3.104
REMARK  7 active torsions:
REMARK  status: ('A' for Active; 'I' for Inactive)
REMARK    1  A    between atoms: C18_19  and  O2_20 
REMARK    2  A    between atoms: C18_19  and  C19_22 
REMARK    3  A    between atoms: C19_22  and  N1_23 
REMARK    4  A    between atoms: N1_23  and  C20_24 
REMARK    5  A    between atoms: N1_23  and  C22_27 
REMARK    6  A    between atoms: C22_27  and  C23_28 
REMARK    7  A    between atoms: C23_28  and  C24_29 
ROOT
HETATM    1  C20 UNL     1       9.688   6.784  29.355  1.00  0.00     0.184 C 
HETATM    2  C21 UNL     1      10.804   7.039  30.297  1.00  0.00     0.105 C 
HETATM    3  N2  UNL     1      11.678   7.217  31.039  1.00  0.00    -0.191 NA
ENDROOT
BRANCH   1   4
HETATM    4  N1  UNL     1       8.443   7.120  29.882  1.00  0.00    -0.358 N 
BRANCH   4   5
HETATM    5  C19 UNL     1       7.941   8.388  29.542  1.00  0.00     0.101 C 
BRANCH   5   6
HETATM    6  C18 UNL     1       7.050   8.395  28.371  1.00  0.00     0.091 C 
HETATM    7  C17 UNL     1       7.854   8.920  27.116  1.00  0.00     0.049 C 
HETATM    8  C16 UNL     1       6.810   8.565  26.105  1.00  0.00     0.002 C 
HETATM    9  C2  UNL     1       6.706   7.084  26.343  1.00  0.00    -0.037 C 
HETATM   10  C6  UNL     1       7.053   9.007  24.722  1.00  0.00    -0.001 C 
HETATM   11  C1  UNL     1       7.960   6.314  26.113  1.00  0.00     0.015 C 
HETATM   12  C3  UNL     1       5.520   6.580  25.602  1.00  0.00     0.010 C 
HETATM   13  C25 UNL     1       6.498   7.104  27.874  1.00  0.00     0.053 C 
HETATM   14  C4  UNL     1       5.287   7.288  24.269  1.00  0.00     0.007 C 
HETATM   15  C5  UNL     1       6.524   7.982  23.759  1.00  0.00     0.003 C 
HETATM   16  C14 UNL     1       6.325   8.490  22.380  1.00  0.00    -0.016 C 
HETATM   17  C9  UNL     1       5.974   9.905  22.239  1.00  0.00    -0.068 C 
HETATM   18  C13 UNL     1       7.611   8.301  21.559  1.00  0.00     0.021 C 
HETATM   19  C15 UNL     1       5.292   7.625  21.665  1.00  0.00     0.020 C 
HETATM   20  C8  UNL     1       6.018  10.741  23.227  1.00  0.00    -0.022 C 
HETATM   21  C10 UNL     1       5.571  10.379  20.888  1.00  0.00     0.113 C 
HETATM   22  C7  UNL     1       6.403  10.351  24.574  1.00  0.00     0.033 C 
HETATM   23  C11 UNL     1       6.765  10.091  20.017  1.00  0.00     0.130 C 
HETATM   24  O1  UNL     1       7.093  10.929  19.215  1.00  0.00    -0.298 OA
HETATM   25  C12 UNL     1       7.482   8.827  20.163  1.00  0.00     0.079 C 
BRANCH   6  26
HETATM   26  O2  UNL     1       6.056   9.387  28.499  1.00  0.00    -0.384 OA
ATOM     27  H2  UNL     1       5.274   8.898  28.269  1.00  0.00     0.211 HD
ENDBRANCH   6  26
ENDBRANCH   5   6
ENDBRANCH   4   5
BRANCH   4  28
HETATM   28  C22 UNL     1       8.070   6.616  31.161  1.00  0.00     0.138 C 
BRANCH  28  29
HETATM   29  C23 UNL     1       7.485   5.220  31.077  1.00  0.00     0.133 C 
BRANCH  29  30
HETATM   30  C24 UNL     1       8.314   4.347  31.969  1.00  0.00     0.174 C 
HETATM   31  O3  UNL     1       7.907   3.892  33.067  1.00  0.00    -0.648 OA
HETATM   32  O4  UNL     1       9.625   3.992  31.595  1.00  0.00    -0.648 OA
ENDBRANCH  29  30
ENDBRANCH  28  29
ENDBRANCH   4  28
ENDBRANCH   1   4
TORSDOF 7
ENDMDL
MODEL 3
REMARK VINA RESULT: -8.829676044      2.336      3.824
REMARK  7 active torsions:
REMARK  status: ('A' for Active; 'I' for Inactive)
REMARK    1  A    between atoms: C18_19  and  O2_20 
REMARK    2  A    between atoms: C18_19  and  C19_22 
REMARK    3  A    between atoms: C19_22  and  N1_23 
REMARK    4  A    between atoms: N1_23  and  C20_24 
REMARK    5  A    between atoms: N1_23  and  C22_27 
REMARK    6  A    between atoms: C22_27  and  C23_28 
REMARK    7  A    between atoms: C23_28  and  C24_29 
ROOT
HETATM    1  C20 UNL     1       7.724   6.807  30.684  1.00  0.00     0.184 C 
HETATM    2  C21 UNL     1       8.175   5.550  31.328  1.00  0.00     0.105 C 
HETATM    3  N2  UNL     1       8.529   4.577  31.851  1.00  0.00    -0.191 NA
ENDROOT
BRANCH   1   4
HETATM    4  N1  UNL     1       8.737   7.450  29.975  1.00  0.00    -0.358 N 
BRANCH   4   5
HETATM    5  C19 UNL     1       8.928   7.035  28.646  1.00  0.00     0.101 C 
BRANCH   5   6
HETATM    6  C18 UNL     1       7.904   7.514  27.705  1.00  0.00     0.091 C 
HETATM    7  C17 UNL     1       8.600   7.904  26.341  1.00  0.00     0.049 C 
HETATM    8  C16 UNL     1       7.333   8.076  25.566  1.00  0.00     0.002 C 
HETATM    9  C2  UNL     1       6.740   6.704  25.720  1.00  0.00    -0.037 C 
HETATM   10  C6  UNL     1       7.463   8.600  24.196  1.00  0.00    -0.001 C 
HETATM   11  C1  UNL     1       7.561   5.591  25.167  1.00  0.00     0.015 C 
HETATM   12  C3  UNL     1       5.338   6.748  25.228  1.00  0.00     0.010 C 
HETATM   13  C25 UNL     1       6.837   6.575  27.257  1.00  0.00     0.053 C 
HETATM   14  C4  UNL     1       5.140   7.675  24.031  1.00  0.00     0.007 C 
HETATM   15  C5  UNL     1       6.430   7.967  23.308  1.00  0.00     0.003 C 
HETATM   16  C14 UNL     1       6.182   8.704  22.044  1.00  0.00    -0.016 C 
HETATM   17  C9  UNL     1       6.352  10.158  22.080  1.00  0.00    -0.068 C 
HETATM   18  C13 UNL     1       7.137   8.203  20.948  1.00  0.00     0.021 C 
HETATM   19  C15 UNL     1       4.792   8.357  21.519  1.00  0.00     0.020 C 
HETATM   20  C8  UNL     1       6.879  10.779  23.087  1.00  0.00    -0.022 C 
HETATM   21  C10 UNL     1       5.911  10.929  20.887  1.00  0.00     0.113 C 
HETATM   22  C7  UNL     1       7.334  10.092  24.287  1.00  0.00     0.033 C 
HETATM   23  C11 UNL     1       6.737  10.376  19.755  1.00  0.00     0.130 C 
HETATM   24  O1  UNL     1       7.195  11.156  18.959  1.00  0.00    -0.298 OA
HETATM   25  C12 UNL     1       6.956   8.935  19.654  1.00  0.00     0.079 C 
BRANCH   6  26
HETATM   26  O2  UNL     1       7.382   8.757  28.116  1.00  0.00    -0.384 OA
ATOM     27  H2  UNL     1       8.178   9.246  28.292  1.00  0.00     0.211 HD
ENDBRANCH   6  26
ENDBRANCH   5   6
ENDBRANCH   4   5
BRANCH   4  28
HETATM   28  C22 UNL     1       9.895   7.899  30.670  1.00  0.00     0.138 C 
BRANCH  28  29
HETATM   29  C23 UNL     1      11.175   7.375  30.048  1.00  0.00     0.133 C 
BRANCH  29  30
HETATM   30  C24 UNL     1      11.725   6.345  30.986  1.00  0.00     0.174 C 
HETATM   31  O3  UNL     1      12.142   6.610  32.140  1.00  0.00    -0.648 OA
HETATM   32  O4  UNL     1      11.795   4.994  30.592  1.00  0.00    -0.648 OA
ENDBRANCH  29  30
ENDBRANCH  28  29
ENDBRANCH   4  28
ENDBRANCH   1   4
TORSDOF 7
ENDMDL
MODEL 4
REMARK VINA RESULT: -8.644514461      1.800      2.666
REMARK  7 active torsions:
REMARK  status: ('A' for Active; 'I' for Inactive)
REMARK    1  A    between atoms: C18_19  and  O2_20 
REMARK    2  A    between atoms: C18_19  and  C19_22 
REMARK    3  A    between atoms: C19_22  and  N1_23 
REMARK    4  A    between atoms: N1_23  and  C20_24 
REMARK    5  A    between atoms: N1_23  and  C22_27 
REMARK    6  A    between atoms: C22_27  and  C23_28 
REMARK    7  A    between atoms: C23_28  and  C24_29 
ROOT
HETATM    1  C20 UNL     1       9.147   5.881  31.577  1.00  0.00     0.184 C 
HETATM    2  C21 UNL     1       9.251   4.404  31.659  1.00  0.00     0.105 C 
HETATM    3  N2  UNL     1       9.335   3.250  31.744  1.00  0.00    -0.191 NA
ENDROOT
BRANCH   1   4
HETATM    4  N1  UNL     1      10.328   6.488  31.157  1.00  0.00    -0.358 N 
BRANCH   4   5
HETATM    5  C19 UNL     1      10.547   6.535  29.769  1.00  0.00     0.101 C 
BRANCH   5   6
HETATM    6  C18 UNL     1       9.668   7.466  29.045  1.00  0.00     0.091 C 
HETATM    7  C17 UNL     1       9.440   6.923  27.579  1.00  0.00     0.049 C 
HETATM    8  C16 UNL     1       8.354   7.890  27.225  1.00  0.00     0.002 C 
HETATM    9  C2  UNL     1       7.350   7.562  28.293  1.00  0.00    -0.037 C 
HETATM   10  C6  UNL     1       7.882   7.870  25.831  1.00  0.00    -0.001 C 
HETATM   11  C1  UNL     1       6.845   6.161  28.282  1.00  0.00     0.015 C 
HETATM   12  C3  UNL     1       6.292   8.605  28.268  1.00  0.00     0.010 C 
HETATM   13  C25 UNL     1       8.273   7.668  29.528  1.00  0.00     0.053 C 
HETATM   14  C4  UNL     1       5.967   9.112  26.865  1.00  0.00     0.007 C 
HETATM   15  C5  UNL     1       6.407   8.153  25.788  1.00  0.00     0.003 C 
HETATM   16  C14 UNL     1       5.907   8.575  24.457  1.00  0.00    -0.016 C 
HETATM   17  C9  UNL     1       6.839   9.315  23.602  1.00  0.00    -0.068 C 
HETATM   18  C13 UNL     1       5.487   7.342  23.638  1.00  0.00     0.021 C 
HETATM   19  C15 UNL     1       4.617   9.369  24.627  1.00  0.00     0.020 C 
HETATM   20  C8  UNL     1       8.097   9.442  23.881  1.00  0.00    -0.022 C 
HETATM   21  C10 UNL     1       6.294   9.920  22.358  1.00  0.00     0.113 C 
HETATM   22  C7  UNL     1       8.701   8.877  25.079  1.00  0.00     0.033 C 
HETATM   23  C11 UNL     1       5.751   8.752  21.578  1.00  0.00     0.130 C 
HETATM   24  O1  UNL     1       5.956   8.723  20.391  1.00  0.00    -0.298 OA
HETATM   25  C12 UNL     1       5.004   7.703  22.268  1.00  0.00     0.079 C 
BRANCH   6  26
HETATM   26  O2  UNL     1      10.326   8.687  28.790  1.00  0.00    -0.384 OA
ATOM     27  H2  UNL     1      10.491   8.619  27.857  1.00  0.00     0.211 HD
ENDBRANCH   6  26
ENDBRANCH   5   6
ENDBRANCH   4   5
BRANCH   4  28
HETATM   28  C22 UNL     1      11.488   6.395  31.976  1.00  0.00     0.138 C 
BRANCH  28  29
HETATM   29  C23 UNL     1      12.765   6.373  31.160  1.00  0.00     0.133 C 
BRANCH  29  30
HETATM   30  C24 UNL     1      13.271   4.963  31.180  1.00  0.00     0.174 C 
HETATM   31  O3  UNL     1      12.570   3.979  31.523  1.00  0.00    -0.648 OA
HETATM   32  O4  UNL     1      14.598   4.681  30.801  1.00  0.00    -0.648 OA
ENDBRANCH  29  30
ENDBRANCH  28  29
ENDBRANCH   4  28
ENDBRANCH   1   4
TORSDOF 7
ENDMDL
MODEL 5
REMARK VINA RESULT: -8.572996724      2.549      5.017
REMARK  7 active torsions:
REMARK  status: ('A' for Active; 'I' for Inactive)
REMARK    1  A    between atoms: C18_19  and  O2_20 
REMARK    2  A    between atoms: C18_19  and  C19_22 
REMARK    3  A    between atoms: C19_22  and  N1_23 
REMARK    4  A    between atoms: N1_23  and  C20_24 
REMARK    5  A    between atoms: N1_23  and  C22_27 
REMARK    6  A    between atoms: C22_27  and  C23_28 
REMARK    7  A    between atoms: C23_28  and  C24_29 
ROOT
HETATM    1  C20 UNL     1       7.614   7.755  29.762  1.00  0.00     0.184 C 
HETATM    2  C21 UNL     1       7.576   6.600  30.691  1.00  0.00     0.105 C 
HETATM    3  N2  UNL     1       7.564   5.704  31.427  1.00  0.00    -0.191 NA
ENDROOT
BRANCH   1   4
HETATM    4  N1  UNL     1       8.105   7.424  28.501  1.00  0.00    -0.358 N 
BRANCH   4   5
HETATM    5  C19 UNL     1       7.216   6.758  27.640  1.00  0.00     0.101 C 
BRANCH   5   6
HETATM    6  C18 UNL     1       7.424   7.042  26.211  1.00  0.00     0.091 C 
HETATM    7  C17 UNL     1       6.020   7.126  25.493  1.00  0.00     0.049 C 
HETATM    8  C16 UNL     1       6.541   7.664  24.199  1.00  0.00     0.002 C 
HETATM    9  C2  UNL     1       7.194   8.928  24.683  1.00  0.00    -0.037 C 
HETATM   10  C6  UNL     1       5.572   7.789  23.097  1.00  0.00    -0.001 C 
HETATM   11  C1  UNL     1       6.280   9.904  25.341  1.00  0.00     0.015 C 
HETATM   12  C3  UNL     1       8.002   9.487  23.567  1.00  0.00     0.010 C 
HETATM   13  C25 UNL     1       8.059   8.331  25.815  1.00  0.00     0.053 C 
HETATM   14  C4  UNL     1       7.371   9.279  22.193  1.00  0.00     0.007 C 
HETATM   15  C5  UNL     1       5.892   9.003  22.272  1.00  0.00     0.003 C 
HETATM   16  C14 UNL     1       5.273   9.001  20.924  1.00  0.00    -0.016 C 
HETATM   17  C9  UNL     1       5.064   7.695  20.291  1.00  0.00    -0.068 C 
HETATM   18  C13 UNL     1       3.884   9.657  20.982  1.00  0.00     0.021 C 
HETATM   19  C15 UNL     1       6.077   9.904  19.995  1.00  0.00     0.020 C 
HETATM   20  C8  UNL     1       5.219   6.576  20.924  1.00  0.00    -0.022 C 
HETATM   21  C10 UNL     1       4.639   7.685  18.867  1.00  0.00     0.113 C 
HETATM   22  C7  UNL     1       5.632   6.509  22.318  1.00  0.00     0.033 C 
HETATM   23  C11 UNL     1       3.334   8.437  18.858  1.00  0.00     0.130 C 
HETATM   24  O1  UNL     1       2.437   8.000  18.183  1.00  0.00    -0.298 OA
HETATM   25  C12 UNL     1       3.194   9.654  19.653  1.00  0.00     0.079 C 
BRANCH   6  26
HETATM   26  O2  UNL     1       8.006   5.937  25.556  1.00  0.00    -0.384 OA
ATOM     27  H2  UNL     1       7.502   5.218  25.917  1.00  0.00     0.211 HD
ENDBRANCH   6  26
ENDBRANCH   5   6
ENDBRANCH   4   5
BRANCH   4  28
HETATM   28  C22 UNL     1       9.485   7.106  28.352  1.00  0.00     0.138 C 
BRANCH  28  29
HETATM   29  C23 UNL     1      10.351   7.830  29.365  1.00  0.00     0.133 C 
BRANCH  29  30
HETATM   30  C24 UNL     1      11.387   6.853  29.829  1.00  0.00     0.174 C 
HETATM   31  O3  UNL     1      12.621   7.026  29.678  1.00  0.00    -0.648 OA
HETATM   32  O4  UNL     1      10.999   5.663  30.476  1.00  0.00    -0.648 OA
ENDBRANCH  29  30
ENDBRANCH  28  29
ENDBRANCH   4  28
ENDBRANCH   1   4
TORSDOF 7
ENDMDL
