MODEL 1
REMARK VINA RESULT: -8.043503868      0.000      0.000
REMARK  9 active torsions:
REMARK  status: ('A' for Active; 'I' for Inactive)
REMARK    1  A    between atoms: C1_2  and  O2_3 
REMARK    2  A    between atoms: C1_2  and  C4_8 
REMARK    3  A    between atoms: O2_3  and  C2_4 
REMARK    4  A    between atoms: C2_4  and  C3_5 
REMARK    5  A    between atoms: C3_5  and  O3_6 
REMARK    6  A    between atoms: C10_15  and  O4_16 
REMARK    7  A    between atoms: O4_16  and  C11_17 
REMARK    8  A    between atoms: C11_17  and  C12_18 
REMARK    9  A    between atoms: C16_25  and  O7_26 
ROOT
HETATM    1  C4  UNL     1      -0.703  24.358  10.703  1.00  0.00     0.149 C 
HETATM    2  C5  UNL     1      -1.052  25.420   9.681  1.00  0.00     0.066 C 
HETATM    3  C6  UNL     1      -0.208  26.671   9.813  1.00  0.00     0.101 C 
HETATM    4  C7  UNL     1       1.187  26.269  10.219  1.00  0.00     0.051 C 
HETATM    5  C8  UNL     1       1.732  25.117   9.402  1.00  0.00     0.077 C 
HETATM    6  S1  UNL     1       0.868  23.634  10.074  1.00  0.00    -0.154 SA
HETATM    7  C9  UNL     1      -0.274  27.383   8.508  1.00  0.00     0.076 C 
HETATM    8  C10 UNL     1      -0.085  28.922   8.658  1.00  0.00     0.164 C 
HETATM    9  C13 UNL     1      -0.894  29.276   9.836  1.00  0.00     0.145 C 
HETATM   10  O5  UNL     1      -0.301  28.617  10.934  1.00  0.00    -0.224 OA
HETATM   11  O6  UNL     1      -0.759  27.389  10.870  1.00  0.00    -0.229 OA
HETATM   12  C14 UNL     1      -2.362  28.954   9.755  1.00  0.00     0.033 C 
HETATM   13  C15 UNL     1      -3.069  30.233   9.323  1.00  0.00     0.047 C 
HETATM   14  C16 UNL     1      -2.446  30.773  10.627  1.00  0.00     0.078 C 
HETATM   15  C17 UNL     1      -2.783  29.401  11.167  1.00  0.00     0.047 C 
HETATM   16  C18 UNL     1      -0.985  30.737  10.202  1.00  0.00     0.157 C 
HETATM   17 CL1  UNL     1      -0.811  31.775   8.756  1.00  0.00    -0.118 Cl
ENDROOT
BRANCH   1  18
HETATM   18  C1  UNL     1      -1.753  23.344  10.783  1.00  0.00     0.273 C 
HETATM   19  O1  UNL     1      -1.496  22.172  10.462  1.00  0.00    -0.264 OA
BRANCH  18  20
HETATM   20  O2  UNL     1      -3.033  23.655  11.209  1.00  0.00    -0.318 OA
BRANCH  20  21
HETATM   21  C2  UNL     1      -3.192  24.137  12.529  1.00  0.00     0.204 C 
BRANCH  21  22
HETATM   22  C3  UNL     1      -3.606  25.594  12.495  1.00  0.00     0.191 C 
BRANCH  22  23
HETATM   23  O3  UNL     1      -2.620  26.402  13.033  1.00  0.00    -0.399 OA
ATOM     24  H3  UNL     1      -2.117  26.826  12.347  1.00  0.00     0.209 HD
ENDBRANCH  22  23
ENDBRANCH  21  22
ENDBRANCH  20  21
ENDBRANCH  18  20
ENDBRANCH   1  18
BRANCH   8  25
HETATM   25  O4  UNL     1       1.264  29.059   8.914  1.00  0.00    -0.380 OA
BRANCH  25  26
HETATM   26  C11 UNL     1       2.097  28.946   7.834  1.00  0.00     0.199 C 
BRANCH  26  27
HETATM   27  C12 UNL     1       1.589  29.874   6.738  1.00  0.00     0.248 C 
HETATM   28  F1  UNL     1       2.013  31.148   7.039  1.00  0.00    -0.253 F 
ENDBRANCH  26  27
ENDBRANCH  25  26
ENDBRANCH   8  25
BRANCH  14  29
HETATM   29  O7  UNL     1      -2.962  31.863  11.167  1.00  0.00    -0.388 OA
ATOM     30  H7  UNL     1      -2.712  32.091  12.055  1.00  0.00     0.210 HD
ENDBRANCH  14  29
TORSDOF 9
ENDMDL
MODEL 2
REMARK VINA RESULT: -7.907544370      0.821      1.096
REMARK  9 active torsions:
REMARK  status: ('A' for Active; 'I' for Inactive)
REMARK    1  A    between atoms: C1_2  and  O2_3 
REMARK    2  A    between atoms: C1_2  and  C4_8 
REMARK    3  A    between atoms: O2_3  and  C2_4 
REMARK    4  A    between atoms: C2_4  and  C3_5 
REMARK    5  A    between atoms: C3_5  and  O3_6 
REMARK    6  A    between atoms: C10_15  and  O4_16 
REMARK    7  A    between atoms: O4_16  and  C11_17 
REMARK    8  A    between atoms: C11_17  and  C12_18 
REMARK    9  A    between atoms: C16_25  and  O7_26 
ROOT
HETATM    1  C4  UNL     1      -0.696  24.453  10.917  1.00  0.00     0.149 C 
HETATM    2  C5  UNL     1      -1.080  25.473   9.864  1.00  0.00     0.066 C 
HETATM    3  C6  UNL     1      -0.227  26.725   9.914  1.00  0.00     0.101 C 
HETATM    4  C7  UNL     1       1.180  26.333  10.284  1.00  0.00     0.051 C 
HETATM    5  C8  UNL     1       1.691  25.146   9.496  1.00  0.00     0.077 C 
HETATM    6  S1  UNL     1       0.848  23.696  10.261  1.00  0.00    -0.154 SA
HETATM    7  C9  UNL     1      -0.340  27.383   8.584  1.00  0.00     0.076 C 
HETATM    8  C10 UNL     1      -0.141  28.925   8.662  1.00  0.00     0.164 C 
HETATM    9  C13 UNL     1      -0.904  29.332   9.854  1.00  0.00     0.145 C 
HETATM   10  O5  UNL     1      -0.273  28.715  10.956  1.00  0.00    -0.224 OA
HETATM   11  O6  UNL     1      -0.737  27.488  10.959  1.00  0.00    -0.229 OA
HETATM   12  C14 UNL     1      -2.375  29.014   9.840  1.00  0.00     0.033 C 
HETATM   13  C15 UNL     1      -3.093  30.277   9.382  1.00  0.00     0.047 C 
HETATM   14  C16 UNL     1      -2.421  30.867  10.639  1.00  0.00     0.078 C 
HETATM   15  C17 UNL     1      -2.742  29.521  11.248  1.00  0.00     0.047 C 
HETATM   16  C18 UNL     1      -0.977  30.807  10.162  1.00  0.00     0.157 C 
HETATM   17 CL1  UNL     1      -0.853  31.783   8.669  1.00  0.00    -0.118 Cl
ENDROOT
BRANCH   1  18
HETATM   18  C1  UNL     1      -1.746  23.448  11.077  1.00  0.00     0.273 C 
HETATM   19  O1  UNL     1      -1.689  22.394  10.422  1.00  0.00    -0.264 OA
BRANCH  18  20
HETATM   20  O2  UNL     1      -2.808  23.638  11.944  1.00  0.00    -0.318 OA
BRANCH  20  21
HETATM   21  C2  UNL     1      -2.522  24.090  13.252  1.00  0.00     0.204 C 
BRANCH  21  22
HETATM   22  C3  UNL     1      -2.988  23.063  14.263  1.00  0.00     0.191 C 
BRANCH  22  23
HETATM   23  O3  UNL     1      -2.218  21.914  14.192  1.00  0.00    -0.399 OA
ATOM     24  H3  UNL     1      -1.549  21.995  13.523  1.00  0.00     0.209 HD
ENDBRANCH  22  23
ENDBRANCH  21  22
ENDBRANCH  20  21
ENDBRANCH  18  20
ENDBRANCH   1  18
BRANCH   8  25
HETATM   25  O4  UNL     1       1.218  29.067   8.862  1.00  0.00    -0.380 OA
BRANCH  25  26
HETATM   26  C11 UNL     1       2.010  28.907   7.758  1.00  0.00     0.199 C 
BRANCH  26  27
HETATM   27  C12 UNL     1       1.538  29.879   6.685  1.00  0.00     0.248 C 
HETATM   28  F1  UNL     1       1.973  31.135   7.038  1.00  0.00    -0.253 F 
ENDBRANCH  26  27
ENDBRANCH  25  26
ENDBRANCH   8  25
BRANCH  14  29
HETATM   29  O7  UNL     1      -2.913  31.981  11.152  1.00  0.00    -0.388 OA
ATOM     30  H7  UNL     1      -2.361  32.754  11.171  1.00  0.00     0.210 HD
ENDBRANCH  14  29
TORSDOF 9
ENDMDL
MODEL 3
REMARK VINA RESULT: -7.683922280      1.389      1.525
REMARK  9 active torsions:
REMARK  status: ('A' for Active; 'I' for Inactive)
REMARK    1  A    between atoms: C1_2  and  O2_3 
REMARK    2  A    between atoms: C1_2  and  C4_8 
REMARK    3  A    between atoms: O2_3  and  C2_4 
REMARK    4  A    between atoms: C2_4  and  C3_5 
REMARK    5  A    between atoms: C3_5  and  O3_6 
REMARK    6  A    between atoms: C10_15  and  O4_16 
REMARK    7  A    between atoms: O4_16  and  C11_17 
REMARK    8  A    between atoms: C11_17  and  C12_18 
REMARK    9  A    between atoms: C16_25  and  O7_26 
ROOT
HETATM    1  C4  UNL     1      -1.232  24.562  11.638  1.00  0.00     0.149 C 
HETATM    2  C5  UNL     1      -1.495  25.496  10.475  1.00  0.00     0.066 C 
HETATM    3  C6  UNL     1      -0.531  26.663  10.422  1.00  0.00     0.101 C 
HETATM    4  C7  UNL     1       0.825  26.187  10.874  1.00  0.00     0.051 C 
HETATM    5  C8  UNL     1       1.240  24.882  10.229  1.00  0.00     0.077 C 
HETATM    6  S1  UNL     1       0.249  23.603  11.112  1.00  0.00    -0.154 SA
HETATM    7  C9  UNL     1      -0.552  27.185   9.028  1.00  0.00     0.076 C 
HETATM    8  C10 UNL     1      -0.212  28.703   8.953  1.00  0.00     0.164 C 
HETATM    9  C13 UNL     1      -0.959  29.300  10.072  1.00  0.00     0.145 C 
HETATM   10  O5  UNL     1      -0.413  28.749  11.251  1.00  0.00    -0.224 OA
HETATM   11  O6  UNL     1      -0.989  27.576  11.366  1.00  0.00    -0.229 OA
HETATM   12  C14 UNL     1      -2.453  29.117  10.045  1.00  0.00     0.033 C 
HETATM   13  C15 UNL     1      -3.040  30.385   9.437  1.00  0.00     0.047 C 
HETATM   14  C16 UNL     1      -2.342  31.041  10.647  1.00  0.00     0.078 C 
HETATM   15  C17 UNL     1      -2.802  29.801  11.381  1.00  0.00     0.047 C 
HETATM   16  C18 UNL     1      -0.900  30.800  10.224  1.00  0.00     0.157 C 
HETATM   17 CL1  UNL     1      -0.654  31.598   8.643  1.00  0.00    -0.118 Cl
ENDROOT
BRANCH   1  18
HETATM   18  C1  UNL     1      -2.374  23.679  11.868  1.00  0.00     0.273 C 
HETATM   19  O1  UNL     1      -2.955  23.167  10.898  1.00  0.00    -0.264 OA
BRANCH  18  20
HETATM   20  O2  UNL     1      -2.829  23.397  13.145  1.00  0.00    -0.318 OA
BRANCH  20  21
HETATM   21  C2  UNL     1      -3.275  24.475  13.943  1.00  0.00     0.204 C 
BRANCH  21  22
HETATM   22  C3  UNL     1      -2.563  24.453  15.280  1.00  0.00     0.191 C 
BRANCH  22  23
HETATM   23  O3  UNL     1      -2.563  25.708  15.862  1.00  0.00    -0.399 OA
ATOM     24  H3  UNL     1      -1.686  25.958  16.129  1.00  0.00     0.209 HD
ENDBRANCH  22  23
ENDBRANCH  21  22
ENDBRANCH  20  21
ENDBRANCH  18  20
ENDBRANCH   1  18
BRANCH   8  25
HETATM   25  O4  UNL     1       1.149  28.741   9.180  1.00  0.00    -0.380 OA
BRANCH  25  26
HETATM   26  C11 UNL     1       1.939  28.920   8.077  1.00  0.00     0.199 C 
BRANCH  26  27
HETATM   27  C12 UNL     1       2.865  27.717   7.950  1.00  0.00     0.248 C 
HETATM   28  F1  UNL     1       3.385  27.456   9.196  1.00  0.00    -0.253 F 
ENDBRANCH  26  27
ENDBRANCH  25  26
ENDBRANCH   8  25
BRANCH  14  29
HETATM   29  O7  UNL     1      -2.740  32.243  11.027  1.00  0.00    -0.388 OA
ATOM     30  H7  UNL     1      -3.357  32.310  11.745  1.00  0.00     0.210 HD
ENDBRANCH  14  29
TORSDOF 9
ENDMDL
MODEL 4
REMARK VINA RESULT: -7.648739414      2.509      4.605
REMARK  9 active torsions:
REMARK  status: ('A' for Active; 'I' for Inactive)
REMARK    1  A    between atoms: C1_2  and  O2_3 
REMARK    2  A    between atoms: C1_2  and  C4_8 
REMARK    3  A    between atoms: O2_3  and  C2_4 
REMARK    4  A    between atoms: C2_4  and  C3_5 
REMARK    5  A    between atoms: C3_5  and  O3_6 
REMARK    6  A    between atoms: C10_15  and  O4_16 
REMARK    7  A    between atoms: O4_16  and  C11_17 
REMARK    8  A    between atoms: C11_17  and  C12_18 
REMARK    9  A    between atoms: C16_25  and  O7_26 
ROOT
HETATM    1  C4  UNL     1      -1.168  25.679  11.595  1.00  0.00     0.149 C 
HETATM    2  C5  UNL     1      -0.291  26.900  11.407  1.00  0.00     0.066 C 
HETATM    3  C6  UNL     1      -0.702  27.747  10.220  1.00  0.00     0.101 C 
HETATM    4  C7  UNL     1      -2.205  27.720  10.107  1.00  0.00     0.051 C 
HETATM    5  C8  UNL     1      -2.901  27.951  11.431  1.00  0.00     0.077 C 
HETATM    6  S1  UNL     1      -2.717  26.352  12.328  1.00  0.00    -0.154 SA
HETATM    7  C9  UNL     1      -0.138  29.107  10.437  1.00  0.00     0.076 C 
HETATM    8  C10 UNL     1       0.144  29.856   9.101  1.00  0.00     0.164 C 
HETATM    9  C13 UNL     1       0.754  28.837   8.233  1.00  0.00     0.145 C 
HETATM   10  O5  UNL     1      -0.235  27.852   8.024  1.00  0.00    -0.224 OA
HETATM   11  O6  UNL     1      -0.188  27.102   9.099  1.00  0.00    -0.229 OA
HETATM   12  C14 UNL     1       2.026  28.209   8.737  1.00  0.00     0.033 C 
HETATM   13  C15 UNL     1       3.178  28.957   8.075  1.00  0.00     0.047 C 
HETATM   14  C16 UNL     1       2.497  28.445   6.789  1.00  0.00     0.078 C 
HETATM   15  C17 UNL     1       2.259  27.194   7.603  1.00  0.00     0.047 C 
HETATM   16  C18 UNL     1       1.226  29.278   6.869  1.00  0.00     0.157 C 
HETATM   17 CL1  UNL     1       1.701  31.002   6.878  1.00  0.00    -0.118 Cl
ENDROOT
BRANCH   1  18
HETATM   18  C1  UNL     1      -0.536  24.716  12.497  1.00  0.00     0.273 C 
HETATM   19  O1  UNL     1      -1.245  23.924  13.138  1.00  0.00    -0.264 OA
BRANCH  18  20
HETATM   20  O2  UNL     1       0.838  24.663  12.657  1.00  0.00    -0.318 OA
BRANCH  20  21
HETATM   21  C2  UNL     1       1.559  23.730  11.877  1.00  0.00     0.204 C 
BRANCH  21  22
HETATM   22  C3  UNL     1       2.361  24.458  10.818  1.00  0.00     0.191 C 
BRANCH  22  23
HETATM   23  O3  UNL     1       2.941  25.603  11.336  1.00  0.00    -0.399 OA
ATOM     24  H3  UNL     1       2.308  26.111  11.828  1.00  0.00     0.209 HD
ENDBRANCH  22  23
ENDBRANCH  21  22
ENDBRANCH  20  21
ENDBRANCH  18  20
ENDBRANCH   1  18
BRANCH   8  25
HETATM   25  O4  UNL     1      -1.114  30.210   8.656  1.00  0.00    -0.380 OA
BRANCH  25  26
HETATM   26  C11 UNL     1      -1.515  31.487   8.935  1.00  0.00     0.199 C 
BRANCH  26  27
HETATM   27  C12 UNL     1      -2.455  31.444  10.132  1.00  0.00     0.248 C 
HETATM   28  F1  UNL     1      -2.435  32.685  10.725  1.00  0.00    -0.253 F 
ENDBRANCH  26  27
ENDBRANCH  25  26
ENDBRANCH   8  25
BRANCH  14  29
HETATM   29  O7  UNL     1       3.206  28.407   5.674  1.00  0.00    -0.388 OA
ATOM     30  H7  UNL     1       3.229  27.597   5.179  1.00  0.00     0.210 HD
ENDBRANCH  14  29
TORSDOF 9
ENDMDL
MODEL 5
REMARK VINA RESULT: -7.599134609      1.476      2.270
REMARK  9 active torsions:
REMARK  status: ('A' for Active; 'I' for Inactive)
REMARK    1  A    between atoms: C1_2  and  O2_3 
REMARK    2  A    between atoms: C1_2  and  C4_8 
REMARK    3  A    between atoms: O2_3  and  C2_4 
REMARK    4  A    between atoms: C2_4  and  C3_5 
REMARK    5  A    between atoms: C3_5  and  O3_6 
REMARK    6  A    between atoms: C10_15  and  O4_16 
REMARK    7  A    between atoms: O4_16  and  C11_17 
REMARK    8  A    between atoms: C11_17  and  C12_18 
REMARK    9  A    between atoms: C16_25  and  O7_26 
ROOT
HETATM    1  C4  UNL     1       0.598  25.120  11.755  1.00  0.00     0.149 C 
HETATM    2  C5  UNL     1      -0.178  25.832  10.666  1.00  0.00     0.066 C 
HETATM    3  C6  UNL     1       0.445  27.152  10.260  1.00  0.00     0.101 C 
HETATM    4  C7  UNL     1       1.944  27.015  10.322  1.00  0.00     0.051 C 
HETATM    5  C8  UNL     1       2.451  25.749   9.665  1.00  0.00     0.077 C 
HETATM    6  S1  UNL     1       2.055  24.418  10.877  1.00  0.00    -0.154 SA
HETATM    7  C9  UNL     1      -0.074  27.482   8.905  1.00  0.00     0.076 C 
HETATM    8  C10 UNL     1      -0.120  29.016   8.641  1.00  0.00     0.164 C 
HETATM    9  C13 UNL     1      -0.647  29.587   9.891  1.00  0.00     0.145 C 
HETATM   10  O5  UNL     1       0.310  29.306  10.889  1.00  0.00    -0.224 OA
HETATM   11  O6  UNL     1       0.068  28.065  11.240  1.00  0.00    -0.229 OA
HETATM   12  C14 UNL     1      -2.010  29.108  10.316  1.00  0.00     0.033 C 
HETATM   13  C15 UNL     1      -3.012  30.149   9.831  1.00  0.00     0.047 C 
HETATM   14  C16 UNL     1      -2.177  31.075  10.739  1.00  0.00     0.078 C 
HETATM   15  C17 UNL     1      -2.125  29.869  11.651  1.00  0.00     0.047 C 
HETATM   16  C18 UNL     1      -0.890  31.076   9.927  1.00  0.00     0.157 C 
HETATM   17 CL1  UNL     1      -1.273  31.705   8.297  1.00  0.00    -0.118 Cl
ENDROOT
BRANCH   1  18
HETATM   18  C1  UNL     1      -0.207  24.063  12.365  1.00  0.00     0.273 C 
HETATM   19  O1  UNL     1      -1.086  24.363  13.189  1.00  0.00    -0.264 OA
BRANCH  18  20
HETATM   20  O2  UNL     1      -0.017  22.729  12.047  1.00  0.00    -0.318 OA
BRANCH  20  21
HETATM   21  C2  UNL     1      -0.988  22.097  11.237  1.00  0.00     0.204 C 
BRANCH  21  22
HETATM   22  C3  UNL     1      -0.355  20.948  10.480  1.00  0.00     0.191 C 
BRANCH  22  23
HETATM   23  O3  UNL     1      -1.176  19.834  10.491  1.00  0.00    -0.399 OA
ATOM     24  H3  UNL     1      -2.006  20.020  10.069  1.00  0.00     0.209 HD
ENDBRANCH  22  23
ENDBRANCH  21  22
ENDBRANCH  20  21
ENDBRANCH  18  20
ENDBRANCH   1  18
BRANCH   8  25
HETATM   25  O4  UNL     1       1.206  29.352   8.455  1.00  0.00    -0.380 OA
BRANCH  25  26
HETATM   26  C11 UNL     1       1.749  29.017   7.244  1.00  0.00     0.199 C 
BRANCH  26  27
HETATM   27  C12 UNL     1       1.550  30.187   6.290  1.00  0.00     0.248 C 
HETATM   28  F1  UNL     1       1.678  31.347   7.018  1.00  0.00    -0.253 F 
ENDBRANCH  26  27
ENDBRANCH  25  26
ENDBRANCH   8  25
BRANCH  14  29
HETATM   29  O7  UNL     1      -2.717  32.212  11.145  1.00  0.00    -0.388 OA
ATOM     30  H7  UNL     1      -2.139  32.913  11.422  1.00  0.00     0.210 HD
ENDBRANCH  14  29
TORSDOF 9
ENDMDL
