MODEL 1
REMARK VINA RESULT: -5.494135142      0.000      0.000
REMARK  5 active torsions:
REMARK  status: ('A' for Active; 'I' for Inactive)
REMARK    1  A    between atoms: C3_3  and  N1_4 
REMARK    2  A    between atoms: N1_4  and  C4_6 
REMARK    3  A    between atoms: C4_6  and  C5_7 
REMARK    4  A    between atoms: C5_7  and  N2_8 
REMARK    5  A    between atoms: N2_8  and  C6_11 
ROOT
HETATM    1  C4  UNL     1      35.966  64.676-152.673  1.00  0.00     0.142 C 
ENDROOT
BRANCH   1   2
HETATM    2  N1  UNL     1      35.600  64.434-151.288  1.00  0.00    -0.414 N 
ATOM      3  H1  UNL     1      34.793  63.864-151.033  1.00  0.00     0.153 HD
BRANCH   2   4
HETATM    4  C3  UNL     1      36.431  65.035-150.313  1.00  0.00     0.103 C 
HETATM    5  C2  UNL     1      35.797  64.820-148.957  1.00  0.00     0.054 C 
HETATM    6  C1  UNL     1      34.837  65.991-148.787  1.00  0.00     0.234 C 
HETATM    7  N4  UNL     1      35.032  66.849-149.906  1.00  0.00    -0.073 N 
HETATM    8  C9  UNL     1      36.350  66.559-150.407  1.00  0.00     0.256 C 
ATOM      9  H42 UNL     1      34.301  66.765-150.613  1.00  0.00     0.277 HD
ATOM     10  H41 UNL     1      34.886  67.835-149.692  1.00  0.00     0.277 HD
ENDBRANCH   2   4
ENDBRANCH   1   2
BRANCH   1  11
HETATM   11  C5  UNL     1      36.805  63.470-153.101  1.00  0.00     0.252 C 
BRANCH  11  12
HETATM   12  N2  UNL     1      36.968  63.316-154.490  1.00  0.00    -0.066 N 
ATOM     13  H22 UNL     1      36.340  62.616-154.884  1.00  0.00     0.277 HD
ATOM     14  H21 UNL     1      36.627  64.119-155.018  1.00  0.00     0.277 HD
BRANCH  12  15
HETATM   15  C6  UNL     1      38.350  63.030-154.748  1.00  0.00     0.236 C 
HETATM   16  C7  UNL     1      38.791  61.795-153.962  1.00  0.00     0.267 C 
HETATM   17  N3  UNL     1      38.288  61.004-155.121  1.00  0.00    -0.071 N 
HETATM   18  C8  UNL     1      38.673  62.142-155.939  1.00  0.00     0.267 C 
ATOM     19  H32 UNL     1      38.629  60.063-155.316  1.00  0.00     0.277 HD
ATOM     20  H31 UNL     1      37.341  60.626-155.140  1.00  0.00     0.277 HD
ENDBRANCH  12  15
ENDBRANCH  11  12
ENDBRANCH   1  11
TORSDOF 5
ENDMDL
MODEL 2
REMARK VINA RESULT: -5.382354766      2.107      2.702
REMARK  5 active torsions:
REMARK  status: ('A' for Active; 'I' for Inactive)
REMARK    1  A    between atoms: C3_3  and  N1_4 
REMARK    2  A    between atoms: N1_4  and  C4_6 
REMARK    3  A    between atoms: C4_6  and  C5_7 
REMARK    4  A    between atoms: C5_7  and  N2_8 
REMARK    5  A    between atoms: N2_8  and  C6_11 
ROOT
HETATM    1  C4  UNL     1      36.120  64.427-153.244  1.00  0.00     0.142 C 
ENDROOT
BRANCH   1   2
HETATM    2  N1  UNL     1      36.119  64.122-151.824  1.00  0.00    -0.414 N 
ATOM      3  H1  UNL     1      36.330  63.189-151.470  1.00  0.00     0.153 HD
BRANCH   2   4
HETATM    4  C3  UNL     1      35.807  65.199-150.960  1.00  0.00     0.103 C 
HETATM    5  C2  UNL     1      36.876  66.256-151.121  1.00  0.00     0.054 C 
HETATM    6  C1  UNL     1      37.971  65.855-150.141  1.00  0.00     0.234 C 
HETATM    7  N4  UNL     1      37.478  64.739-149.408  1.00  0.00    -0.073 N 
HETATM    8  C9  UNL     1      36.042  64.801-149.502  1.00  0.00     0.256 C 
ATOM      9  H42 UNL     1      37.866  63.847-149.715  1.00  0.00     0.277 HD
ATOM     10  H41 UNL     1      37.821  64.700-148.448  1.00  0.00     0.277 HD
ENDBRANCH   2   4
ENDBRANCH   1   2
BRANCH   1  11
HETATM   11  C5  UNL     1      37.267  63.610-153.845  1.00  0.00     0.252 C 
BRANCH  11  12
HETATM   12  N2  UNL     1      38.217  63.141-152.920  1.00  0.00    -0.066 N 
ATOM     13  H22 UNL     1      38.091  63.539-151.990  1.00  0.00     0.277 HD
ATOM     14  H21 UNL     1      38.075  62.162-152.671  1.00  0.00     0.277 HD
BRANCH  12  15
HETATM   15  C6  UNL     1      39.523  63.391-153.458  1.00  0.00     0.236 C 
HETATM   16  C7  UNL     1      40.096  64.685-152.879  1.00  0.00     0.267 C 
HETATM   17  N3  UNL     1      40.590  63.842-151.754  1.00  0.00    -0.071 N 
HETATM   18  C8  UNL     1      40.711  62.777-152.734  1.00  0.00     0.267 C 
ATOM     19  H32 UNL     1      41.380  64.130-151.175  1.00  0.00     0.277 HD
ATOM     20  H31 UNL     1      40.051  63.724-150.897  1.00  0.00     0.277 HD
ENDBRANCH  12  15
ENDBRANCH  11  12
ENDBRANCH   1  11
TORSDOF 5
ENDMDL
MODEL 3
REMARK VINA RESULT: -5.379323920      1.769      2.051
REMARK  5 active torsions:
REMARK  status: ('A' for Active; 'I' for Inactive)
REMARK    1  A    between atoms: C3_3  and  N1_4 
REMARK    2  A    between atoms: N1_4  and  C4_6 
REMARK    3  A    between atoms: C4_6  and  C5_7 
REMARK    4  A    between atoms: C5_7  and  N2_8 
REMARK    5  A    between atoms: N2_8  and  C6_11 
ROOT
HETATM    1  C4  UNL     1      36.153  64.697-152.822  1.00  0.00     0.142 C 
ENDROOT
BRANCH   1   2
HETATM    2  N1  UNL     1      36.223  64.209-151.456  1.00  0.00    -0.414 N 
ATOM      3  H1  UNL     1      35.931  63.264-151.204  1.00  0.00     0.153 HD
BRANCH   2   4
HETATM    4  C3  UNL     1      36.720  65.122-150.496  1.00  0.00     0.103 C 
HETATM    5  C2  UNL     1      36.111  64.774-149.156  1.00  0.00     0.054 C 
HETATM    6  C1  UNL     1      34.791  65.535-149.120  1.00  0.00     0.234 C 
HETATM    7  N4  UNL     1      34.748  66.339-150.294  1.00  0.00    -0.073 N 
HETATM    8  C9  UNL     1      36.115  66.509-150.713  1.00  0.00     0.256 C 
ATOM      9  H42 UNL     1      34.144  65.961-151.024  1.00  0.00     0.277 HD
ATOM     10  H41 UNL     1      34.250  67.220-150.165  1.00  0.00     0.277 HD
ENDBRANCH   2   4
ENDBRANCH   1   2
BRANCH   1  11
HETATM   11  C5  UNL     1      36.972  63.713-153.661  1.00  0.00     0.252 C 
BRANCH  11  12
HETATM   12  N2  UNL     1      37.999  63.046-152.968  1.00  0.00    -0.066 N 
ATOM     13  H22 UNL     1      37.951  63.189-151.959  1.00  0.00     0.277 HD
ATOM     14  H21 UNL     1      37.881  62.032-152.969  1.00  0.00     0.277 HD
BRANCH  12  15
HETATM   15  C6  UNL     1      39.253  63.458-153.528  1.00  0.00     0.236 C 
HETATM   16  C7  UNL     1      39.762  64.714-152.821  1.00  0.00     0.267 C 
HETATM   17  N3  UNL     1      40.374  63.784-151.830  1.00  0.00    -0.071 N 
HETATM   18  C8  UNL     1      40.518  62.855-152.938  1.00  0.00     0.267 C 
ATOM     19  H32 UNL     1      41.170  64.061-151.255  1.00  0.00     0.277 HD
ATOM     20  H31 UNL     1      39.890  63.523-150.971  1.00  0.00     0.277 HD
ENDBRANCH  12  15
ENDBRANCH  11  12
ENDBRANCH   1  11
TORSDOF 5
ENDMDL
MODEL 4
REMARK VINA RESULT: -5.311506999      1.149      1.687
REMARK  5 active torsions:
REMARK  status: ('A' for Active; 'I' for Inactive)
REMARK    1  A    between atoms: C3_3  and  N1_4 
REMARK    2  A    between atoms: N1_4  and  C4_6 
REMARK    3  A    between atoms: C4_6  and  C5_7 
REMARK    4  A    between atoms: C5_7  and  N2_8 
REMARK    5  A    between atoms: N2_8  and  C6_11 
ROOT
HETATM    1  C4  UNL     1      36.126  64.460-153.076  1.00  0.00     0.142 C 
ENDROOT
BRANCH   1   2
HETATM    2  N1  UNL     1      35.769  64.252-151.683  1.00  0.00    -0.414 N 
ATOM      3  H1  UNL     1      35.558  63.326-151.312  1.00  0.00     0.153 HD
BRANCH   2   4
HETATM    4  C3  UNL     1      35.731  65.412-150.873  1.00  0.00     0.103 C 
HETATM    5  C2  UNL     1      36.998  66.200-151.122  1.00  0.00     0.054 C 
HETATM    6  C1  UNL     1      38.016  65.616-150.149  1.00  0.00     0.234 C 
HETATM    7  N4  UNL     1      37.319  64.673-149.342  1.00  0.00    -0.073 N 
HETATM    8  C9  UNL     1      35.930  65.044-149.402  1.00  0.00     0.256 C 
ATOM      9  H42 UNL     1      37.493  63.704-149.609  1.00  0.00     0.277 HD
ATOM     10  H41 UNL     1      37.681  64.607-148.391  1.00  0.00     0.277 HD
ENDBRANCH   2   4
ENDBRANCH   1   2
BRANCH   1  11
HETATM   11  C5  UNL     1      37.115  63.345-153.425  1.00  0.00     0.252 C 
BRANCH  11  12
HETATM   12  N2  UNL     1      37.329  63.144-154.801  1.00  0.00    -0.066 N 
ATOM     13  H22 UNL     1      36.612  62.561-155.230  1.00  0.00     0.277 HD
ATOM     14  H21 UNL     1      37.169  63.988-155.352  1.00  0.00     0.277 HD
BRANCH  12  15
HETATM   15  C6  UNL     1      38.651  62.614-154.972  1.00  0.00     0.236 C 
HETATM   16  C7  UNL     1      38.783  61.274-154.249  1.00  0.00     0.267 C 
HETATM   17  N3  UNL     1      38.247  60.663-155.498  1.00  0.00    -0.071 N 
HETATM   18  C8  UNL     1      38.909  61.751-156.198  1.00  0.00     0.267 C 
ATOM     19  H32 UNL     1      38.423  59.687-155.736  1.00  0.00     0.277 HD
ATOM     20  H31 UNL     1      37.251  60.475-155.618  1.00  0.00     0.277 HD
ENDBRANCH  12  15
ENDBRANCH  11  12
ENDBRANCH   1  11
TORSDOF 5
ENDMDL
MODEL 5
REMARK VINA RESULT: -5.284441058      1.113      1.614
REMARK  5 active torsions:
REMARK  status: ('A' for Active; 'I' for Inactive)
REMARK    1  A    between atoms: C3_3  and  N1_4 
REMARK    2  A    between atoms: N1_4  and  C4_6 
REMARK    3  A    between atoms: C4_6  and  C5_7 
REMARK    4  A    between atoms: C5_7  and  N2_8 
REMARK    5  A    between atoms: N2_8  and  C6_11 
ROOT
HETATM    1  C4  UNL     1      36.125  64.534-152.593  1.00  0.00     0.142 C 
ENDROOT
BRANCH   1   2
HETATM    2  N1  UNL     1      35.914  64.214-151.192  1.00  0.00    -0.414 N 
ATOM      3  H1  UNL     1      35.328  63.433-150.898  1.00  0.00     0.153 HD
BRANCH   2   4
HETATM    4  C3  UNL     1      36.571  65.052-150.260  1.00  0.00     0.103 C 
HETATM    5  C2  UNL     1      35.930  64.842-148.906  1.00  0.00     0.054 C 
HETATM    6  C1  UNL     1      34.758  65.815-148.876  1.00  0.00     0.234 C 
HETATM    7  N4  UNL     1      34.834  66.588-150.069  1.00  0.00    -0.073 N 
HETATM    8  C9  UNL     1      36.204  66.516-150.505  1.00  0.00     0.256 C 
ATOM      9  H42 UNL     1      34.165  66.300-150.783  1.00  0.00     0.277 HD
ATOM     10  H41 UNL     1      34.493  67.543-149.956  1.00  0.00     0.277 HD
ENDBRANCH   2   4
ENDBRANCH   1   2
BRANCH   1  11
HETATM   11  C5  UNL     1      36.904  63.354-153.179  1.00  0.00     0.252 C 
BRANCH  11  12
HETATM   12  N2  UNL     1      37.074  63.382-154.575  1.00  0.00    -0.066 N 
ATOM     13  H22 UNL     1      36.829  62.497-155.020  1.00  0.00     0.277 HD
ATOM     14  H21 UNL     1      36.384  63.968-155.045  1.00  0.00     0.277 HD
BRANCH  12  15
HETATM   15  C6  UNL     1      38.423  63.786-154.851  1.00  0.00     0.236 C 
HETATM   16  C7  UNL     1      38.831  63.345-156.256  1.00  0.00     0.267 C 
HETATM   17  N3  UNL     1      38.226  64.623-156.723  1.00  0.00    -0.071 N 
HETATM   18  C8  UNL     1      38.635  65.171-155.441  1.00  0.00     0.267 C 
ATOM     19  H32 UNL     1      38.503  65.057-157.604  1.00  0.00     0.277 HD
ATOM     20  H31 UNL     1      37.259  64.673-157.044  1.00  0.00     0.277 HD
ENDBRANCH  12  15
ENDBRANCH  11  12
ENDBRANCH   1  11
TORSDOF 5
ENDMDL
