MODEL 1
REMARK VINA RESULT: -5.629632666      0.000      0.000
REMARK  7 active torsions:
REMARK  status: ('A' for Active; 'I' for Inactive)
REMARK    1  A    between atoms: C2_2  and  N1_3 
REMARK    2  A    between atoms: N1_3  and  C3_5 
REMARK    3  A    between atoms: C4_10  and  N4_11 
REMARK    4  A    between atoms: N4_11  and  C5_13 
REMARK    5  A    between atoms: C5_13  and  C6_14 
REMARK    6  A    between atoms: C6_14  and  C7_15 
REMARK    7  A    between atoms: C7_15  and  N5_16 
ROOT
HETATM    1  C3  UNL     1      37.764  63.310-153.342  1.00  0.00     0.707 A 
HETATM    2  N2  UNL     1      36.863  63.440-154.336  1.00  0.00    -0.117 N 
ATOM      3  H2  UNL     1      36.877  62.974-155.243  1.00  0.00     0.206 HD
HETATM    4  N3  UNL     1      35.958  64.295-153.897  1.00  0.00    -0.117 N 
ATOM      5  H3  UNL     1      35.141  64.599-154.427  1.00  0.00     0.206 HD
HETATM    6  C4  UNL     1      36.261  64.708-152.655  1.00  0.00     0.707 A 
HETATM    7  N6  UNL     1      37.388  64.086-152.323  1.00  0.00    -0.020 N 
ATOM      8  H6  UNL     1      37.884  64.186-151.437  1.00  0.00     0.203 HD
ENDROOT
BRANCH   6   9
HETATM    9  N4  UNL     1      35.573  65.553-151.933  1.00  0.00    -0.224 N 
ATOM     10  H4  UNL     1      34.588  65.704-152.149  1.00  0.00     0.177 HD
BRANCH   9  11
HETATM   11  C5  UNL     1      36.166  66.270-150.848  1.00  0.00     0.140 C 
BRANCH  11  12
HETATM   12  C6  UNL     1      35.271  66.319-149.624  1.00  0.00     0.047 C 
BRANCH  12  13
HETATM   13  C7  UNL     1      35.445  65.030-148.854  1.00  0.00     0.231 C 
BRANCH  13  14
HETATM   14  N5  UNL     1      36.766  64.492-148.958  1.00  0.00    -0.079 N 
ATOM     15  H53 UNL     1      37.463  65.237-148.958  1.00  0.00     0.274 HD
ATOM     16  H52 UNL     1      37.034  64.015-148.097  1.00  0.00     0.274 HD
ATOM     17  H51 UNL     1      36.885  63.882-149.766  1.00  0.00     0.274 HD
ENDBRANCH  13  14
ENDBRANCH  12  13
ENDBRANCH  11  12
ENDBRANCH   9  11
ENDBRANCH   6   9
BRANCH   1  18
HETATM   18  N1  UNL     1      38.810  62.553-153.390  1.00  0.00    -0.225 N 
ATOM     19  H1  UNL     1      38.731  61.579-153.682  1.00  0.00     0.177 HD
BRANCH  18  20
HETATM   20  C2  UNL     1      40.088  63.106-153.026  1.00  0.00     0.134 C 
HETATM   21  C1  UNL     1      41.133  62.025-152.919  1.00  0.00     0.027 C 
ENDBRANCH  18  20
ENDBRANCH   1  18
TORSDOF 7
ENDMDL
MODEL 2
REMARK VINA RESULT: -5.553742520      1.275      4.855
REMARK  7 active torsions:
REMARK  status: ('A' for Active; 'I' for Inactive)
REMARK    1  A    between atoms: C2_2  and  N1_3 
REMARK    2  A    between atoms: N1_3  and  C3_5 
REMARK    3  A    between atoms: C4_10  and  N4_11 
REMARK    4  A    between atoms: N4_11  and  C5_13 
REMARK    5  A    between atoms: C5_13  and  C6_14 
REMARK    6  A    between atoms: C6_14  and  C7_15 
REMARK    7  A    between atoms: C7_15  and  N5_16 
ROOT
HETATM    1  C3  UNL     1      36.199  64.641-152.501  1.00  0.00     0.707 A 
HETATM    2  N2  UNL     1      35.860  64.350-153.773  1.00  0.00    -0.117 N 
ATOM      3  H2  UNL     1      35.053  64.702-154.290  1.00  0.00     0.206 HD
HETATM    4  N3  UNL     1      36.786  63.520-154.215  1.00  0.00    -0.117 N 
ATOM      5  H3  UNL     1      36.806  63.118-155.152  1.00  0.00     0.206 HD
HETATM    6  C4  UNL     1      37.698  63.277-153.259  1.00  0.00     0.707 A 
HETATM    7  N6  UNL     1      37.319  63.982-152.198  1.00  0.00    -0.020 N 
ATOM      8  H6  UNL     1      37.804  64.014-151.301  1.00  0.00     0.203 HD
ENDROOT
BRANCH   6   9
HETATM    9  N4  UNL     1      38.743  62.499-153.369  1.00  0.00    -0.224 N 
ATOM     10  H4  UNL     1      38.631  61.494-153.233  1.00  0.00     0.177 HD
BRANCH   9  11
HETATM   11  C5  UNL     1      40.038  63.020-153.675  1.00  0.00     0.140 C 
BRANCH  11  12
HETATM   12  C6  UNL     1      40.989  62.947-152.495  1.00  0.00     0.047 C 
BRANCH  12  13
HETATM   13  C7  UNL     1      41.138  64.336-151.916  1.00  0.00     0.231 C 
BRANCH  13  14
HETATM   14  N5  UNL     1      40.423  64.509-150.690  1.00  0.00    -0.079 N 
ATOM     15  H53 UNL     1      40.697  63.803-150.006  1.00  0.00     0.274 HD
ATOM     16  H52 UNL     1      40.739  65.346-150.199  1.00  0.00     0.274 HD
ATOM     17  H51 UNL     1      39.411  64.521-150.817  1.00  0.00     0.274 HD
ENDBRANCH  13  14
ENDBRANCH  12  13
ENDBRANCH  11  12
ENDBRANCH   9  11
ENDBRANCH   6   9
BRANCH   1  18
HETATM   18  N1  UNL     1      35.534  65.430-151.723  1.00  0.00    -0.225 N 
ATOM     19  H1  UNL     1      35.128  66.293-152.085  1.00  0.00     0.177 HD
BRANCH  18  20
HETATM   20  C2  UNL     1      35.373  65.072-150.338  1.00  0.00     0.134 C 
HETATM   21  C1  UNL     1      34.186  65.774-149.733  1.00  0.00     0.027 C 
ENDBRANCH  18  20
ENDBRANCH   1  18
TORSDOF 7
ENDMDL
MODEL 3
REMARK VINA RESULT: -5.387838721      1.373      1.507
REMARK  7 active torsions:
REMARK  status: ('A' for Active; 'I' for Inactive)
REMARK    1  A    between atoms: C2_2  and  N1_3 
REMARK    2  A    between atoms: N1_3  and  C3_5 
REMARK    3  A    between atoms: C4_10  and  N4_11 
REMARK    4  A    between atoms: N4_11  and  C5_13 
REMARK    5  A    between atoms: C5_13  and  C6_14 
REMARK    6  A    between atoms: C6_14  and  C7_15 
REMARK    7  A    between atoms: C7_15  and  N5_16 
ROOT
HETATM    1  C3  UNL     1      38.285  63.056-154.009  1.00  0.00     0.707 A 
HETATM    2  N2  UNL     1      37.257  63.381-154.818  1.00  0.00    -0.117 N 
ATOM      3  H2  UNL     1      37.230  63.310-155.836  1.00  0.00     0.206 HD
HETATM    4  N3  UNL     1      36.292  63.808-154.026  1.00  0.00    -0.117 N 
ATOM      5  H3  UNL     1      35.378  64.128-154.345  1.00  0.00     0.206 HD
HETATM    6  C4  UNL     1      36.681  63.763-152.741  1.00  0.00     0.707 A 
HETATM    7  N6  UNL     1      37.924  63.293-152.746  1.00  0.00    -0.020 N 
ATOM      8  H6  UNL     1      38.505  63.139-151.923  1.00  0.00     0.203 HD
ENDROOT
BRANCH   6   9
HETATM    9  N4  UNL     1      35.966  64.116-151.705  1.00  0.00    -0.224 N 
ATOM     10  H4  UNL     1      35.036  63.714-151.583  1.00  0.00     0.177 HD
BRANCH   9  11
HETATM   11  C5  UNL     1      36.452  65.050-150.740  1.00  0.00     0.140 C 
BRANCH  11  12
HETATM   12  C6  UNL     1      36.082  64.666-149.320  1.00  0.00     0.047 C 
BRANCH  12  13
HETATM   13  C7  UNL     1      35.066  65.660-148.806  1.00  0.00     0.231 C 
BRANCH  13  14
HETATM   14  N5  UNL     1      35.014  66.858-149.586  1.00  0.00    -0.079 N 
ATOM     15  H53 UNL     1      35.877  67.394-149.488  1.00  0.00     0.274 HD
ATOM     16  H52 UNL     1      35.063  66.646-150.582  1.00  0.00     0.274 HD
ATOM     17  H51 UNL     1      34.200  67.435-149.375  1.00  0.00     0.274 HD
ENDBRANCH  13  14
ENDBRANCH  12  13
ENDBRANCH  11  12
ENDBRANCH   9  11
ENDBRANCH   6   9
BRANCH   1  18
HETATM   18  N1  UNL     1      39.423  62.594-154.412  1.00  0.00    -0.225 N 
ATOM     19  H1  UNL     1      39.778  62.829-155.339  1.00  0.00     0.177 HD
BRANCH  18  20
HETATM   20  C2  UNL     1      40.180  61.741-153.535  1.00  0.00     0.134 C 
HETATM   21  C1  UNL     1      39.910  60.287-153.828  1.00  0.00     0.027 C 
ENDBRANCH  18  20
ENDBRANCH   1  18
TORSDOF 7
ENDMDL
MODEL 4
REMARK VINA RESULT: -5.381304788      1.379      5.478
REMARK  7 active torsions:
REMARK  status: ('A' for Active; 'I' for Inactive)
REMARK    1  A    between atoms: C2_2  and  N1_3 
REMARK    2  A    between atoms: N1_3  and  C3_5 
REMARK    3  A    between atoms: C4_10  and  N4_11 
REMARK    4  A    between atoms: N4_11  and  C5_13 
REMARK    5  A    between atoms: C5_13  and  C6_14 
REMARK    6  A    between atoms: C6_14  and  C7_15 
REMARK    7  A    between atoms: C7_15  and  N5_16 
ROOT
HETATM    1  C3  UNL     1      36.388  64.719-152.455  1.00  0.00     0.707 A 
HETATM    2  N2  UNL     1      35.847  64.530-153.675  1.00  0.00    -0.117 N 
ATOM      3  H2  UNL     1      35.024  64.995-154.061  1.00  0.00     0.206 HD
HETATM    4  N3  UNL     1      36.597  63.621-154.268  1.00  0.00    -0.117 N 
ATOM      5  H3  UNL     1      36.440  63.264-155.211  1.00  0.00     0.206 HD
HETATM    6  C4  UNL     1      37.595  63.231-153.460  1.00  0.00     0.707 A 
HETATM    7  N6  UNL     1      37.453  63.923-152.334  1.00  0.00    -0.020 N 
ATOM      8  H6  UNL     1      38.056  63.857-151.514  1.00  0.00     0.203 HD
ENDROOT
BRANCH   6   9
HETATM    9  N4  UNL     1      38.515  62.345-153.740  1.00  0.00    -0.224 N 
ATOM     10  H4  UNL     1      38.254  61.501-154.250  1.00  0.00     0.177 HD
BRANCH   9  11
HETATM   11  C5  UNL     1      39.878  62.528-153.351  1.00  0.00     0.140 C 
BRANCH  11  12
HETATM   12  C6  UNL     1      40.654  61.225-153.315  1.00  0.00     0.047 C 
BRANCH  12  13
HETATM   13  C7  UNL     1      39.927  60.214-154.173  1.00  0.00     0.231 C 
BRANCH  13  14
HETATM   14  N5  UNL     1      39.367  59.140-153.414  1.00  0.00    -0.079 N 
ATOM     15  H53 UNL     1      39.156  58.341-154.014  1.00  0.00     0.274 HD
ATOM     16  H52 UNL     1      40.071  58.713-152.812  1.00  0.00     0.274 HD
ATOM     17  H51 UNL     1      38.547  59.418-152.876  1.00  0.00     0.274 HD
ENDBRANCH  13  14
ENDBRANCH  12  13
ENDBRANCH  11  12
ENDBRANCH   9  11
ENDBRANCH   6   9
BRANCH   1  18
HETATM   18  N1  UNL     1      35.935  65.541-151.567  1.00  0.00    -0.225 N 
ATOM     19  H1  UNL     1      35.981  66.548-151.722  1.00  0.00     0.177 HD
BRANCH  18  20
HETATM   20  C2  UNL     1      35.363  65.013-150.356  1.00  0.00     0.134 C 
HETATM   21  C1  UNL     1      34.102  65.751-149.987  1.00  0.00     0.027 C 
ENDBRANCH  18  20
ENDBRANCH   1  18
TORSDOF 7
ENDMDL
MODEL 5
REMARK VINA RESULT: -5.340788196      1.736      5.604
REMARK  7 active torsions:
REMARK  status: ('A' for Active; 'I' for Inactive)
REMARK    1  A    between atoms: C2_2  and  N1_3 
REMARK    2  A    between atoms: N1_3  and  C3_5 
REMARK    3  A    between atoms: C4_10  and  N4_11 
REMARK    4  A    between atoms: N4_11  and  C5_13 
REMARK    5  A    between atoms: C5_13  and  C6_14 
REMARK    6  A    between atoms: C6_14  and  C7_15 
REMARK    7  A    between atoms: C7_15  and  N5_16 
ROOT
HETATM    1  C3  UNL     1      35.906  65.417-151.566  1.00  0.00     0.707 A 
HETATM    2  N2  UNL     1      37.228  65.404-151.298  1.00  0.00    -0.117 N 
ATOM      3  H2  UNL     1      37.731  66.021-150.661  1.00  0.00     0.206 HD
HETATM    4  N3  UNL     1      37.737  64.429-152.027  1.00  0.00    -0.117 N 
ATOM      5  H3  UNL     1      38.723  64.169-152.042  1.00  0.00     0.206 HD
HETATM    6  C4  UNL     1      36.777  63.827-152.748  1.00  0.00     0.707 A 
HETATM    7  N6  UNL     1      35.642  64.453-152.450  1.00  0.00    -0.020 N 
ATOM      8  H6  UNL     1      34.723  64.233-152.834  1.00  0.00     0.203 HD
ENDROOT
BRANCH   6   9
HETATM    9  N4  UNL     1      36.943  62.826-153.573  1.00  0.00    -0.224 N 
ATOM     10  H4  UNL     1      36.218  62.111-153.639  1.00  0.00     0.177 HD
BRANCH   9  11
HETATM   11  C5  UNL     1      38.114  62.708-154.384  1.00  0.00     0.140 C 
BRANCH  11  12
HETATM   12  C6  UNL     1      39.110  61.709-153.825  1.00  0.00     0.047 C 
BRANCH  12  13
HETATM   13  C7  UNL     1      38.817  60.355-154.431  1.00  0.00     0.231 C 
BRANCH  13  14
HETATM   14  N5  UNL     1      39.301  59.272-153.633  1.00  0.00    -0.079 N 
ATOM     15  H53 UNL     1      39.794  58.587-154.208  1.00  0.00     0.274 HD
ATOM     16  H52 UNL     1      40.072  59.573-153.037  1.00  0.00     0.274 HD
ATOM     17  H51 UNL     1      38.568  58.825-153.082  1.00  0.00     0.274 HD
ENDBRANCH  13  14
ENDBRANCH  12  13
ENDBRANCH  11  12
ENDBRANCH   9  11
ENDBRANCH   6   9
BRANCH   1  18
HETATM   18  N1  UNL     1      35.056  66.236-151.041  1.00  0.00    -0.225 N 
ATOM     19  H1  UNL     1      35.029  67.213-151.335  1.00  0.00     0.177 HD
BRANCH  18  20
HETATM   20  C2  UNL     1      34.147  65.750-150.037  1.00  0.00     0.134 C 
HETATM   21  C1  UNL     1      34.731  65.910-148.657  1.00  0.00     0.027 C 
ENDBRANCH  18  20
ENDBRANCH   1  18
TORSDOF 7
ENDMDL
