MODEL 1
REMARK VINA RESULT: -5.327026567      0.000      0.000
REMARK  7 active torsions:
REMARK  status: ('A' for Active; 'I' for Inactive)
REMARK    1  A    between atoms: C2_2  and  C3_3 
REMARK    2  A    between atoms: C3_3  and  N1_4 
REMARK    3  A    between atoms: N1_4  and  C4_6 
REMARK    4  A    between atoms: C4_6  and  C5_7 
REMARK    5  A    between atoms: C5_7  and  N2_8 
REMARK    6  A    between atoms: N2_8  and  C6_10 
REMARK    7  A    between atoms: C7_16  and  N5_17 
ROOT
HETATM    1  C6  UNL     1      36.350  65.002-150.051  1.00  0.00     0.169 A 
HETATM    2  N3  UNL     1      36.521  64.574-148.789  1.00  0.00    -0.222 N 
ATOM      3  H3  UNL     1      37.188  63.858-148.500  1.00  0.00     0.198 HD
HETATM    4  O1  UNL     1      35.720  65.201-147.995  1.00  0.00    -0.153 OA
HETATM    5  N4  UNL     1      34.993  66.058-148.671  1.00  0.00    -0.222 N 
ATOM      6  H4  UNL     1      34.282  66.682-148.291  1.00  0.00     0.198 HD
HETATM    7  C7  UNL     1      35.369  65.955-149.984  1.00  0.00     0.167 A 
ENDROOT
BRANCH   1   8
HETATM    8  N2  UNL     1      36.937  64.617-151.132  1.00  0.00    -0.370 N 
ATOM      9  H2  UNL     1      37.929  64.820-151.254  1.00  0.00     0.161 HD
BRANCH   8  10
HETATM   10  C5  UNL     1      36.225  63.899-152.190  1.00  0.00     0.140 C 
BRANCH  10  11
HETATM   11  C4  UNL     1      36.637  64.537-153.529  1.00  0.00     0.133 C 
BRANCH  11  12
HETATM   12  N1  UNL     1      36.977  63.469-154.400  1.00  0.00    -0.417 N 
ATOM     13  H1  UNL     1      36.254  62.904-154.846  1.00  0.00     0.153 HD
BRANCH  12  14
HETATM   14  C3  UNL     1      38.348  63.212-154.632  1.00  0.00     0.140 C 
BRANCH  14  15
HETATM   15  C2  UNL     1      38.846  62.029-153.885  1.00  0.00    -0.018 C 
HETATM   16  C1  UNL     1      38.758  60.777-154.320  1.00  0.00     0.008 C 
ENDBRANCH  14  15
ENDBRANCH  12  14
ENDBRANCH  11  12
ENDBRANCH  10  11
ENDBRANCH   8  10
ENDBRANCH   1   8
BRANCH   7  17
HETATM   17  N5  UNL     1      34.834  66.660-150.914  1.00  0.00    -0.381 N 
ATOM     18  H52 UNL     1      34.740  66.324-151.873  1.00  0.00     0.157 HD
ATOM     19  H51 UNL     1      34.445  67.602-150.885  1.00  0.00     0.157 HD
ENDBRANCH   7  17
TORSDOF 7
ENDMDL
MODEL 2
REMARK VINA RESULT: -5.312917620      0.964      1.683
REMARK  7 active torsions:
REMARK  status: ('A' for Active; 'I' for Inactive)
REMARK    1  A    between atoms: C2_2  and  C3_3 
REMARK    2  A    between atoms: C3_3  and  N1_4 
REMARK    3  A    between atoms: N1_4  and  C4_6 
REMARK    4  A    between atoms: C4_6  and  C5_7 
REMARK    5  A    between atoms: C5_7  and  N2_8 
REMARK    6  A    between atoms: N2_8  and  C6_10 
REMARK    7  A    between atoms: C7_16  and  N5_17 
ROOT
HETATM    1  C6  UNL     1      35.898  65.774-150.755  1.00  0.00     0.169 A 
HETATM    2  N3  UNL     1      34.892  66.662-150.709  1.00  0.00    -0.222 N 
ATOM      3  H3  UNL     1      34.575  67.227-151.497  1.00  0.00     0.198 HD
HETATM    4  O1  UNL     1      34.384  66.698-149.524  1.00  0.00    -0.153 OA
HETATM    5  N4  UNL     1      35.009  65.854-148.739  1.00  0.00    -0.222 N 
ATOM      6  H4  UNL     1      34.810  65.681-147.754  1.00  0.00     0.198 HD
HETATM    7  C7  UNL     1      35.981  65.250-149.493  1.00  0.00     0.167 A 
ENDROOT
BRANCH   1   8
HETATM    8  N2  UNL     1      36.668  65.459-151.739  1.00  0.00    -0.370 N 
ATOM      9  H2  UNL     1      37.654  65.717-151.697  1.00  0.00     0.161 HD
BRANCH   8  10
HETATM   10  C5  UNL     1      36.174  64.743-152.916  1.00  0.00     0.140 C 
BRANCH  10  11
HETATM   11  C4  UNL     1      37.054  63.492-153.090  1.00  0.00     0.133 C 
BRANCH  11  12
HETATM   12  N1  UNL     1      37.188  63.281-154.488  1.00  0.00    -0.417 N 
ATOM     13  H1  UNL     1      36.435  63.527-155.130  1.00  0.00     0.153 HD
BRANCH  12  14
HETATM   14  C3  UNL     1      38.395  62.719-154.962  1.00  0.00     0.140 C 
BRANCH  14  15
HETATM   15  C2  UNL     1      38.944  61.680-154.053  1.00  0.00    -0.018 C 
HETATM   16  C1  UNL     1      38.978  60.383-154.334  1.00  0.00     0.008 C 
ENDBRANCH  14  15
ENDBRANCH  12  14
ENDBRANCH  11  12
ENDBRANCH  10  11
ENDBRANCH   8  10
ENDBRANCH   1   8
BRANCH   7  17
HETATM   17  N5  UNL     1      36.783  64.370-149.011  1.00  0.00    -0.381 N 
ATOM     18  H52 UNL     1      37.744  64.266-149.338  1.00  0.00     0.157 HD
ATOM     19  H51 UNL     1      36.632  63.668-148.287  1.00  0.00     0.157 HD
ENDBRANCH   7  17
TORSDOF 7
ENDMDL
MODEL 3
REMARK VINA RESULT: -5.188162599      2.800      5.525
REMARK  7 active torsions:
REMARK  status: ('A' for Active; 'I' for Inactive)
REMARK    1  A    between atoms: C2_2  and  C3_3 
REMARK    2  A    between atoms: C3_3  and  N1_4 
REMARK    3  A    between atoms: N1_4  and  C4_6 
REMARK    4  A    between atoms: C4_6  and  C5_7 
REMARK    5  A    between atoms: C5_7  and  N2_8 
REMARK    6  A    between atoms: N2_8  and  C6_10 
REMARK    7  A    between atoms: C7_16  and  N5_17 
ROOT
HETATM    1  C6  UNL     1      38.442  64.087-152.915  1.00  0.00     0.169 A 
HETATM    2  N3  UNL     1      39.387  63.132-152.921  1.00  0.00    -0.222 N 
ATOM      3  H3  UNL     1      40.304  63.215-152.481  1.00  0.00     0.198 HD
HETATM    4  O1  UNL     1      38.968  62.096-153.564  1.00  0.00    -0.153 OA
HETATM    5  N4  UNL     1      37.751  62.301-154.007  1.00  0.00    -0.222 N 
ATOM      6  H4  UNL     1      37.183  61.647-154.544  1.00  0.00     0.198 HD
HETATM    7  C7  UNL     1      37.388  63.561-153.612  1.00  0.00     0.167 A 
ENDROOT
BRANCH   1   8
HETATM    8  N2  UNL     1      38.476  65.269-152.402  1.00  0.00    -0.370 N 
ATOM      9  H2  UNL     1      38.869  66.034-152.949  1.00  0.00     0.161 HD
BRANCH   8  10
HETATM   10  C5  UNL     1      37.968  65.548-151.058  1.00  0.00     0.140 C 
BRANCH  10  11
HETATM   11  C4  UNL     1      37.697  67.061-150.980  1.00  0.00     0.133 C 
BRANCH  11  12
HETATM   12  N1  UNL     1      36.338  67.211-150.597  1.00  0.00    -0.417 N 
ATOM     13  H1  UNL     1      36.012  68.061-150.138  1.00  0.00     0.153 HD
BRANCH  12  14
HETATM   14  C3  UNL     1      35.450  66.146-150.870  1.00  0.00     0.140 C 
BRANCH  14  15
HETATM   15  C2  UNL     1      34.451  65.937-149.791  1.00  0.00    -0.018 C 
HETATM   16  C1  UNL     1      34.731  65.980-148.493  1.00  0.00     0.008 C 
ENDBRANCH  14  15
ENDBRANCH  12  14
ENDBRANCH  11  12
ENDBRANCH  10  11
ENDBRANCH   8  10
ENDBRANCH   1   8
BRANCH   7  17
HETATM   17  N5  UNL     1      36.245  64.074-153.898  1.00  0.00    -0.381 N 
ATOM     18  H52 UNL     1      35.773  64.741-153.287  1.00  0.00     0.157 HD
ATOM     19  H51 UNL     1      35.642  63.925-154.706  1.00  0.00     0.157 HD
ENDBRANCH   7  17
TORSDOF 7
ENDMDL
MODEL 4
REMARK VINA RESULT: -5.102471553      2.574      5.876
REMARK  7 active torsions:
REMARK  status: ('A' for Active; 'I' for Inactive)
REMARK    1  A    between atoms: C2_2  and  C3_3 
REMARK    2  A    between atoms: C3_3  and  N1_4 
REMARK    3  A    between atoms: N1_4  and  C4_6 
REMARK    4  A    between atoms: C4_6  and  C5_7 
REMARK    5  A    between atoms: C5_7  and  N2_8 
REMARK    6  A    between atoms: N2_8  and  C6_10 
REMARK    7  A    between atoms: C7_16  and  N5_17 
ROOT
HETATM    1  C6  UNL     1      38.212  62.888-153.469  1.00  0.00     0.169 A 
HETATM    2  N3  UNL     1      39.193  63.517-152.801  1.00  0.00    -0.222 N 
ATOM      3  H3  UNL     1      39.090  64.410-152.317  1.00  0.00     0.198 HD
HETATM    4  O1  UNL     1      40.282  62.830-152.859  1.00  0.00    -0.153 OA
HETATM    5  N4  UNL     1      40.088  61.734-153.551  1.00  0.00    -0.222 N 
ATOM      6  H4  UNL     1      40.780  61.012-153.750  1.00  0.00     0.198 HD
HETATM    7  C7  UNL     1      38.780  61.741-153.954  1.00  0.00     0.167 A 
ENDROOT
BRANCH   1   8
HETATM    8  N2  UNL     1      36.990  63.250-153.663  1.00  0.00    -0.370 N 
ATOM      9  H2  UNL     1      36.384  62.658-154.232  1.00  0.00     0.161 HD
BRANCH   8  10
HETATM   10  C5  UNL     1      36.444  64.483-153.094  1.00  0.00     0.140 C 
BRANCH  10  11
HETATM   11  C4  UNL     1      35.719  64.100-151.791  1.00  0.00     0.133 C 
BRANCH  11  12
HETATM   12  N1  UNL     1      36.554  64.523-150.723  1.00  0.00    -0.417 N 
ATOM     13  H1  UNL     1      37.153  63.861-150.231  1.00  0.00     0.153 HD
BRANCH  12  14
HETATM   14  C3  UNL     1      36.528  65.890-150.362  1.00  0.00     0.140 C 
BRANCH  14  15
HETATM   15  C2  UNL     1      35.206  66.323-149.840  1.00  0.00    -0.018 C 
HETATM   16  C1  UNL     1      34.738  66.009-148.638  1.00  0.00     0.008 C 
ENDBRANCH  14  15
ENDBRANCH  12  14
ENDBRANCH  11  12
ENDBRANCH  10  11
ENDBRANCH   8  10
ENDBRANCH   1   8
BRANCH   7  17
HETATM   17  N5  UNL     1      38.270  60.801-154.666  1.00  0.00    -0.381 N 
ATOM     18  H52 UNL     1      38.224  60.846-155.685  1.00  0.00     0.157 HD
ATOM     19  H51 UNL     1      37.844  59.918-154.384  1.00  0.00     0.157 HD
ENDBRANCH   7  17
TORSDOF 7
ENDMDL
MODEL 5
REMARK VINA RESULT: -5.092876500      1.135      1.772
REMARK  7 active torsions:
REMARK  status: ('A' for Active; 'I' for Inactive)
REMARK    1  A    between atoms: C2_2  and  C3_3 
REMARK    2  A    between atoms: C3_3  and  N1_4 
REMARK    3  A    between atoms: N1_4  and  C4_6 
REMARK    4  A    between atoms: C4_6  and  C5_7 
REMARK    5  A    between atoms: C5_7  and  N2_8 
REMARK    6  A    between atoms: N2_8  and  C6_10 
REMARK    7  A    between atoms: C7_16  and  N5_17 
ROOT
HETATM    1  C6  UNL     1      36.659  66.023-150.361  1.00  0.00     0.169 A 
HETATM    2  N3  UNL     1      35.999  67.192-150.378  1.00  0.00    -0.222 N 
ATOM      3  H3  UNL     1      36.158  67.944-151.050  1.00  0.00     0.198 HD
HETATM    4  O1  UNL     1      35.134  67.229-149.422  1.00  0.00    -0.153 OA
HETATM    5  N4  UNL     1      35.172  66.112-148.736  1.00  0.00    -0.222 N 
ATOM      6  H4  UNL     1      34.594  65.876-147.930  1.00  0.00     0.198 HD
HETATM    7  C7  UNL     1      36.133  65.322-149.308  1.00  0.00     0.167 A 
ENDROOT
BRANCH   1   8
HETATM    8  N2  UNL     1      37.606  65.606-151.129  1.00  0.00    -0.370 N 
ATOM      9  H2  UNL     1      38.500  65.344-150.713  1.00  0.00     0.161 HD
BRANCH   8  10
HETATM   10  C5  UNL     1      37.441  65.495-152.579  1.00  0.00     0.140 C 
BRANCH  10  11
HETATM   11  C4  UNL     1      36.365  64.424-152.834  1.00  0.00     0.133 C 
BRANCH  11  12
HETATM   12  N1  UNL     1      36.689  63.810-154.072  1.00  0.00    -0.417 N 
ATOM     13  H1  UNL     1      35.970  63.366-154.642  1.00  0.00     0.153 HD
BRANCH  12  14
HETATM   14  C3  UNL     1      38.039  63.833-154.492  1.00  0.00     0.140 C 
BRANCH  14  15
HETATM   15  C2  UNL     1      38.540  62.493-154.891  1.00  0.00    -0.018 C 
HETATM   16  C1  UNL     1      38.844  61.522-154.037  1.00  0.00     0.008 C 
ENDBRANCH  14  15
ENDBRANCH  12  14
ENDBRANCH  11  12
ENDBRANCH  10  11
ENDBRANCH   8  10
ENDBRANCH   1   8
BRANCH   7  17
HETATM   17  N5  UNL     1      36.426  64.154-148.861  1.00  0.00    -0.381 N 
ATOM     18  H52 UNL     1      36.597  63.357-149.476  1.00  0.00     0.157 HD
ATOM     19  H51 UNL     1      36.527  63.823-147.902  1.00  0.00     0.157 HD
ENDBRANCH   7  17
TORSDOF 7
ENDMDL
