MODEL 1
REMARK VINA RESULT: -7.092147932      0.000      0.000
REMARK  14 active torsions:
REMARK  status: ('A' for Active; 'I' for Inactive)
REMARK    1  A    between atoms: O1_2  and  C2_3 
REMARK    2  A    between atoms: C4_5  and  N1_6 
REMARK    3  A    between atoms: N1_6  and  C5_8 
REMARK    4  A    between atoms: C5_8  and  O2_9 
REMARK    5  A    between atoms: C5_8  and  C6_11 
REMARK    6  A    between atoms: C6_11  and  C7_12 
REMARK    7  A    between atoms: C7_12  and  N2_13 
REMARK    8  A    between atoms: C7_12  and  C8_17 
REMARK    9  A    between atoms: C8_17  and  O3_18 
REMARK   10  A    between atoms: C8_17  and  C9_20 
REMARK   11  A    between atoms: C9_20  and  O4_21 
REMARK   12  A    between atoms: C9_20  and  C10_23 
REMARK   13  A    between atoms: C10_23  and  O5_24 
REMARK   14  A    between atoms: C11_28  and  N4_29 
ROOT
HETATM    1  C5  UNL     1      39.289  28.774  20.524  1.00  0.00     0.221 C 
ENDROOT
BRANCH   1   2
HETATM    2  N1  UNL     1      38.046  29.424  20.786  1.00  0.00    -0.349 N 
ATOM      3  H1  UNL     1      37.482  29.623  19.960  1.00  0.00     0.163 HD
BRANCH   2   4
HETATM    4  C4  UNL     1      37.536  29.791  21.882  1.00  0.00     0.122 A 
HETATM    5  C3  UNL     1      37.712  31.135  22.213  1.00  0.00     0.105 A 
HETATM    6  C2  UNL     1      37.196  31.616  23.376  1.00  0.00     0.160 A 
HETATM    7  N5  UNL     1      36.522  30.804  24.197  1.00  0.00    -0.171 N 
HETATM    8  C11 UNL     1      36.353  29.509  23.878  1.00  0.00     0.679 A 
ATOM      9  H5  UNL     1      36.135  31.168  25.069  1.00  0.00     0.186 HD
HETATM   10  N3  UNL     1      36.857  28.994  22.721  1.00  0.00    -0.177 N 
ATOM     11  H3  UNL     1      36.719  28.009  22.494  1.00  0.00     0.185 HD
BRANCH   6  12
HETATM   12  O1  UNL     1      37.341  32.950  23.756  1.00  0.00    -0.340 OA
HETATM   13  C1  UNL     1      37.529  34.000  22.833  1.00  0.00     0.211 C 
ENDBRANCH   6  12
BRANCH   8  14
HETATM   14  N4  UNL     1      35.712  28.693  24.640  1.00  0.00    -0.234 N 
ATOM     15  H42 UNL     1      35.843  27.683  24.586  1.00  0.00     0.174 HD
ATOM     16  H41 UNL     1      35.061  29.108  25.306  1.00  0.00     0.174 HD
ENDBRANCH   8  14
ENDBRANCH   2   4
ENDBRANCH   1   2
BRANCH   1  17
HETATM   17  O2  UNL     1      39.501  27.777  21.450  1.00  0.00    -0.377 OA
ATOM     18  H2  UNL     1      40.379  27.427  21.353  1.00  0.00     0.212 HD
ENDBRANCH   1  17
BRANCH   1  19
HETATM   19  C6  UNL     1      39.298  28.300  19.096  1.00  0.00     0.089 C 
BRANCH  19  20
HETATM   20  C7  UNL     1      39.871  29.293  18.127  1.00  0.00     0.218 C 
BRANCH  20  21
HETATM   21  N2  UNL     1      39.117  29.371  16.898  1.00  0.00    -0.072 N 
ATOM     22  H23 UNL     1      39.676  29.056  16.106  1.00  0.00     0.274 HD
ATOM     23  H22 UNL     1      38.382  28.665  16.874  1.00  0.00     0.274 HD
ATOM     24  H21 UNL     1      38.736  30.302  16.729  1.00  0.00     0.274 HD
ENDBRANCH  20  21
BRANCH  20  25
HETATM   25  C8  UNL     1      41.313  28.944  17.899  1.00  0.00     0.179 C 
BRANCH  25  26
HETATM   26  O3  UNL     1      41.354  27.744  17.193  1.00  0.00    -0.391 OA
ATOM     27  H3  UNL     1      40.992  27.903  16.329  1.00  0.00     0.210 HD
ENDBRANCH  25  26
BRANCH  25  28
HETATM   28  C9  UNL     1      42.073  30.006  17.150  1.00  0.00     0.172 C 
BRANCH  28  29
HETATM   29  O4  UNL     1      41.799  29.964  15.785  1.00  0.00    -0.391 OA
ATOM     30  H4  UNL     1      40.866  29.897  15.619  1.00  0.00     0.210 HD
ENDBRANCH  28  29
BRANCH  28  31
HETATM   31  C10 UNL     1      43.550  29.933  17.331  1.00  0.00     0.198 C 
BRANCH  31  32
HETATM   32  O5  UNL     1      44.037  28.915  16.515  1.00  0.00    -0.398 OA
ATOM     33  H5  UNL     1      44.721  29.278  15.965  1.00  0.00     0.209 HD
ENDBRANCH  31  32
ENDBRANCH  28  31
ENDBRANCH  25  28
ENDBRANCH  20  25
ENDBRANCH  19  20
ENDBRANCH   1  19
TORSDOF 14
ENDMDL
MODEL 2
REMARK VINA RESULT: -7.066980494      3.633      5.527
REMARK  14 active torsions:
REMARK  status: ('A' for Active; 'I' for Inactive)
REMARK    1  A    between atoms: O1_2  and  C2_3 
REMARK    2  A    between atoms: C4_5  and  N1_6 
REMARK    3  A    between atoms: N1_6  and  C5_8 
REMARK    4  A    between atoms: C5_8  and  O2_9 
REMARK    5  A    between atoms: C5_8  and  C6_11 
REMARK    6  A    between atoms: C6_11  and  C7_12 
REMARK    7  A    between atoms: C7_12  and  N2_13 
REMARK    8  A    between atoms: C7_12  and  C8_17 
REMARK    9  A    between atoms: C8_17  and  O3_18 
REMARK   10  A    between atoms: C8_17  and  C9_20 
REMARK   11  A    between atoms: C9_20  and  O4_21 
REMARK   12  A    between atoms: C9_20  and  C10_23 
REMARK   13  A    between atoms: C10_23  and  O5_24 
REMARK   14  A    between atoms: C11_28  and  N4_29 
ROOT
HETATM    1  C5  UNL     1      41.697  29.151  15.910  1.00  0.00     0.221 C 
ENDROOT
BRANCH   1   2
HETATM    2  N1  UNL     1      40.696  28.478  16.671  1.00  0.00    -0.349 N 
ATOM      3  H1  UNL     1      40.156  27.784  16.154  1.00  0.00     0.163 HD
BRANCH   2   4
HETATM    4  C4  UNL     1      40.373  28.607  17.886  1.00  0.00     0.122 A 
HETATM    5  C3  UNL     1      39.047  28.968  18.126  1.00  0.00     0.105 A 
HETATM    6  C2  UNL     1      38.614  29.129  19.405  1.00  0.00     0.160 A 
HETATM    7  N5  UNL     1      39.456  28.942  20.428  1.00  0.00    -0.171 N 
HETATM    8  C11 UNL     1      40.734  28.595  20.195  1.00  0.00     0.679 A 
ATOM      9  H5  UNL     1      39.128  29.063  21.386  1.00  0.00     0.186 HD
HETATM   10  N3  UNL     1      41.201  28.424  18.926  1.00  0.00    -0.177 N 
ATOM     11  H3  UNL     1      42.173  28.160  18.767  1.00  0.00     0.185 HD
BRANCH   6  12
HETATM   12  O1  UNL     1      37.300  29.489  19.703  1.00  0.00    -0.340 OA
HETATM   13  C1  UNL     1      36.333  28.570  20.163  1.00  0.00     0.211 C 
ENDBRANCH   6  12
BRANCH   8  14
HETATM   14  N4  UNL     1      41.577  28.405  21.148  1.00  0.00    -0.234 N 
ATOM     15  H42 UNL     1      41.932  27.478  21.383  1.00  0.00     0.174 HD
ATOM     16  H41 UNL     1      41.877  29.233  21.664  1.00  0.00     0.174 HD
ENDBRANCH   8  14
ENDBRANCH   2   4
ENDBRANCH   1   2
BRANCH   1  17
HETATM   17  O2  UNL     1      42.091  30.297  16.564  1.00  0.00    -0.377 OA
ATOM     18  H2  UNL     1      41.489  31.005  16.367  1.00  0.00     0.212 HD
ENDBRANCH   1  17
BRANCH   1  19
HETATM   19  C6  UNL     1      42.819  28.190  15.624  1.00  0.00     0.089 C 
BRANCH  19  20
HETATM   20  C7  UNL     1      43.211  28.124  14.176  1.00  0.00     0.218 C 
BRANCH  20  21
HETATM   21  N2  UNL     1      42.611  29.174  13.387  1.00  0.00    -0.072 N 
ATOM     22  H23 UNL     1      41.594  29.149  13.459  1.00  0.00     0.274 HD
ATOM     23  H22 UNL     1      42.785  30.088  13.803  1.00  0.00     0.274 HD
ATOM     24  H21 UNL     1      42.910  29.153  12.412  1.00  0.00     0.274 HD
ENDBRANCH  20  21
BRANCH  20  25
HETATM   25  C8  UNL     1      42.877  26.754  13.664  1.00  0.00     0.179 C 
BRANCH  25  26
HETATM   26  O3  UNL     1      41.523  26.741  13.334  1.00  0.00    -0.391 OA
ATOM     27  H3  UNL     1      41.271  25.838  13.178  1.00  0.00     0.210 HD
ENDBRANCH  25  26
BRANCH  25  28
HETATM   28  C9  UNL     1      43.699  26.343  12.472  1.00  0.00     0.172 C 
BRANCH  28  29
HETATM   29  O4  UNL     1      44.781  27.200  12.278  1.00  0.00    -0.391 OA
ATOM     30  H4  UNL     1      45.587  26.826  12.615  1.00  0.00     0.210 HD
ENDBRANCH  28  29
BRANCH  28  31
HETATM   31  C10 UNL     1      42.928  26.272  11.200  1.00  0.00     0.198 C 
BRANCH  31  32
HETATM   32  O5  UNL     1      42.729  27.572  10.740  1.00  0.00    -0.398 OA
ATOM     33  H5  UNL     1      43.088  27.633   9.863  1.00  0.00     0.209 HD
ENDBRANCH  31  32
ENDBRANCH  28  31
ENDBRANCH  25  28
ENDBRANCH  20  25
ENDBRANCH  19  20
ENDBRANCH   1  19
TORSDOF 14
ENDMDL
MODEL 3
REMARK VINA RESULT: -7.024934785      2.339      3.622
REMARK  14 active torsions:
REMARK  status: ('A' for Active; 'I' for Inactive)
REMARK    1  A    between atoms: O1_2  and  C2_3 
REMARK    2  A    between atoms: C4_5  and  N1_6 
REMARK    3  A    between atoms: N1_6  and  C5_8 
REMARK    4  A    between atoms: C5_8  and  O2_9 
REMARK    5  A    between atoms: C5_8  and  C6_11 
REMARK    6  A    between atoms: C6_11  and  C7_12 
REMARK    7  A    between atoms: C7_12  and  N2_13 
REMARK    8  A    between atoms: C7_12  and  C8_17 
REMARK    9  A    between atoms: C8_17  and  O3_18 
REMARK   10  A    between atoms: C8_17  and  C9_20 
REMARK   11  A    between atoms: C9_20  and  O4_21 
REMARK   12  A    between atoms: C9_20  and  C10_23 
REMARK   13  A    between atoms: C10_23  and  O5_24 
REMARK   14  A    between atoms: C11_28  and  N4_29 
ROOT
HETATM    1  C5  UNL     1      39.026  30.706  19.870  1.00  0.00     0.221 C 
ENDROOT
BRANCH   1   2
HETATM    2  N1  UNL     1      38.294  30.676  21.095  1.00  0.00    -0.349 N 
ATOM      3  H1  UNL     1      38.210  31.576  21.568  1.00  0.00     0.163 HD
BRANCH   2   4
HETATM    4  C4  UNL     1      37.734  29.709  21.685  1.00  0.00     0.122 A 
HETATM    5  C3  UNL     1      37.851  28.468  21.060  1.00  0.00     0.105 A 
HETATM    6  C2  UNL     1      37.279  27.372  21.626  1.00  0.00     0.160 A 
HETATM    7  N5  UNL     1      36.607  27.485  22.776  1.00  0.00    -0.171 N 
HETATM    8  C11 UNL     1      36.494  28.682  23.378  1.00  0.00     0.679 A 
ATOM      9  H5  UNL     1      36.179  26.661  23.199  1.00  0.00     0.186 HD
HETATM   10  N3  UNL     1      37.056  29.801  22.838  1.00  0.00    -0.177 N 
ATOM     11  H3  UNL     1      36.961  30.701  23.308  1.00  0.00     0.185 HD
BRANCH   6  12
HETATM   12  O1  UNL     1      37.364  26.108  21.045  1.00  0.00    -0.340 OA
HETATM   13  C1  UNL     1      38.526  25.629  20.403  1.00  0.00     0.211 C 
ENDBRANCH   6  12
BRANCH   8  14
HETATM   14  N4  UNL     1      35.857  28.836  24.485  1.00  0.00    -0.234 N 
ATOM     15  H42 UNL     1      35.593  29.756  24.837  1.00  0.00     0.174 HD
ATOM     16  H41 UNL     1      35.625  27.985  25.000  1.00  0.00     0.174 HD
ENDBRANCH   8  14
ENDBRANCH   2   4
ENDBRANCH   1   2
BRANCH   1  17
HETATM   17  O2  UNL     1      38.491  31.655  19.027  1.00  0.00    -0.377 OA
ATOM     18  H2  UNL     1      39.178  32.229  18.710  1.00  0.00     0.212 HD
ENDBRANCH   1  17
BRANCH   1  19
HETATM   19  C6  UNL     1      40.484  30.910  20.179  1.00  0.00     0.089 C 
BRANCH  19  20
HETATM   20  C7  UNL     1      41.388  29.881  19.565  1.00  0.00     0.218 C 
BRANCH  20  21
HETATM   21  N2  UNL     1      42.694  29.847  20.180  1.00  0.00    -0.072 N 
ATOM     22  H23 UNL     1      43.389  29.463  19.541  1.00  0.00     0.274 HD
ATOM     23  H22 UNL     1      43.071  30.788  20.290  1.00  0.00     0.274 HD
ATOM     24  H21 UNL     1      42.698  29.345  21.068  1.00  0.00     0.274 HD
ENDBRANCH  20  21
BRANCH  20  25
HETATM   25  C8  UNL     1      41.452  30.138  18.088  1.00  0.00     0.179 C 
BRANCH  25  26
HETATM   26  O3  UNL     1      41.436  31.518  17.895  1.00  0.00    -0.391 OA
ATOM     27  H3  UNL     1      42.016  31.908  18.539  1.00  0.00     0.210 HD
ENDBRANCH  25  26
BRANCH  25  28
HETATM   28  C9  UNL     1      42.668  29.543  17.429  1.00  0.00     0.172 C 
BRANCH  28  29
HETATM   29  O4  UNL     1      43.672  30.493  17.256  1.00  0.00    -0.391 OA
ATOM     30  H4  UNL     1      44.462  30.104  16.898  1.00  0.00     0.210 HD
ENDBRANCH  28  29
BRANCH  28  31
HETATM   31  C10 UNL     1      42.392  28.910  16.110  1.00  0.00     0.198 C 
BRANCH  31  32
HETATM   32  O5  UNL     1      41.796  29.864  15.287  1.00  0.00    -0.398 OA
ATOM     33  H5  UNL     1      42.484  30.390  14.897  1.00  0.00     0.209 HD
ENDBRANCH  31  32
ENDBRANCH  28  31
ENDBRANCH  25  28
ENDBRANCH  20  25
ENDBRANCH  19  20
ENDBRANCH   1  19
TORSDOF 14
ENDMDL
MODEL 4
REMARK VINA RESULT: -6.965166413      2.699      4.055
REMARK  14 active torsions:
REMARK  status: ('A' for Active; 'I' for Inactive)
REMARK    1  A    between atoms: O1_2  and  C2_3 
REMARK    2  A    between atoms: C4_5  and  N1_6 
REMARK    3  A    between atoms: N1_6  and  C5_8 
REMARK    4  A    between atoms: C5_8  and  O2_9 
REMARK    5  A    between atoms: C5_8  and  C6_11 
REMARK    6  A    between atoms: C6_11  and  C7_12 
REMARK    7  A    between atoms: C7_12  and  N2_13 
REMARK    8  A    between atoms: C7_12  and  C8_17 
REMARK    9  A    between atoms: C8_17  and  O3_18 
REMARK   10  A    between atoms: C8_17  and  C9_20 
REMARK   11  A    between atoms: C9_20  and  O4_21 
REMARK   12  A    between atoms: C9_20  and  C10_23 
REMARK   13  A    between atoms: C10_23  and  O5_24 
REMARK   14  A    between atoms: C11_28  and  N4_29 
ROOT
HETATM    1  C5  UNL     1      41.478  30.129  17.820  1.00  0.00     0.221 C 
ENDROOT
BRANCH   1   2
HETATM    2  N1  UNL     1      41.495  29.643  19.162  1.00  0.00    -0.349 N 
ATOM      3  H1  UNL     1      42.379  29.771  19.655  1.00  0.00     0.163 HD
BRANCH   2   4
HETATM    4  C4  UNL     1      40.586  29.079  19.835  1.00  0.00     0.122 A 
HETATM    5  C3  UNL     1      39.902  29.897  20.735  1.00  0.00     0.105 A 
HETATM    6  C2  UNL     1      38.908  29.372  21.500  1.00  0.00     0.160 A 
HETATM    7  N5  UNL     1      38.587  28.079  21.389  1.00  0.00    -0.171 N 
HETATM    8  C11 UNL     1      39.247  27.292  20.522  1.00  0.00     0.679 A 
ATOM      9  H5  UNL     1      37.841  27.688  21.964  1.00  0.00     0.186 HD
HETATM   10  N3  UNL     1      40.249  27.784  19.739  1.00  0.00    -0.177 N 
ATOM     11  H3  UNL     1      40.738  27.173  19.086  1.00  0.00     0.185 HD
BRANCH   6  12
HETATM   12  O1  UNL     1      38.192  30.143  22.416  1.00  0.00    -0.340 OA
HETATM   13  C1  UNL     1      37.043  30.884  22.070  1.00  0.00     0.211 C 
ENDBRANCH   6  12
BRANCH   8  14
HETATM   14  N4  UNL     1      38.971  26.042  20.383  1.00  0.00    -0.234 N 
ATOM     15  H42 UNL     1      39.394  25.470  19.652  1.00  0.00     0.174 HD
ATOM     16  H41 UNL     1      38.304  25.646  21.046  1.00  0.00     0.174 HD
ENDBRANCH   8  14
ENDBRANCH   2   4
ENDBRANCH   1   2
BRANCH   1  17
HETATM   17  O2  UNL     1      41.614  31.499  17.817  1.00  0.00    -0.377 OA
ATOM     18  H2  UNL     1      42.528  31.733  17.925  1.00  0.00     0.212 HD
ENDBRANCH   1  17
BRANCH   1  19
HETATM   19  C6  UNL     1      42.531  29.404  17.027  1.00  0.00     0.089 C 
BRANCH  19  20
HETATM   20  C7  UNL     1      42.014  28.756  15.776  1.00  0.00     0.218 C 
BRANCH  20  21
HETATM   21  N2  UNL     1      40.819  27.978  16.003  1.00  0.00    -0.072 N 
ATOM     22  H23 UNL     1      40.785  27.633  16.963  1.00  0.00     0.274 HD
ATOM     23  H22 UNL     1      39.992  28.574  16.012  1.00  0.00     0.274 HD
ATOM     24  H21 UNL     1      40.713  27.215  15.336  1.00  0.00     0.274 HD
ENDBRANCH  20  21
BRANCH  20  25
HETATM   25  C8  UNL     1      43.126  27.945  15.177  1.00  0.00     0.179 C 
BRANCH  25  26
HETATM   26  O3  UNL     1      42.986  26.633  15.627  1.00  0.00    -0.391 OA
ATOM     27  H3  UNL     1      43.726  26.135  15.301  1.00  0.00     0.210 HD
ENDBRANCH  25  26
BRANCH  25  28
HETATM   28  C9  UNL     1      43.141  27.971  13.672  1.00  0.00     0.172 C 
BRANCH  28  29
HETATM   29  O4  UNL     1      42.431  29.061  13.172  1.00  0.00    -0.391 OA
ATOM     30  H4  UNL     1      42.999  29.808  13.023  1.00  0.00     0.210 HD
ENDBRANCH  28  29
BRANCH  28  31
HETATM   31  C10 UNL     1      42.603  26.735  13.040  1.00  0.00     0.198 C 
BRANCH  31  32
HETATM   32  O5  UNL     1      41.222  26.719  13.225  1.00  0.00    -0.398 OA
ATOM     33  H5  UNL     1      40.882  25.914  12.852  1.00  0.00     0.209 HD
ENDBRANCH  31  32
ENDBRANCH  28  31
ENDBRANCH  25  28
ENDBRANCH  20  25
ENDBRANCH  19  20
ENDBRANCH   1  19
TORSDOF 14
ENDMDL
MODEL 5
REMARK VINA RESULT: -6.951458015      3.597      6.928
REMARK  14 active torsions:
REMARK  status: ('A' for Active; 'I' for Inactive)
REMARK    1  A    between atoms: O1_2  and  C2_3 
REMARK    2  A    between atoms: C4_5  and  N1_6 
REMARK    3  A    between atoms: N1_6  and  C5_8 
REMARK    4  A    between atoms: C5_8  and  O2_9 
REMARK    5  A    between atoms: C5_8  and  C6_11 
REMARK    6  A    between atoms: C6_11  and  C7_12 
REMARK    7  A    between atoms: C7_12  and  N2_13 
REMARK    8  A    between atoms: C7_12  and  C8_17 
REMARK    9  A    between atoms: C8_17  and  O3_18 
REMARK   10  A    between atoms: C8_17  and  C9_20 
REMARK   11  A    between atoms: C9_20  and  O4_21 
REMARK   12  A    between atoms: C9_20  and  C10_23 
REMARK   13  A    between atoms: C10_23  and  O5_24 
REMARK   14  A    between atoms: C11_28  and  N4_29 
ROOT
HETATM    1  C5  UNL     1      39.449  31.485  21.817  1.00  0.00     0.221 C 
ENDROOT
BRANCH   1   2
HETATM    2  N1  UNL     1      38.149  30.939  21.592  1.00  0.00    -0.349 N 
ATOM      3  H1  UNL     1      37.576  31.453  20.924  1.00  0.00     0.163 HD
BRANCH   2   4
HETATM    4  C4  UNL     1      37.599  29.918  22.093  1.00  0.00     0.122 A 
HETATM    5  C3  UNL     1      37.809  28.720  21.411  1.00  0.00     0.105 A 
HETATM    6  C2  UNL     1      37.253  27.570  21.880  1.00  0.00     0.160 A 
HETATM    7  N5  UNL     1      36.508  27.590  22.991  1.00  0.00    -0.171 N 
HETATM    8  C11 UNL     1      36.305  28.746  23.647  1.00  0.00     0.679 A 
ATOM      9  H5  UNL     1      36.092  26.727  23.341  1.00  0.00     0.186 HD
HETATM   10  N3  UNL     1      36.848  29.916  23.205  1.00  0.00    -0.177 N 
ATOM     11  H3  UNL     1      36.684  30.783  23.716  1.00  0.00     0.185 HD
BRANCH   6  12
HETATM   12  O1  UNL     1      37.431  26.345  21.239  1.00  0.00    -0.340 OA
HETATM   13  C1  UNL     1      38.601  26.008  20.526  1.00  0.00     0.211 C 
ENDBRANCH   6  12
BRANCH   8  14
HETATM   14  N4  UNL     1      35.595  28.810  24.719  1.00  0.00    -0.234 N 
ATOM     15  H42 UNL     1      35.760  28.198  25.517  1.00  0.00     0.174 HD
ATOM     16  H41 UNL     1      34.852  29.509  24.732  1.00  0.00     0.174 HD
ENDBRANCH   8  14
ENDBRANCH   2   4
ENDBRANCH   1   2
BRANCH   1  17
HETATM   17  O2  UNL     1      39.959  31.979  20.637  1.00  0.00    -0.377 OA
ATOM     18  H2  UNL     1      40.714  32.527  20.816  1.00  0.00     0.212 HD
ENDBRANCH   1  17
BRANCH   1  19
HETATM   19  C6  UNL     1      39.364  32.502  22.923  1.00  0.00     0.089 C 
BRANCH  19  20
HETATM   20  C7  UNL     1      38.711  33.791  22.518  1.00  0.00     0.218 C 
BRANCH  20  21
HETATM   21  N2  UNL     1      39.568  34.936  22.715  1.00  0.00    -0.072 N 
ATOM     22  H23 UNL     1      39.149  35.779  22.321  1.00  0.00     0.274 HD
ATOM     23  H22 UNL     1      39.596  35.208  23.697  1.00  0.00     0.274 HD
ATOM     24  H21 UNL     1      40.509  34.791  22.349  1.00  0.00     0.274 HD
ENDBRANCH  20  21
BRANCH  20  25
HETATM   25  C8  UNL     1      37.411  33.909  23.258  1.00  0.00     0.179 C 
BRANCH  25  26
HETATM   26  O3  UNL     1      36.490  33.069  22.636  1.00  0.00    -0.391 OA
ATOM     27  H3  UNL     1      36.949  32.583  21.962  1.00  0.00     0.210 HD
ENDBRANCH  25  26
BRANCH  25  28
HETATM   28  C9  UNL     1      37.520  33.558  24.718  1.00  0.00     0.172 C 
BRANCH  28  29
HETATM   29  O4  UNL     1      36.710  32.472  25.044  1.00  0.00    -0.391 OA
ATOM     30  H4  UNL     1      37.225  31.691  25.210  1.00  0.00     0.210 HD
ENDBRANCH  28  29
BRANCH  28  31
HETATM   31  C10 UNL     1      37.184  34.681  25.637  1.00  0.00     0.198 C 
BRANCH  31  32
HETATM   32  O5  UNL     1      35.870  34.511  26.067  1.00  0.00    -0.398 OA
ATOM     33  H5  UNL     1      35.301  34.993  25.479  1.00  0.00     0.209 HD
ENDBRANCH  31  32
ENDBRANCH  28  31
ENDBRANCH  25  28
ENDBRANCH  20  25
ENDBRANCH  19  20
ENDBRANCH   1  19
TORSDOF 14
ENDMDL
