MODEL 1
REMARK VINA RESULT: -8.187627988      0.000      0.000
REMARK  7 active torsions:
REMARK  status: ('A' for Active; 'I' for Inactive)
REMARK    1  A    between atoms: N1_1  and  C1_4 
REMARK    2  A    between atoms: C3_8  and  C4_9 
REMARK    3  A    between atoms: C4_9  and  O1_10 
REMARK    4  A    between atoms: O1_10  and  C5_11 
REMARK    5  A    between atoms: C7_15  and  C8_16 
REMARK    6  A    between atoms: C8_16  and  N4_17 
REMARK       I    between atoms: N4_17  and  C9_20 
REMARK       I    between atoms: C9_20  and  N5_21 
REMARK       I    between atoms: C9_20  and  N6_25 
REMARK    7  A    between atoms: C10_31  and  C11_32 
ROOT
HETATM    1  C5  UNL     1      39.279  29.604  19.915  1.00  0.00     0.252 C 
HETATM    2  N3  UNL     1      39.977  30.740  19.323  1.00  0.00    -0.373 N 
ATOM      3  H3  UNL     1      40.042  31.613  19.846  1.00  0.00     0.161 HD
HETATM    4  C6  UNL     1      40.502  30.667  18.179  1.00  0.00     0.084 C 
HETATM    5  C7  UNL     1      40.392  29.385  17.447  1.00  0.00     0.141 C 
HETATM    6  N7  UNL     1      40.629  28.290  18.326  1.00  0.00    -0.396 N 
ATOM      7  H7  UNL     1      41.256  27.527  18.071  1.00  0.00     0.155 HD
HETATM    8  C10 UNL     1      39.958  28.310  19.569  1.00  0.00     0.216 C 
ENDROOT
BRANCH   5   9
HETATM    9  C8  UNL     1      41.462  29.379  16.375  1.00  0.00     0.266 C 
BRANCH   9  10
HETATM   10  N4  UNL     1      41.701  28.026  15.909  1.00  0.00    -0.020 N 
HETATM   11  C9  UNL     1      42.781  27.998  14.955  1.00  0.00     0.575 C 
HETATM   12  N5  UNL     1      42.465  28.819  13.819  1.00  0.00    -0.026 N 
HETATM   13  N6  UNL     1      44.029  28.389  15.587  1.00  0.00    -0.026 N 
ATOM     14  H53 UNL     1      41.575  28.555  13.395  1.00  0.00     0.278 HD
ATOM     15  H52 UNL     1      42.224  29.771  14.094  1.00  0.00     0.278 HD
ATOM     16  H51 UNL     1      43.229  28.799  13.143  1.00  0.00     0.278 HD
ATOM     17  H63 UNL     1      43.953  29.296  16.048  1.00  0.00     0.278 HD
ATOM     18  H62 UNL     1      44.233  27.819  16.408  1.00  0.00     0.278 HD
ATOM     19  H61 UNL     1      44.794  28.369  14.912  1.00  0.00     0.278 HD
ATOM     20  H42 UNL     1      41.864  27.382  16.683  1.00  0.00     0.281 HD
ATOM     21  H41 UNL     1      40.854  27.601  15.533  1.00  0.00     0.281 HD
ENDBRANCH   9  10
ENDBRANCH   5   9
BRANCH   8  22
HETATM   22  C11 UNL     1      40.935  28.013  20.628  1.00  0.00     0.258 C 
HETATM   23  N8  UNL     1      42.271  28.439  20.474  1.00  0.00    -0.060 NA
HETATM   24  O2  UNL     1      40.594  27.393  21.647  1.00  0.00    -0.274 OA
ENDBRANCH   8  22
BRANCH   1  25
HETATM   25  O1  UNL     1      37.985  29.693  19.507  1.00  0.00    -0.358 OA
BRANCH  25  26
HETATM   26  C4  UNL     1      37.122  28.694  19.816  1.00  0.00     0.229 C 
BRANCH  26  27
HETATM   27  C3  UNL     1      36.852  28.510  21.265  1.00  0.00     0.066 A 
HETATM   28  C2  UNL     1      37.070  27.358  21.990  1.00  0.00     0.134 A 
HETATM   29  N2  UNL     1      36.705  27.584  23.263  1.00  0.00    -0.200 N 
HETATM   30  C1  UNL     1      36.263  28.835  23.371  1.00  0.00     0.676 A 
ATOM     31  H2  UNL     1      36.759  26.906  24.024  1.00  0.00     0.183 HD
HETATM   32  N9  UNL     1      36.354  29.389  22.163  1.00  0.00    -0.192 N 
ATOM     33  H9  UNL     1      36.083  30.348  21.945  1.00  0.00     0.184 HD
BRANCH  30  34
HETATM   34  N1  UNL     1      35.835  29.360  24.480  1.00  0.00    -0.234 N 
ATOM     35  H12 UNL     1      34.878  29.573  24.761  1.00  0.00     0.174 HD
ATOM     36  H11 UNL     1      36.442  29.641  25.250  1.00  0.00     0.174 HD
ENDBRANCH  30  34
ENDBRANCH  26  27
ENDBRANCH  25  26
ENDBRANCH   1  25
TORSDOF 7
ENDMDL
MODEL 2
REMARK VINA RESULT: -8.166335140      1.041      1.346
REMARK  7 active torsions:
REMARK  status: ('A' for Active; 'I' for Inactive)
REMARK    1  A    between atoms: N1_1  and  C1_4 
REMARK    2  A    between atoms: C3_8  and  C4_9 
REMARK    3  A    between atoms: C4_9  and  O1_10 
REMARK    4  A    between atoms: O1_10  and  C5_11 
REMARK    5  A    between atoms: C7_15  and  C8_16 
REMARK    6  A    between atoms: C8_16  and  N4_17 
REMARK       I    between atoms: N4_17  and  C9_20 
REMARK       I    between atoms: C9_20  and  N5_21 
REMARK       I    between atoms: C9_20  and  N6_25 
REMARK    7  A    between atoms: C10_31  and  C11_32 
ROOT
HETATM    1  C5  UNL     1      39.162  29.634  20.097  1.00  0.00     0.252 C 
HETATM    2  N3  UNL     1      39.922  30.743  19.528  1.00  0.00    -0.373 N 
ATOM      3  H3  UNL     1      40.086  31.575  20.093  1.00  0.00     0.161 HD
HETATM    4  C6  UNL     1      40.379  30.694  18.354  1.00  0.00     0.084 C 
HETATM    5  C7  UNL     1      40.124  29.470  17.561  1.00  0.00     0.141 C 
HETATM    6  N7  UNL     1      40.314  28.311  18.366  1.00  0.00    -0.396 N 
ATOM      7  H7  UNL     1      40.861  27.516  18.035  1.00  0.00     0.155 HD
HETATM    8  C10 UNL     1      39.712  28.312  19.643  1.00  0.00     0.216 C 
ENDROOT
BRANCH   5   9
HETATM    9  C8  UNL     1      41.133  29.441  16.432  1.00  0.00     0.266 C 
BRANCH   9  10
HETATM   10  N4  UNL     1      41.547  28.077  16.161  1.00  0.00    -0.020 N 
HETATM   11  C9  UNL     1      42.708  28.055  15.308  1.00  0.00     0.575 C 
HETATM   12  N5  UNL     1      42.419  28.698  14.056  1.00  0.00    -0.026 N 
HETATM   13  N6  UNL     1      43.848  28.651  15.984  1.00  0.00    -0.026 N 
ATOM     14  H53 UNL     1      41.603  28.291  13.598  1.00  0.00     0.278 HD
ATOM     15  H52 UNL     1      42.062  29.644  14.188  1.00  0.00     0.278 HD
ATOM     16  H51 UNL     1      43.241  28.683  13.452  1.00  0.00     0.278 HD
ATOM     17  H63 UNL     1      43.640  29.592  16.318  1.00  0.00     0.278 HD
ATOM     18  H62 UNL     1      44.030  28.207  16.884  1.00  0.00     0.278 HD
ATOM     19  H61 UNL     1      44.670  28.636  15.379  1.00  0.00     0.278 HD
ATOM     20  H42 UNL     1      41.700  27.550  17.021  1.00  0.00     0.281 HD
ATOM     21  H41 UNL     1      40.784  27.521  15.775  1.00  0.00     0.281 HD
ENDBRANCH   9  10
ENDBRANCH   5   9
BRANCH   8  22
HETATM   22  C11 UNL     1      40.714  27.876  20.628  1.00  0.00     0.258 C 
HETATM   23  N8  UNL     1      42.056  28.282  20.474  1.00  0.00    -0.060 NA
HETATM   24  O2  UNL     1      40.389  27.157  21.585  1.00  0.00    -0.274 OA
ENDBRANCH   8  22
BRANCH   1  25
HETATM   25  O1  UNL     1      37.861  29.850  19.767  1.00  0.00    -0.358 OA
BRANCH  25  26
HETATM   26  C4  UNL     1      37.161  30.807  20.424  1.00  0.00     0.229 C 
BRANCH  26  27
HETATM   27  C3  UNL     1      36.873  30.518  21.852  1.00  0.00     0.066 A 
HETATM   28  C2  UNL     1      36.995  31.407  22.899  1.00  0.00     0.134 A 
HETATM   29  N2  UNL     1      36.644  30.776  24.032  1.00  0.00    -0.200 N 
HETATM   30  C1  UNL     1      36.304  29.522  23.743  1.00  0.00     0.676 A 
ATOM     31  H2  UNL     1      36.637  31.192  24.964  1.00  0.00     0.183 HD
HETATM   32  N9  UNL     1      36.444  29.371  22.426  1.00  0.00    -0.192 N 
ATOM     33  H9  UNL     1      36.254  28.507  21.919  1.00  0.00     0.184 HD
BRANCH  30  34
HETATM   34  N1  UNL     1      35.916  28.652  24.627  1.00  0.00    -0.234 N 
ATOM     35  H12 UNL     1      35.009  28.193  24.720  1.00  0.00     0.174 HD
ATOM     36  H11 UNL     1      36.507  28.304  25.382  1.00  0.00     0.174 HD
ENDBRANCH  30  34
ENDBRANCH  26  27
ENDBRANCH  25  26
ENDBRANCH   1  25
TORSDOF 7
ENDMDL
MODEL 3
REMARK VINA RESULT: -8.083068180      1.573      2.046
REMARK  7 active torsions:
REMARK  status: ('A' for Active; 'I' for Inactive)
REMARK    1  A    between atoms: N1_1  and  C1_4 
REMARK    2  A    between atoms: C3_8  and  C4_9 
REMARK    3  A    between atoms: C4_9  and  O1_10 
REMARK    4  A    between atoms: O1_10  and  C5_11 
REMARK    5  A    between atoms: C7_15  and  C8_16 
REMARK    6  A    between atoms: C8_16  and  N4_17 
REMARK       I    between atoms: N4_17  and  C9_20 
REMARK       I    between atoms: C9_20  and  N5_21 
REMARK       I    between atoms: C9_20  and  N6_25 
REMARK    7  A    between atoms: C10_31  and  C11_32 
ROOT
HETATM    1  C5  UNL     1      39.267  29.012  19.455  1.00  0.00     0.252 C 
HETATM    2  N3  UNL     1      38.853  29.238  18.074  1.00  0.00    -0.373 N 
ATOM      3  H3  UNL     1      37.901  29.553  17.885  1.00  0.00     0.161 HD
HETATM    4  C6  UNL     1      39.644  29.052  17.110  1.00  0.00     0.084 C 
HETATM    5  C7  UNL     1      41.018  28.596  17.420  1.00  0.00     0.141 C 
HETATM    6  N7  UNL     1      41.536  29.309  18.539  1.00  0.00    -0.396 N 
ATOM      7  H7  UNL     1      42.471  29.715  18.526  1.00  0.00     0.155 HD
HETATM    8  C10 UNL     1      40.694  29.428  19.667  1.00  0.00     0.216 C 
ENDROOT
BRANCH   5   9
HETATM    9  C8  UNL     1      41.882  28.904  16.215  1.00  0.00     0.266 C 
BRANCH   9  10
HETATM   10  N4  UNL     1      41.841  27.802  15.271  1.00  0.00    -0.020 N 
HETATM   11  C9  UNL     1      42.759  28.027  14.183  1.00  0.00     0.575 C 
HETATM   12  N5  UNL     1      42.417  29.235  13.484  1.00  0.00    -0.026 N 
HETATM   13  N6  UNL     1      44.129  28.039  14.667  1.00  0.00    -0.026 N 
ATOM     14  H53 UNL     1      41.447  29.230  13.169  1.00  0.00     0.278 HD
ATOM     15  H52 UNL     1      42.368  30.037  14.112  1.00  0.00     0.278 HD
ATOM     16  H51 UNL     1      43.066  29.394  12.714  1.00  0.00     0.278 HD
ATOM     17  H63 UNL     1      44.259  28.716  15.419  1.00  0.00     0.278 HD
ATOM     18  H62 UNL     1      44.356  27.191  15.185  1.00  0.00     0.278 HD
ATOM     19  H61 UNL     1      44.778  28.199  13.896  1.00  0.00     0.278 HD
ATOM     20  H42 UNL     1      42.010  26.906  15.729  1.00  0.00     0.281 HD
ATOM     21  H41 UNL     1      40.894  27.627  14.937  1.00  0.00     0.281 HD
ENDBRANCH   9  10
ENDBRANCH   5   9
BRANCH   8  22
HETATM   22  C11 UNL     1      40.697  30.834  20.101  1.00  0.00     0.258 C 
HETATM   23  N8  UNL     1      39.478  31.542  20.157  1.00  0.00    -0.060 NA
HETATM   24  O2  UNL     1      41.757  31.397  20.414  1.00  0.00    -0.274 OA
ENDBRANCH   8  22
BRANCH   1  25
HETATM   25  O1  UNL     1      39.011  27.704  19.724  1.00  0.00    -0.358 OA
BRANCH  25  26
HETATM   26  C4  UNL     1      38.753  27.328  21.001  1.00  0.00     0.229 C 
BRANCH  26  27
HETATM   27  C3  UNL     1      37.387  27.640  21.493  1.00  0.00     0.066 A 
HETATM   28  C2  UNL     1      36.346  28.133  20.736  1.00  0.00     0.134 A 
HETATM   29  N2  UNL     1      35.276  28.283  21.534  1.00  0.00    -0.200 N 
HETATM   30  C1  UNL     1      35.600  27.905  22.769  1.00  0.00     0.676 A 
ATOM     31  H2  UNL     1      34.362  28.630  21.241  1.00  0.00     0.183 HD
HETATM   32  N9  UNL     1      36.875  27.518  22.739  1.00  0.00    -0.192 N 
ATOM     33  H9  UNL     1      37.394  27.175  23.546  1.00  0.00     0.184 HD
BRANCH  30  34
HETATM   34  N1  UNL     1      34.778  27.931  23.775  1.00  0.00    -0.234 N 
ATOM     35  H12 UNL     1      34.426  28.736  24.294  1.00  0.00     0.174 HD
ATOM     36  H11 UNL     1      34.362  27.099  24.193  1.00  0.00     0.174 HD
ENDBRANCH  30  34
ENDBRANCH  26  27
ENDBRANCH  25  26
ENDBRANCH   1  25
TORSDOF 7
ENDMDL
MODEL 4
REMARK VINA RESULT: -8.006829998      3.046      7.749
REMARK  7 active torsions:
REMARK  status: ('A' for Active; 'I' for Inactive)
REMARK    1  A    between atoms: N1_1  and  C1_4 
REMARK    2  A    between atoms: C3_8  and  C4_9 
REMARK    3  A    between atoms: C4_9  and  O1_10 
REMARK    4  A    between atoms: O1_10  and  C5_11 
REMARK    5  A    between atoms: C7_15  and  C8_16 
REMARK    6  A    between atoms: C8_16  and  N4_17 
REMARK       I    between atoms: N4_17  and  C9_20 
REMARK       I    between atoms: C9_20  and  N5_21 
REMARK       I    between atoms: C9_20  and  N6_25 
REMARK    7  A    between atoms: C10_31  and  C11_32 
ROOT
HETATM    1  C5  UNL     1      42.730  28.640  16.188  1.00  0.00     0.252 C 
HETATM    2  N3  UNL     1      41.666  27.800  16.729  1.00  0.00    -0.373 N 
ATOM      3  H3  UNL     1      41.781  26.787  16.728  1.00  0.00     0.161 HD
HETATM    4  C6  UNL     1      40.607  28.299  17.197  1.00  0.00     0.084 C 
HETATM    5  C7  UNL     1      40.471  29.773  17.186  1.00  0.00     0.141 C 
HETATM    6  N7  UNL     1      41.694  30.386  17.585  1.00  0.00    -0.396 N 
ATOM      7  H7  UNL     1      41.714  31.137  18.275  1.00  0.00     0.155 HD
HETATM    8  C10 UNL     1      42.877  29.905  16.982  1.00  0.00     0.216 C 
ENDROOT
BRANCH   5   9
HETATM    9  C8  UNL     1      39.401  30.140  18.192  1.00  0.00     0.266 C 
BRANCH   9  10
HETATM   10  N4  UNL     1      38.492  29.026  18.389  1.00  0.00    -0.020 N 
HETATM   11  C9  UNL     1      38.007  28.997  19.746  1.00  0.00     0.575 C 
HETATM   12  N5  UNL     1      39.103  28.855  20.664  1.00  0.00    -0.026 N 
HETATM   13  N6  UNL     1      37.203  30.174  20.026  1.00  0.00    -0.026 N 
ATOM     14  H53 UNL     1      39.678  28.040  20.448  1.00  0.00     0.278 HD
ATOM     15  H52 UNL     1      39.809  29.578  20.528  1.00  0.00     0.278 HD
ATOM     16  H51 UNL     1      38.760  28.834  21.625  1.00  0.00     0.278 HD
ATOM     17  H63 UNL     1      37.710  31.036  19.822  1.00  0.00     0.278 HD
ATOM     18  H62 UNL     1      36.444  30.283  19.354  1.00  0.00     0.278 HD
ATOM     19  H61 UNL     1      36.860  30.153  20.986  1.00  0.00     0.278 HD
ATOM     20  H42 UNL     1      37.726  29.039  17.715  1.00  0.00     0.281 HD
ATOM     21  H41 UNL     1      38.918  28.139  18.121  1.00  0.00     0.281 HD
ENDBRANCH   9  10
ENDBRANCH   5   9
BRANCH   8  22
HETATM   22  C11 UNL     1      43.871  29.664  18.040  1.00  0.00     0.258 C 
HETATM   23  N8  UNL     1      43.477  29.758  19.391  1.00  0.00    -0.060 NA
HETATM   24  O2  UNL     1      45.044  29.382  17.753  1.00  0.00    -0.274 OA
ENDBRANCH   8  22
BRANCH   1  25
HETATM   25  O1  UNL     1      42.442  28.825  14.873  1.00  0.00    -0.358 OA
BRANCH  25  26
HETATM   26  C4  UNL     1      43.190  28.194  13.935  1.00  0.00     0.229 C 
BRANCH  26  27
HETATM   27  C3  UNL     1      42.444  27.274  13.038  1.00  0.00     0.066 A 
HETATM   28  C2  UNL     1      42.638  27.131  11.681  1.00  0.00     0.134 A 
HETATM   29  N2  UNL     1      41.777  26.206  11.226  1.00  0.00    -0.200 N 
HETATM   30  C1  UNL     1      41.043  25.759  12.243  1.00  0.00     0.676 A 
ATOM     31  H2  UNL     1      41.698  25.897  10.257  1.00  0.00     0.183 HD
HETATM   32  N9  UNL     1      41.450  26.406  13.334  1.00  0.00    -0.192 N 
ATOM     33  H9  UNL     1      41.063  26.266  14.267  1.00  0.00     0.184 HD
BRANCH  30  34
HETATM   34  N1  UNL     1      40.117  24.855  12.127  1.00  0.00    -0.234 N 
ATOM     35  H12 UNL     1      40.118  24.004  11.564  1.00  0.00     0.174 HD
ATOM     36  H11 UNL     1      39.221  24.891  12.614  1.00  0.00     0.174 HD
ENDBRANCH  30  34
ENDBRANCH  26  27
ENDBRANCH  25  26
ENDBRANCH   1  25
TORSDOF 7
ENDMDL
MODEL 5
REMARK VINA RESULT: -7.990935137      1.622      1.941
REMARK  7 active torsions:
REMARK  status: ('A' for Active; 'I' for Inactive)
REMARK    1  A    between atoms: N1_1  and  C1_4 
REMARK    2  A    between atoms: C3_8  and  C4_9 
REMARK    3  A    between atoms: C4_9  and  O1_10 
REMARK    4  A    between atoms: O1_10  and  C5_11 
REMARK    5  A    between atoms: C7_15  and  C8_16 
REMARK    6  A    between atoms: C8_16  and  N4_17 
REMARK       I    between atoms: N4_17  and  C9_20 
REMARK       I    between atoms: C9_20  and  N5_21 
REMARK       I    between atoms: C9_20  and  N6_25 
REMARK    7  A    between atoms: C10_31  and  C11_32 
ROOT
HETATM    1  C5  UNL     1      39.659  29.112  19.305  1.00  0.00     0.252 C 
HETATM    2  N3  UNL     1      39.264  29.652  18.007  1.00  0.00    -0.373 N 
ATOM      3  H3  UNL     1      38.460  30.277  17.952  1.00  0.00     0.161 HD
HETATM    4  C6  UNL     1      39.893  29.362  16.954  1.00  0.00     0.084 C 
HETATM    5  C7  UNL     1      41.056  28.453  17.070  1.00  0.00     0.141 C 
HETATM    6  N7  UNL     1      41.842  28.797  18.206  1.00  0.00    -0.396 N 
ATOM      7  H7  UNL     1      42.857  28.881  18.147  1.00  0.00     0.155 HD
HETATM    8  C10 UNL     1      41.152  29.017  19.419  1.00  0.00     0.216 C 
ENDROOT
BRANCH   5   9
HETATM    9  C8  UNL     1      41.903  28.636  15.828  1.00  0.00     0.266 C 
BRANCH   9  10
HETATM   10  N4  UNL     1      42.757  27.481  15.625  1.00  0.00    -0.020 N 
HETATM   11  C9  UNL     1      42.973  27.246  14.219  1.00  0.00     0.575 C 
HETATM   12  N5  UNL     1      41.721  27.007  13.556  1.00  0.00    -0.026 N 
HETATM   13  N6  UNL     1      43.709  28.350  13.626  1.00  0.00    -0.026 N 
ATOM     14  H53 UNL     1      41.199  26.247  13.992  1.00  0.00     0.278 HD
ATOM     15  H52 UNL     1      41.055  27.761  13.717  1.00  0.00     0.278 HD
ATOM     16  H51 UNL     1      41.874  26.840  12.560  1.00  0.00     0.278 HD
ATOM     17  H63 UNL     1      43.251  29.246  13.795  1.00  0.00     0.278 HD
ATOM     18  H62 UNL     1      44.583  28.532  14.119  1.00  0.00     0.278 HD
ATOM     19  H61 UNL     1      43.862  28.183  12.631  1.00  0.00     0.278 HD
ATOM     20  H42 UNL     1      43.637  27.568  16.133  1.00  0.00     0.281 HD
ATOM     21  H41 UNL     1      42.390  26.653  16.094  1.00  0.00     0.281 HD
ENDBRANCH   9  10
ENDBRANCH   5   9
BRANCH   8  22
HETATM   22  C11 UNL     1      41.643  30.272  20.010  1.00  0.00     0.258 C 
HETATM   23  N8  UNL     1      42.895  30.286  20.660  1.00  0.00    -0.060 NA
HETATM   24  O2  UNL     1      40.967  31.309  19.942  1.00  0.00    -0.274 OA
ENDBRANCH   8  22
BRANCH   1  25
HETATM   25  O1  UNL     1      39.002  27.930  19.445  1.00  0.00    -0.358 OA
BRANCH  25  26
HETATM   26  C4  UNL     1      38.766  27.446  20.689  1.00  0.00     0.229 C 
BRANCH  26  27
HETATM   27  C3  UNL     1      37.409  27.713  21.230  1.00  0.00     0.066 A 
HETATM   28  C2  UNL     1      36.361  28.287  20.542  1.00  0.00     0.134 A 
HETATM   29  N2  UNL     1      35.303  28.359  21.366  1.00  0.00    -0.200 N 
HETATM   30  C1  UNL     1      35.640  27.853  22.550  1.00  0.00     0.676 A 
ATOM     31  H2  UNL     1      34.388  28.740  21.123  1.00  0.00     0.183 HD
HETATM   32  N9  UNL     1      36.912  27.465  22.463  1.00  0.00    -0.192 N 
ATOM     33  H9  UNL     1      37.440  27.038  23.223  1.00  0.00     0.184 HD
BRANCH  30  34
HETATM   34  N1  UNL     1      34.832  27.780  23.565  1.00  0.00    -0.234 N 
ATOM     35  H12 UNL     1      35.029  27.934  24.554  1.00  0.00     0.174 HD
ATOM     36  H11 UNL     1      33.843  27.544  23.490  1.00  0.00     0.174 HD
ENDBRANCH  30  34
ENDBRANCH  26  27
ENDBRANCH  25  26
ENDBRANCH   1  25
TORSDOF 7
ENDMDL
