MODEL 1
REMARK VINA RESULT: -9.274115246      0.000      0.000
REMARK  10 active torsions:
REMARK  status: ('A' for Active; 'I' for Inactive)
REMARK    1  A    between atoms: N1_1  and  C1_4 
REMARK    2  A    between atoms: C2_7  and  N3_8 
REMARK    3  A    between atoms: C3_13  and  N5_14 
REMARK    4  A    between atoms: N5_14  and  N6_16 
REMARK    5  A    between atoms: N6_16  and  C4_18 
REMARK    6  A    between atoms: C4_18  and  C5_19 
REMARK    7  A    between atoms: C6_22  and  C7_23 
REMARK    8  A    between atoms: C7_23  and  N8_24 
REMARK    9  A    between atoms: N8_24  and  C8_27 
REMARK   10  A    between atoms: C8_27  and  C9_28 
ROOT
HETATM    1  C4  UNL     1      42.305  28.059  16.391  1.00  0.00     0.224 C 
ENDROOT
BRANCH   1   2
HETATM    2  N6  UNL     1      42.190  28.378  14.992  1.00  0.00    -0.315 N 
ATOM      3  H6  UNL     1      41.414  28.950  14.656  1.00  0.00     0.181 HD
BRANCH   2   4
HETATM    4  N5  UNL     1      43.145  27.901  14.104  1.00  0.00    -0.135 N 
ATOM      5  H5  UNL     1      44.117  28.201  14.172  1.00  0.00     0.205 HD
BRANCH   4   6
HETATM    6  C3  UNL     1      42.770  27.065  13.185  1.00  0.00     0.725 A 
HETATM    7  N4  UNL     1      41.744  26.205  13.396  1.00  0.00    -0.020 N 
HETATM    8  C2  UNL     1      41.365  25.350  12.447  1.00  0.00     0.705 A 
ATOM      9  H4  UNL     1      41.257  26.213  14.292  1.00  0.00     0.203 HD
HETATM   10  N2  UNL     1      42.011  25.336  11.253  1.00  0.00    -0.022 N 
HETATM   11  C1  UNL     1      43.032  26.173  11.005  1.00  0.00     0.705 A 
ATOM     12  H2  UNL     1      41.716  24.679  10.532  1.00  0.00     0.203 HD
HETATM   13  N10 UNL     1      43.381  27.017  11.989  1.00  0.00    -0.020 N 
ATOM     14  H10 UNL     1      44.153  27.661  11.818  1.00  0.00     0.203 HD
BRANCH   8  15
HETATM   15  N3  UNL     1      40.392  24.532  12.643  1.00  0.00    -0.234 N 
ATOM     16  H32 UNL     1      39.427  24.861  12.678  1.00  0.00     0.174 HD
ATOM     17  H31 UNL     1      40.594  23.540  12.766  1.00  0.00     0.174 HD
ENDBRANCH   8  15
BRANCH  11  18
HETATM   18  N1  UNL     1      43.630  26.140   9.862  1.00  0.00    -0.234 N 
ATOM     19  H12 UNL     1      43.131  26.061   8.977  1.00  0.00     0.174 HD
ATOM     20  H11 UNL     1      44.648  26.195   9.817  1.00  0.00     0.174 HD
ENDBRANCH  11  18
ENDBRANCH   4   6
ENDBRANCH   2   4
ENDBRANCH   1   2
BRANCH   1  21
HETATM   21  C5  UNL     1      41.039  28.294  17.125  1.00  0.00     0.142 A 
HETATM   22  N7  UNL     1      40.528  27.552  18.095  1.00  0.00    -0.339 N 
HETATM   23  C6  UNL     1      39.348  28.097  18.517  1.00  0.00     0.059 A 
ATOM     24  H7  UNL     1      40.950  26.703  18.471  1.00  0.00     0.167 HD
HETATM   25  C15 UNL     1      39.194  29.221  17.723  1.00  0.00     0.170 A 
HETATM   26  O1  UNL     1      40.228  29.287  16.915  1.00  0.00    -0.306 OA
BRANCH  23  27
HETATM   27  C7  UNL     1      38.433  27.605  19.579  1.00  0.00     0.291 C 
BRANCH  27  28
HETATM   28  N8  UNL     1      37.562  28.703  19.946  1.00  0.00    -0.068 N 
ATOM     29  H82 UNL     1      38.092  29.478  20.346  1.00  0.00     0.277 HD
ATOM     30  H81 UNL     1      37.190  29.172  19.120  1.00  0.00     0.277 HD
BRANCH  28  31
HETATM   31  C8  UNL     1      36.499  28.277  20.833  1.00  0.00     0.257 C 
BRANCH  31  32
HETATM   32  C9  UNL     1      36.689  28.966  22.145  1.00  0.00     0.102 C 
HETATM   33  C10 UNL     1      37.289  28.057  23.200  1.00  0.00     0.026 C 
HETATM   34  C11 UNL     1      36.795  28.603  24.547  1.00  0.00     0.002 C 
HETATM   35  C12 UNL     1      37.425  29.946  24.773  1.00  0.00     0.002 C 
HETATM   36  C13 UNL     1      36.615  31.091  24.204  1.00  0.00     0.019 C 
HETATM   37  C14 UNL     1      36.897  31.298  22.733  1.00  0.00     0.114 C 
HETATM   38  N9  UNL     1      37.477  30.153  22.108  1.00  0.00    -0.415 N 
ATOM     39  H9  UNL     1      38.395  30.183  21.663  1.00  0.00     0.153 HD
ENDBRANCH  31  32
ENDBRANCH  28  31
ENDBRANCH  27  28
ENDBRANCH  23  27
ENDBRANCH   1  21
TORSDOF 10
ENDMDL
MODEL 2
REMARK VINA RESULT: -9.242986000      0.588      1.664
REMARK  10 active torsions:
REMARK  status: ('A' for Active; 'I' for Inactive)
REMARK    1  A    between atoms: N1_1  and  C1_4 
REMARK    2  A    between atoms: C2_7  and  N3_8 
REMARK    3  A    between atoms: C3_13  and  N5_14 
REMARK    4  A    between atoms: N5_14  and  N6_16 
REMARK    5  A    between atoms: N6_16  and  C4_18 
REMARK    6  A    between atoms: C4_18  and  C5_19 
REMARK    7  A    between atoms: C6_22  and  C7_23 
REMARK    8  A    between atoms: C7_23  and  N8_24 
REMARK    9  A    between atoms: N8_24  and  C8_27 
REMARK   10  A    between atoms: C8_27  and  C9_28 
ROOT
HETATM    1  C4  UNL     1      43.030  28.545  16.604  1.00  0.00     0.224 C 
ENDROOT
BRANCH   1   2
HETATM    2  N6  UNL     1      43.248  27.767  15.412  1.00  0.00    -0.315 N 
ATOM      3  H6  UNL     1      43.897  26.980  15.423  1.00  0.00     0.181 HD
BRANCH   2   4
HETATM    4  N5  UNL     1      42.567  28.098  14.249  1.00  0.00    -0.135 N 
ATOM      5  H5  UNL     1      42.191  29.036  14.112  1.00  0.00     0.205 HD
BRANCH   4   6
HETATM    6  C3  UNL     1      42.420  27.185  13.339  1.00  0.00     0.725 A 
HETATM    7  N4  UNL     1      43.201  27.167  12.231  1.00  0.00    -0.020 N 
HETATM    8  C2  UNL     1      43.045  26.225  11.302  1.00  0.00     0.705 A 
ATOM      9  H4  UNL     1      43.918  27.882  12.109  1.00  0.00     0.203 HD
HETATM   10  N2  UNL     1      42.092  25.271  11.461  1.00  0.00    -0.022 N 
HETATM   11  C1  UNL     1      41.297  25.255  12.544  1.00  0.00     0.705 A 
ATOM     12  H2  UNL     1      41.977  24.554  10.745  1.00  0.00     0.203 HD
HETATM   13  N10 UNL     1      41.490  26.222  13.455  1.00  0.00    -0.020 N 
ATOM     14  H10 UNL     1      40.896  26.225  14.284  1.00  0.00     0.203 HD
BRANCH   8  15
HETATM   15  N3  UNL     1      43.784  26.204  10.249  1.00  0.00    -0.234 N 
ATOM     16  H32 UNL     1      43.497  26.683   9.395  1.00  0.00     0.174 HD
ATOM     17  H31 UNL     1      44.669  25.698  10.273  1.00  0.00     0.174 HD
ENDBRANCH   8  15
BRANCH  11  18
HETATM   18  N1  UNL     1      40.399  24.338  12.671  1.00  0.00    -0.234 N 
ATOM     19  H12 UNL     1      39.585  24.269  12.061  1.00  0.00     0.174 HD
ATOM     20  H11 UNL     1      40.484  23.639  13.409  1.00  0.00     0.174 HD
ENDBRANCH  11  18
ENDBRANCH   4   6
ENDBRANCH   2   4
ENDBRANCH   1   2
BRANCH   1  21
HETATM   21  C5  UNL     1      41.620  28.497  17.056  1.00  0.00     0.142 A 
HETATM   22  N7  UNL     1      41.135  27.831  18.093  1.00  0.00    -0.339 N 
HETATM   23  C6  UNL     1      39.787  28.038  18.181  1.00  0.00     0.059 A 
ATOM     24  H7  UNL     1      41.683  27.252  18.728  1.00  0.00     0.167 HD
HETATM   25  C15 UNL     1      39.505  28.878  17.117  1.00  0.00     0.170 A 
HETATM   26  O1  UNL     1      40.632  29.117  16.484  1.00  0.00    -0.306 OA
BRANCH  23  27
HETATM   27  C7  UNL     1      38.835  27.492  19.182  1.00  0.00     0.291 C 
BRANCH  27  28
HETATM   28  N8  UNL     1      37.906  28.551  19.521  1.00  0.00    -0.068 N 
ATOM     29  H82 UNL     1      38.392  29.360  19.908  1.00  0.00     0.277 HD
ATOM     30  H81 UNL     1      37.515  28.983  18.684  1.00  0.00     0.277 HD
BRANCH  28  31
HETATM   31  C8  UNL     1      36.861  28.089  20.412  1.00  0.00     0.257 C 
BRANCH  31  32
HETATM   32  C9  UNL     1      36.949  28.880  21.676  1.00  0.00     0.102 C 
HETATM   33  C10 UNL     1      37.353  28.033  22.867  1.00  0.00     0.026 C 
HETATM   34  C11 UNL     1      36.749  28.730  24.094  1.00  0.00     0.002 C 
HETATM   35  C12 UNL     1      37.447  30.045  24.284  1.00  0.00     0.002 C 
HETATM   36  C13 UNL     1      36.797  31.183  23.529  1.00  0.00     0.019 C 
HETATM   37  C14 UNL     1      37.262  31.237  22.091  1.00  0.00     0.114 C 
HETATM   38  N9  UNL     1      37.822  30.006  21.638  1.00  0.00    -0.415 N 
ATOM     39  H9  UNL     1      38.785  29.936  21.307  1.00  0.00     0.153 HD
ENDBRANCH  31  32
ENDBRANCH  28  31
ENDBRANCH  27  28
ENDBRANCH  23  27
ENDBRANCH   1  21
TORSDOF 10
ENDMDL
MODEL 3
REMARK VINA RESULT: -9.127267261      0.880      1.440
REMARK  10 active torsions:
REMARK  status: ('A' for Active; 'I' for Inactive)
REMARK    1  A    between atoms: N1_1  and  C1_4 
REMARK    2  A    between atoms: C2_7  and  N3_8 
REMARK    3  A    between atoms: C3_13  and  N5_14 
REMARK    4  A    between atoms: N5_14  and  N6_16 
REMARK    5  A    between atoms: N6_16  and  C4_18 
REMARK    6  A    between atoms: C4_18  and  C5_19 
REMARK    7  A    between atoms: C6_22  and  C7_23 
REMARK    8  A    between atoms: C7_23  and  N8_24 
REMARK    9  A    between atoms: N8_24  and  C8_27 
REMARK   10  A    between atoms: C8_27  and  C9_28 
ROOT
HETATM    1  C4  UNL     1      43.158  28.617  16.534  1.00  0.00     0.224 C 
ENDROOT
BRANCH   1   2
HETATM    2  N6  UNL     1      43.357  27.837  15.339  1.00  0.00    -0.315 N 
ATOM      3  H6  UNL     1      44.033  27.073  15.330  1.00  0.00     0.181 HD
BRANCH   2   4
HETATM    4  N5  UNL     1      42.621  28.135  14.200  1.00  0.00    -0.135 N 
ATOM      5  H5  UNL     1      42.220  29.063  14.065  1.00  0.00     0.205 HD
BRANCH   4   6
HETATM    6  C3  UNL     1      42.454  27.204  13.312  1.00  0.00     0.725 A 
HETATM    7  N4  UNL     1      41.508  26.246  13.470  1.00  0.00    -0.020 N 
HETATM    8  C2  UNL     1      41.343  25.294  12.553  1.00  0.00     0.705 A 
ATOM      9  H4  UNL     1      40.916  26.254  14.300  1.00  0.00     0.203 HD
HETATM   10  N2  UNL     1      42.129  25.278  11.446  1.00  0.00    -0.022 N 
HETATM   11  C1  UNL     1      43.077  26.210  11.254  1.00  0.00     0.705 A 
ATOM     12  H2  UNL     1      41.998  24.546  10.748  1.00  0.00     0.203 HD
HETATM   13  N10 UNL     1      43.209  27.150  12.202  1.00  0.00    -0.020 N 
ATOM     14  H10 UNL     1      43.923  27.866  12.072  1.00  0.00     0.203 HD
BRANCH   8  15
HETATM   15  N3  UNL     1      40.447  24.382  12.698  1.00  0.00    -0.234 N 
ATOM     16  H32 UNL     1      39.468  24.566  12.474  1.00  0.00     0.174 HD
ATOM     17  H31 UNL     1      40.723  23.464  13.044  1.00  0.00     0.174 HD
ENDBRANCH   8  15
BRANCH  11  18
HETATM   18  N1  UNL     1      43.812  26.173  10.193  1.00  0.00    -0.234 N 
ATOM     19  H12 UNL     1      43.625  26.743   9.369  1.00  0.00     0.174 HD
ATOM     20  H11 UNL     1      44.621  25.554  10.154  1.00  0.00     0.174 HD
ENDBRANCH  11  18
ENDBRANCH   4   6
ENDBRANCH   2   4
ENDBRANCH   1   2
BRANCH   1  21
HETATM   21  C5  UNL     1      41.767  28.528  17.035  1.00  0.00     0.142 A 
HETATM   22  N7  UNL     1      41.334  27.831  18.075  1.00  0.00    -0.339 N 
HETATM   23  C6  UNL     1      39.987  28.007  18.217  1.00  0.00     0.059 A 
ATOM     24  H7  UNL     1      41.918  27.250  18.677  1.00  0.00     0.167 HD
HETATM   25  C15 UNL     1      39.649  28.863  17.183  1.00  0.00     0.170 A 
HETATM   26  O1  UNL     1      40.745  29.139  16.514  1.00  0.00    -0.306 OA
BRANCH  23  27
HETATM   27  C7  UNL     1      39.084  27.419  19.240  1.00  0.00     0.291 C 
BRANCH  27  28
HETATM   28  N8  UNL     1      37.815  28.112  19.149  1.00  0.00    -0.068 N 
ATOM     29  H82 UNL     1      37.947  29.123  19.114  1.00  0.00     0.277 HD
ATOM     30  H81 UNL     1      37.382  27.974  18.236  1.00  0.00     0.277 HD
BRANCH  28  31
HETATM   31  C8  UNL     1      36.916  27.736  20.221  1.00  0.00     0.257 C 
BRANCH  31  32
HETATM   32  C9  UNL     1      37.051  28.745  21.314  1.00  0.00     0.102 C 
HETATM   33  C10 UNL     1      36.759  30.157  20.844  1.00  0.00     0.026 C 
HETATM   34  C11 UNL     1      37.567  31.076  21.770  1.00  0.00     0.002 C 
HETATM   35  C12 UNL     1      36.985  30.988  23.150  1.00  0.00     0.002 C 
HETATM   36  C13 UNL     1      37.598  29.888  23.989  1.00  0.00     0.019 C 
HETATM   37  C14 UNL     1      36.946  28.550  23.718  1.00  0.00     0.114 C 
HETATM   38  N9  UNL     1      36.253  28.508  22.471  1.00  0.00    -0.415 N 
ATOM     39  H9  UNL     1      35.251  28.321  22.412  1.00  0.00     0.153 HD
ENDBRANCH  31  32
ENDBRANCH  28  31
ENDBRANCH  27  28
ENDBRANCH  23  27
ENDBRANCH   1  21
TORSDOF 10
ENDMDL
MODEL 4
REMARK VINA RESULT: -9.123667132      0.886      2.129
REMARK  10 active torsions:
REMARK  status: ('A' for Active; 'I' for Inactive)
REMARK    1  A    between atoms: N1_1  and  C1_4 
REMARK    2  A    between atoms: C2_7  and  N3_8 
REMARK    3  A    between atoms: C3_13  and  N5_14 
REMARK    4  A    between atoms: N5_14  and  N6_16 
REMARK    5  A    between atoms: N6_16  and  C4_18 
REMARK    6  A    between atoms: C4_18  and  C5_19 
REMARK    7  A    between atoms: C6_22  and  C7_23 
REMARK    8  A    between atoms: C7_23  and  N8_24 
REMARK    9  A    between atoms: N8_24  and  C8_27 
REMARK   10  A    between atoms: C8_27  and  C9_28 
ROOT
HETATM    1  C4  UNL     1      43.162  28.595  16.536  1.00  0.00     0.224 C 
ENDROOT
BRANCH   1   2
HETATM    2  N6  UNL     1      43.341  27.806  15.345  1.00  0.00    -0.315 N 
ATOM      3  H6  UNL     1      43.997  27.025  15.339  1.00  0.00     0.181 HD
BRANCH   2   4
HETATM    4  N5  UNL     1      42.612  28.116  14.205  1.00  0.00    -0.135 N 
ATOM      5  H5  UNL     1      42.211  29.046  14.079  1.00  0.00     0.205 HD
BRANCH   4   6
HETATM    6  C3  UNL     1      42.451  27.196  13.304  1.00  0.00     0.725 A 
HETATM    7  N4  UNL     1      43.225  27.162  12.192  1.00  0.00    -0.020 N 
HETATM    8  C2  UNL     1      43.055  26.213  11.272  1.00  0.00     0.705 A 
ATOM      9  H4  UNL     1      43.947  27.870  12.058  1.00  0.00     0.203 HD
HETATM   10  N2  UNL     1      42.097  25.268  11.446  1.00  0.00    -0.022 N 
HETATM   11  C1  UNL     1      41.310  25.268  12.535  1.00  0.00     0.705 A 
ATOM     12  H2  UNL     1      41.972  24.545  10.738  1.00  0.00     0.203 HD
HETATM   13  N10 UNL     1      41.516  26.241  13.436  1.00  0.00    -0.020 N 
ATOM     14  H10 UNL     1      40.928  26.256  14.269  1.00  0.00     0.203 HD
BRANCH   8  15
HETATM   15  N3  UNL     1      43.787  26.177  10.215  1.00  0.00    -0.234 N 
ATOM     16  H32 UNL     1      44.386  25.375  10.018  1.00  0.00     0.174 HD
ATOM     17  H31 UNL     1      43.766  26.965   9.568  1.00  0.00     0.174 HD
ENDBRANCH   8  15
BRANCH  11  18
HETATM   18  N1  UNL     1      40.405  24.358  12.677  1.00  0.00    -0.234 N 
ATOM     19  H12 UNL     1      39.449  24.469  12.342  1.00  0.00     0.174 HD
ATOM     20  H11 UNL     1      40.634  23.480  13.143  1.00  0.00     0.174 HD
ENDBRANCH  11  18
ENDBRANCH   4   6
ENDBRANCH   2   4
ENDBRANCH   1   2
BRANCH   1  21
HETATM   21  C5  UNL     1      41.775  28.523  17.053  1.00  0.00     0.142 A 
HETATM   22  N7  UNL     1      41.356  27.870  18.126  1.00  0.00    -0.339 N 
HETATM   23  C6  UNL     1      40.009  28.046  18.273  1.00  0.00     0.059 A 
ATOM     24  H7  UNL     1      41.947  27.320  18.749  1.00  0.00     0.167 HD
HETATM   25  C15 UNL     1      39.657  28.853  17.204  1.00  0.00     0.170 A 
HETATM   26  O1  UNL     1      40.746  29.104  16.515  1.00  0.00    -0.306 OA
BRANCH  23  27
HETATM   27  C7  UNL     1      39.118  27.501  19.329  1.00  0.00     0.291 C 
BRANCH  27  28
HETATM   28  N8  UNL     1      37.797  28.055  19.112  1.00  0.00    -0.068 N 
ATOM     29  H82 UNL     1      37.837  29.064  18.972  1.00  0.00     0.277 HD
ATOM     30  H81 UNL     1      37.425  27.781  18.202  1.00  0.00     0.277 HD
BRANCH  28  31
HETATM   31  C8  UNL     1      36.882  27.707  20.181  1.00  0.00     0.257 C 
BRANCH  31  32
HETATM   32  C9  UNL     1      37.040  28.716  21.270  1.00  0.00     0.102 C 
HETATM   33  C10 UNL     1      36.712  30.124  20.814  1.00  0.00     0.026 C 
HETATM   34  C11 UNL     1      37.537  31.054  21.714  1.00  0.00     0.002 C 
HETATM   35  C12 UNL     1      37.004  30.954  23.114  1.00  0.00     0.002 C 
HETATM   36  C13 UNL     1      37.661  29.861  23.928  1.00  0.00     0.019 C 
HETATM   37  C14 UNL     1      37.021  28.515  23.676  1.00  0.00     0.114 C 
HETATM   38  N9  UNL     1      36.285  28.465  22.454  1.00  0.00    -0.415 N 
ATOM     39  H9  UNL     1      35.285  28.263  22.429  1.00  0.00     0.153 HD
ENDBRANCH  31  32
ENDBRANCH  28  31
ENDBRANCH  27  28
ENDBRANCH  23  27
ENDBRANCH   1  21
TORSDOF 10
ENDMDL
MODEL 5
REMARK VINA RESULT: -9.034359158      0.896      1.432
REMARK  10 active torsions:
REMARK  status: ('A' for Active; 'I' for Inactive)
REMARK    1  A    between atoms: N1_1  and  C1_4 
REMARK    2  A    between atoms: C2_7  and  N3_8 
REMARK    3  A    between atoms: C3_13  and  N5_14 
REMARK    4  A    between atoms: N5_14  and  N6_16 
REMARK    5  A    between atoms: N6_16  and  C4_18 
REMARK    6  A    between atoms: C4_18  and  C5_19 
REMARK    7  A    between atoms: C6_22  and  C7_23 
REMARK    8  A    between atoms: C7_23  and  N8_24 
REMARK    9  A    between atoms: N8_24  and  C8_27 
REMARK   10  A    between atoms: C8_27  and  C9_28 
ROOT
HETATM    1  C4  UNL     1      43.050  28.492  16.655  1.00  0.00     0.224 C 
ENDROOT
BRANCH   1   2
HETATM    2  N6  UNL     1      43.284  27.749  15.444  1.00  0.00    -0.315 N 
ATOM      3  H6  UNL     1      43.954  26.980  15.434  1.00  0.00     0.181 HD
BRANCH   2   4
HETATM    4  N5  UNL     1      42.590  28.089  14.291  1.00  0.00    -0.135 N 
ATOM      5  H5  UNL     1      42.219  29.031  14.164  1.00  0.00     0.205 HD
BRANCH   4   6
HETATM    6  C3  UNL     1      42.424  27.181  13.379  1.00  0.00     0.725 A 
HETATM    7  N4  UNL     1      41.477  26.220  13.512  1.00  0.00    -0.020 N 
HETATM    8  C2  UNL     1      41.313  25.291  12.571  1.00  0.00     0.705 A 
ATOM      9  H4  UNL     1      40.884  26.208  14.341  1.00  0.00     0.203 HD
HETATM   10  N2  UNL     1      42.100  25.303  11.465  1.00  0.00    -0.022 N 
HETATM   11  C1  UNL     1      43.049  26.239  11.297  1.00  0.00     0.705 A 
ATOM     12  H2  UNL     1      41.969  24.589  10.749  1.00  0.00     0.203 HD
HETATM   13  N10 UNL     1      43.180  27.155  12.269  1.00  0.00    -0.020 N 
ATOM     14  H10 UNL     1      43.895  27.874  12.158  1.00  0.00     0.203 HD
BRANCH   8  15
HETATM   15  N3  UNL     1      40.416  24.377  12.692  1.00  0.00    -0.234 N 
ATOM     16  H32 UNL     1      40.669  23.424  12.954  1.00  0.00     0.174 HD
ATOM     17  H31 UNL     1      39.439  24.613  12.521  1.00  0.00     0.174 HD
ENDBRANCH   8  15
BRANCH  11  18
HETATM   18  N1  UNL     1      43.785  26.229  10.237  1.00  0.00    -0.234 N 
ATOM     19  H12 UNL     1      44.668  26.734  10.169  1.00  0.00     0.174 HD
ATOM     20  H11 UNL     1      43.491  25.698   9.417  1.00  0.00     0.174 HD
ENDBRANCH  11  18
ENDBRANCH   4   6
ENDBRANCH   2   4
ENDBRANCH   1   2
BRANCH   1  21
HETATM   21  C5  UNL     1      41.619  28.500  17.040  1.00  0.00     0.142 A 
HETATM   22  N7  UNL     1      41.073  27.923  18.100  1.00  0.00    -0.339 N 
HETATM   23  C6  UNL     1      39.727  28.158  18.107  1.00  0.00     0.059 A 
ATOM     24  H7  UNL     1      41.580  27.386  18.803  1.00  0.00     0.167 HD
HETATM   25  C15 UNL     1      39.512  28.918  16.970  1.00  0.00     0.170 A 
HETATM   26  O1  UNL     1      40.671  29.090  16.377  1.00  0.00    -0.306 OA
BRANCH  23  27
HETATM   27  C7  UNL     1      38.719  27.705  19.099  1.00  0.00     0.291 C 
BRANCH  27  28
HETATM   28  N8  UNL     1      38.053  28.886  19.612  1.00  0.00    -0.068 N 
ATOM     29  H82 UNL     1      37.723  29.483  18.855  1.00  0.00     0.277 HD
ATOM     30  H81 UNL     1      37.155  28.650  20.035  1.00  0.00     0.277 HD
BRANCH  28  31
HETATM   31  C8  UNL     1      38.893  29.622  20.536  1.00  0.00     0.257 C 
BRANCH  31  32
HETATM   32  C9  UNL     1      38.181  29.699  21.847  1.00  0.00     0.102 C 
HETATM   33  C10 UNL     1      38.007  31.124  22.333  1.00  0.00     0.026 C 
HETATM   34  C11 UNL     1      37.936  31.033  23.864  1.00  0.00     0.002 C 
HETATM   35  C12 UNL     1      36.667  30.326  24.239  1.00  0.00     0.002 C 
HETATM   36  C13 UNL     1      36.823  28.823  24.326  1.00  0.00     0.019 C 
HETATM   37  C14 UNL     1      36.690  28.168  22.970  1.00  0.00     0.114 C 
HETATM   38  N9  UNL     1      36.900  29.075  21.888  1.00  0.00    -0.415 N 
ATOM     39  H9  UNL     1      36.181  29.263  21.189  1.00  0.00     0.153 HD
ENDBRANCH  31  32
ENDBRANCH  28  31
ENDBRANCH  27  28
ENDBRANCH  23  27
ENDBRANCH   1  21
TORSDOF 10
ENDMDL
