MODEL 1
REMARK VINA RESULT: -7.597043636      0.000      0.000
REMARK  10 active torsions:
REMARK  status: ('A' for Active; 'I' for Inactive)
REMARK    1  A    between atoms: C2_2  and  C3_3 
REMARK    2  A    between atoms: C3_3  and  C4_4 
REMARK    3  A    between atoms: C4_4  and  N1_5 
REMARK    4  A    between atoms: C6_10  and  N2_11 
REMARK    5  A    between atoms: C7_12  and  S1_13 
REMARK    6  A    between atoms: S1_13  and  C8_14 
REMARK    7  A    between atoms: C8_14  and  C9_15 
REMARK    8  A    between atoms: C9_15  and  N3_16 
REMARK    9  A    between atoms: C11_23  and  N5_24 
REMARK   10  A    between atoms: C12_29  and  N7_30 
ROOT
HETATM    1  N2  UNL     1      41.429  28.504  18.824  1.00  0.00    -0.305 N 
HETATM    2  C7  UNL     1      42.378  29.095  19.589  1.00  0.00     0.149 A 
HETATM    3  N4  UNL     1      43.529  29.164  18.901  1.00  0.00    -0.331 N 
ATOM      4  H4  UNL     1      44.406  29.563  19.239  1.00  0.00     0.168 HD
HETATM    5  C10 UNL     1      43.326  28.614  17.681  1.00  0.00     0.124 A 
HETATM    6  C11 UNL     1      44.131  28.414  16.580  1.00  0.00     0.145 A 
HETATM    7  N6  UNL     1      43.616  27.823  15.488  1.00  0.00    -0.175 N 
ATOM      8  H6  UNL     1      44.216  27.678  14.676  1.00  0.00     0.186 HD
HETATM    9  C12 UNL     1      42.331  27.415  15.433  1.00  0.00     0.679 A 
HETATM   10  N8  UNL     1      41.541  27.606  16.500  1.00  0.00    -0.174 N 
ATOM     11  H8  UNL     1      40.570  27.297  16.458  1.00  0.00     0.186 HD
HETATM   12  C13 UNL     1      41.993  28.192  17.624  1.00  0.00     0.156 A 
ENDROOT
BRANCH   1  13
HETATM   13  C6  UNL     1      40.068  28.239  19.180  1.00  0.00     0.123 C 
HETATM   14  C5  UNL     1      39.822  27.499  20.434  1.00  0.00     0.097 C 
HETATM   15  C4  UNL     1      38.460  27.998  20.885  1.00  0.00     0.289 C 
HETATM   16  N9  UNL     1      37.947  28.803  19.802  1.00  0.00    -0.038 N 
HETATM   17  C14 UNL     1      39.151  29.409  19.207  1.00  0.00     0.261 C 
ATOM     18  H92 UNL     1      37.363  28.293  19.140  1.00  0.00     0.280 HD
ATOM     19  H91 UNL     1      37.234  29.476  20.082  1.00  0.00     0.280 HD
BRANCH  15  20
HETATM   20  C3  UNL     1      37.599  26.784  21.149  1.00  0.00     0.095 C 
BRANCH  20  21
HETATM   21  C2  UNL     1      36.157  27.059  21.054  1.00  0.00    -0.033 C 
HETATM   22  C1  UNL     1      35.433  27.185  22.147  1.00  0.00     0.007 C 
ENDBRANCH  20  21
ENDBRANCH  15  20
BRANCH  15  23
HETATM   23  N1  UNL     1      38.531  28.818  22.068  1.00  0.00    -0.044 N 
ATOM     24  H13 UNL     1      37.860  29.586  22.042  1.00  0.00     0.277 HD
ATOM     25  H12 UNL     1      38.171  28.334  22.890  1.00  0.00     0.277 HD
ATOM     26  H11 UNL     1      39.486  29.148  22.206  1.00  0.00     0.277 HD
ENDBRANCH  15  23
ENDBRANCH   1  13
BRANCH   2  27
HETATM   27  S1  UNL     1      42.060  29.669  21.259  1.00  0.00    -0.092 SA
BRANCH  27  28
HETATM   28  C8  UNL     1      43.567  30.216  22.072  1.00  0.00     0.109 C 
BRANCH  28  29
HETATM   29  C9  UNL     1      44.398  28.957  22.349  1.00  0.00     0.240 C 
BRANCH  29  30
HETATM   30  N3  UNL     1      45.806  29.221  22.155  1.00  0.00    -0.079 N 
ATOM     31  H33 UNL     1      45.968  30.158  21.787  1.00  0.00     0.274 HD
ATOM     32  H32 UNL     1      46.299  29.317  23.042  1.00  0.00     0.274 HD
ATOM     33  H31 UNL     1      46.229  28.504  21.564  1.00  0.00     0.274 HD
ENDBRANCH  29  30
ENDBRANCH  28  29
ENDBRANCH  27  28
ENDBRANCH   2  27
BRANCH   6  34
HETATM   34  N5  UNL     1      45.354  28.801  16.628  1.00  0.00    -0.383 N 
ATOM     35  H52 UNL     1      46.039  28.346  17.233  1.00  0.00     0.157 HD
ATOM     36  H51 UNL     1      45.647  29.585  16.045  1.00  0.00     0.157 HD
ENDBRANCH   6  34
BRANCH   9  37
HETATM   37  N7  UNL     1      41.812  26.845  14.399  1.00  0.00    -0.234 N 
ATOM     38  H72 UNL     1      42.415  26.243  13.838  1.00  0.00     0.174 HD
ATOM     39  H71 UNL     1      40.838  26.967  14.120  1.00  0.00     0.174 HD
ENDBRANCH   9  37
TORSDOF 10
ENDMDL
MODEL 2
REMARK VINA RESULT: -7.527248326      1.673      2.147
REMARK  10 active torsions:
REMARK  status: ('A' for Active; 'I' for Inactive)
REMARK    1  A    between atoms: C2_2  and  C3_3 
REMARK    2  A    between atoms: C3_3  and  C4_4 
REMARK    3  A    between atoms: C4_4  and  N1_5 
REMARK    4  A    between atoms: C6_10  and  N2_11 
REMARK    5  A    between atoms: C7_12  and  S1_13 
REMARK    6  A    between atoms: S1_13  and  C8_14 
REMARK    7  A    between atoms: C8_14  and  C9_15 
REMARK    8  A    between atoms: C9_15  and  N3_16 
REMARK    9  A    between atoms: C11_23  and  N5_24 
REMARK   10  A    between atoms: C12_29  and  N7_30 
ROOT
HETATM    1  N2  UNL     1      41.803  28.805  20.059  1.00  0.00    -0.305 N 
HETATM    2  C7  UNL     1      42.939  29.322  20.585  1.00  0.00     0.149 A 
HETATM    3  N4  UNL     1      43.896  29.352  19.642  1.00  0.00    -0.331 N 
ATOM      4  H4  UNL     1      44.850  29.694  19.767  1.00  0.00     0.168 HD
HETATM    5  C10 UNL     1      43.377  28.850  18.497  1.00  0.00     0.124 A 
HETATM    6  C11 UNL     1      43.884  28.642  17.232  1.00  0.00     0.145 A 
HETATM    7  N6  UNL     1      43.091  28.112  16.285  1.00  0.00    -0.175 N 
ATOM      8  H6  UNL     1      43.471  27.961  15.352  1.00  0.00     0.186 HD
HETATM    9  C12 UNL     1      41.809  27.773  16.532  1.00  0.00     0.679 A 
HETATM   10  N8  UNL     1      41.308  27.972  17.760  1.00  0.00    -0.174 N 
ATOM     11  H8  UNL     1      40.338  27.716  17.947  1.00  0.00     0.186 HD
HETATM   12  C13 UNL     1      42.047  28.500  18.753  1.00  0.00     0.156 A 
ENDROOT
BRANCH   1  13
HETATM   13  C6  UNL     1      40.553  28.601  20.726  1.00  0.00     0.123 C 
HETATM   14  C5  UNL     1      39.418  29.457  20.327  1.00  0.00     0.097 C 
HETATM   15  C4  UNL     1      38.200  28.591  20.602  1.00  0.00     0.289 C 
HETATM   16  N9  UNL     1      38.685  27.424  21.300  1.00  0.00    -0.038 N 
HETATM   17  C14 UNL     1      40.032  27.208  20.743  1.00  0.00     0.261 C 
ATOM     18  H92 UNL     1      38.660  27.504  22.317  1.00  0.00     0.280 HD
ATOM     19  H91 UNL     1      38.071  26.613  21.238  1.00  0.00     0.280 HD
BRANCH  15  20
HETATM   20  C3  UNL     1      37.248  29.406  21.445  1.00  0.00     0.095 C 
BRANCH  20  21
HETATM   21  C2  UNL     1      37.591  30.836  21.497  1.00  0.00    -0.033 C 
HETATM   22  C1  UNL     1      37.082  31.606  22.435  1.00  0.00     0.007 C 
ENDBRANCH  20  21
ENDBRANCH  15  20
BRANCH  15  23
HETATM   23  N1  UNL     1      37.542  28.157  19.395  1.00  0.00    -0.044 N 
ATOM     24  H13 UNL     1      36.607  27.792  19.580  1.00  0.00     0.277 HD
ATOM     25  H12 UNL     1      37.280  28.942  18.800  1.00  0.00     0.277 HD
ATOM     26  H11 UNL     1      38.126  27.482  18.903  1.00  0.00     0.277 HD
ENDBRANCH  15  23
ENDBRANCH   1  13
BRANCH   2  27
HETATM   27  S1  UNL     1      43.061  29.862  22.292  1.00  0.00    -0.092 SA
BRANCH  27  28
HETATM   28  C8  UNL     1      44.724  30.411  22.697  1.00  0.00     0.109 C 
BRANCH  28  29
HETATM   29  C9  UNL     1      44.744  31.933  22.505  1.00  0.00     0.240 C 
BRANCH  29  30
HETATM   30  N3  UNL     1      45.840  32.326  21.650  1.00  0.00    -0.079 N 
ATOM     31  H33 UNL     1      46.103  33.301  21.796  1.00  0.00     0.274 HD
ATOM     32  H32 UNL     1      46.716  31.888  21.932  1.00  0.00     0.274 HD
ATOM     33  H31 UNL     1      45.621  32.136  20.671  1.00  0.00     0.274 HD
ENDBRANCH  29  30
ENDBRANCH  28  29
ENDBRANCH  27  28
ENDBRANCH   2  27
BRANCH   6  34
HETATM   34  N5  UNL     1      45.104  28.963  16.993  1.00  0.00    -0.383 N 
ATOM     35  H52 UNL     1      45.467  29.894  17.201  1.00  0.00     0.157 HD
ATOM     36  H51 UNL     1      45.727  28.265  16.585  1.00  0.00     0.157 HD
ENDBRANCH   6  34
BRANCH   9  37
HETATM   37  N7  UNL     1      41.026  27.262  15.643  1.00  0.00    -0.234 N 
ATOM     38  H72 UNL     1      41.308  27.338  14.666  1.00  0.00     0.174 HD
ATOM     39  H71 UNL     1      40.150  26.792  15.870  1.00  0.00     0.174 HD
ENDBRANCH   9  37
TORSDOF 10
ENDMDL
MODEL 3
REMARK VINA RESULT: -7.395858283      1.954      2.416
REMARK  10 active torsions:
REMARK  status: ('A' for Active; 'I' for Inactive)
REMARK    1  A    between atoms: C2_2  and  C3_3 
REMARK    2  A    between atoms: C3_3  and  C4_4 
REMARK    3  A    between atoms: C4_4  and  N1_5 
REMARK    4  A    between atoms: C6_10  and  N2_11 
REMARK    5  A    between atoms: C7_12  and  S1_13 
REMARK    6  A    between atoms: S1_13  and  C8_14 
REMARK    7  A    between atoms: C8_14  and  C9_15 
REMARK    8  A    between atoms: C9_15  and  N3_16 
REMARK    9  A    between atoms: C11_23  and  N5_24 
REMARK   10  A    between atoms: C12_29  and  N7_30 
ROOT
HETATM    1  N2  UNL     1      41.861  28.825  19.995  1.00  0.00    -0.305 N 
HETATM    2  C7  UNL     1      43.006  29.324  20.519  1.00  0.00     0.149 A 
HETATM    3  N4  UNL     1      43.965  29.328  19.578  1.00  0.00    -0.331 N 
ATOM      4  H4  UNL     1      44.925  29.652  19.703  1.00  0.00     0.168 HD
HETATM    5  C10 UNL     1      43.438  28.827  18.436  1.00  0.00     0.124 A 
HETATM    6  C11 UNL     1      43.943  28.600  17.174  1.00  0.00     0.145 A 
HETATM    7  N6  UNL     1      43.142  28.078  16.230  1.00  0.00    -0.175 N 
ATOM      8  H6  UNL     1      43.521  27.913  15.297  1.00  0.00     0.186 HD
HETATM    9  C12 UNL     1      41.852  27.767  16.476  1.00  0.00     0.679 A 
HETATM   10  N8  UNL     1      41.353  27.985  17.702  1.00  0.00    -0.174 N 
ATOM     11  H8  UNL     1      40.378  27.749  17.888  1.00  0.00     0.186 HD
HETATM   12  C13 UNL     1      42.101  28.506  18.692  1.00  0.00     0.156 A 
ENDROOT
BRANCH   1  13
HETATM   13  C6  UNL     1      40.606  28.650  20.661  1.00  0.00     0.123 C 
HETATM   14  C5  UNL     1      39.474  29.488  20.217  1.00  0.00     0.097 C 
HETATM   15  C4  UNL     1      38.254  28.635  20.521  1.00  0.00     0.289 C 
HETATM   16  N9  UNL     1      38.733  27.500  21.273  1.00  0.00    -0.038 N 
HETATM   17  C14 UNL     1      40.084  27.260  20.735  1.00  0.00     0.261 C 
ATOM     18  H92 UNL     1      38.701  27.624  22.285  1.00  0.00     0.280 HD
ATOM     19  H91 UNL     1      38.119  26.687  21.241  1.00  0.00     0.280 HD
BRANCH  15  20
HETATM   20  C3  UNL     1      37.296  29.486  21.321  1.00  0.00     0.095 C 
BRANCH  20  21
HETATM   21  C2  UNL     1      37.715  30.893  21.428  1.00  0.00    -0.033 C 
HETATM   22  C1  UNL     1      37.197  31.669  22.357  1.00  0.00     0.007 C 
ENDBRANCH  20  21
ENDBRANCH  15  20
BRANCH  15  23
HETATM   23  N1  UNL     1      37.604  28.150  19.329  1.00  0.00    -0.044 N 
ATOM     24  H13 UNL     1      36.792  28.715  19.080  1.00  0.00     0.277 HD
ATOM     25  H12 UNL     1      38.164  28.317  18.494  1.00  0.00     0.277 HD
ATOM     26  H11 UNL     1      37.366  27.165  19.440  1.00  0.00     0.277 HD
ENDBRANCH  15  23
ENDBRANCH   1  13
BRANCH   2  27
HETATM   27  S1  UNL     1      43.136  29.873  22.223  1.00  0.00    -0.092 SA
BRANCH  27  28
HETATM   28  C8  UNL     1      42.179  31.367  22.512  1.00  0.00     0.109 C 
BRANCH  28  29
HETATM   29  C9  UNL     1      43.183  32.471  22.865  1.00  0.00     0.240 C 
BRANCH  29  30
HETATM   30  N3  UNL     1      42.541  33.766  22.864  1.00  0.00    -0.079 N 
ATOM     31  H33 UNL     1      42.790  34.312  23.689  1.00  0.00     0.274 HD
ATOM     32  H32 UNL     1      42.931  34.381  22.151  1.00  0.00     0.274 HD
ATOM     33  H31 UNL     1      41.530  33.667  22.767  1.00  0.00     0.274 HD
ENDBRANCH  29  30
ENDBRANCH  28  29
ENDBRANCH  27  28
ENDBRANCH   2  27
BRANCH   6  34
HETATM   34  N5  UNL     1      45.170  28.896  16.935  1.00  0.00    -0.383 N 
ATOM     35  H52 UNL     1      45.498  29.113  15.994  1.00  0.00     0.157 HD
ATOM     36  H51 UNL     1      45.833  28.913  17.710  1.00  0.00     0.157 HD
ENDBRANCH   6  34
BRANCH   9  37
HETATM   37  N7  UNL     1      41.062  27.265  15.589  1.00  0.00    -0.234 N 
ATOM     38  H72 UNL     1      40.773  27.867  14.818  1.00  0.00     0.174 HD
ATOM     39  H71 UNL     1      40.717  26.305  15.623  1.00  0.00     0.174 HD
ENDBRANCH   9  37
TORSDOF 10
ENDMDL
MODEL 4
REMARK VINA RESULT: -7.336536220      1.372      1.511
REMARK  10 active torsions:
REMARK  status: ('A' for Active; 'I' for Inactive)
REMARK    1  A    between atoms: C2_2  and  C3_3 
REMARK    2  A    between atoms: C3_3  and  C4_4 
REMARK    3  A    between atoms: C4_4  and  N1_5 
REMARK    4  A    between atoms: C6_10  and  N2_11 
REMARK    5  A    between atoms: C7_12  and  S1_13 
REMARK    6  A    between atoms: S1_13  and  C8_14 
REMARK    7  A    between atoms: C8_14  and  C9_15 
REMARK    8  A    between atoms: C9_15  and  N3_16 
REMARK    9  A    between atoms: C11_23  and  N5_24 
REMARK   10  A    between atoms: C12_29  and  N7_30 
ROOT
HETATM    1  N2  UNL     1      41.308  28.482  19.011  1.00  0.00    -0.305 N 
HETATM    2  C7  UNL     1      42.250  29.094  19.769  1.00  0.00     0.149 A 
HETATM    3  N4  UNL     1      43.394  29.190  19.070  1.00  0.00    -0.331 N 
ATOM      4  H4  UNL     1      44.264  29.608  19.401  1.00  0.00     0.168 HD
HETATM    5  C10 UNL     1      43.192  28.635  17.851  1.00  0.00     0.124 A 
HETATM    6  C11 UNL     1      43.992  28.455  16.744  1.00  0.00     0.145 A 
HETATM    7  N6  UNL     1      43.482  27.852  15.656  1.00  0.00    -0.175 N 
ATOM      8  H6  UNL     1      44.077  27.722  14.839  1.00  0.00     0.186 HD
HETATM    9  C12 UNL     1      42.206  27.415  15.612  1.00  0.00     0.679 A 
HETATM   10  N8  UNL     1      41.421  27.587  16.686  1.00  0.00    -0.174 N 
ATOM     11  H8  UNL     1      40.457  27.256  16.652  1.00  0.00     0.186 HD
HETATM   12  C13 UNL     1      41.869  28.183  17.806  1.00  0.00     0.156 A 
ENDROOT
BRANCH   1  13
HETATM   13  C6  UNL     1      39.957  28.186  19.380  1.00  0.00     0.123 C 
HETATM   14  C5  UNL     1      39.730  27.561  20.698  1.00  0.00     0.097 C 
HETATM   15  C4  UNL     1      38.338  28.034  21.084  1.00  0.00     0.289 C 
HETATM   16  N9  UNL     1      37.803  28.702  19.922  1.00  0.00    -0.038 N 
HETATM   17  C14 UNL     1      38.984  29.306  19.281  1.00  0.00     0.261 C 
ATOM     18  H92 UNL     1      37.254  28.100  19.308  1.00  0.00     0.280 HD
ATOM     19  H91 UNL     1      37.053  29.363  20.127  1.00  0.00     0.280 HD
BRANCH  15  20
HETATM   20  C3  UNL     1      37.535  26.811  21.460  1.00  0.00     0.095 C 
BRANCH  20  21
HETATM   21  C2  UNL     1      36.087  26.978  21.257  1.00  0.00    -0.033 C 
HETATM   22  C1  UNL     1      35.302  27.254  22.278  1.00  0.00     0.007 C 
ENDBRANCH  20  21
ENDBRANCH  15  20
BRANCH  15  23
HETATM   23  N1  UNL     1      38.353  28.969  22.181  1.00  0.00    -0.044 N 
ATOM     24  H13 UNL     1      38.966  28.664  22.936  1.00  0.00     0.277 HD
ATOM     25  H12 UNL     1      38.835  29.835  21.938  1.00  0.00     0.277 HD
ATOM     26  H11 UNL     1      37.401  29.140  22.505  1.00  0.00     0.277 HD
ENDBRANCH  15  23
ENDBRANCH   1  13
BRANCH   2  27
HETATM   27  S1  UNL     1      41.934  29.661  21.442  1.00  0.00    -0.092 SA
BRANCH  27  28
HETATM   28  C8  UNL     1      41.173  31.289  21.458  1.00  0.00     0.109 C 
BRANCH  28  29
HETATM   29  C9  UNL     1      41.771  32.042  22.653  1.00  0.00     0.240 C 
BRANCH  29  30
HETATM   30  N3  UNL     1      42.228  33.355  22.254  1.00  0.00    -0.079 N 
ATOM     31  H33 UNL     1      41.884  34.081  22.881  1.00  0.00     0.274 HD
ATOM     32  H32 UNL     1      43.227  33.473  22.416  1.00  0.00     0.274 HD
ATOM     33  H31 UNL     1      41.977  33.543  21.282  1.00  0.00     0.274 HD
ENDBRANCH  29  30
ENDBRANCH  28  29
ENDBRANCH  27  28
ENDBRANCH   2  27
BRANCH   6  34
HETATM   34  N5  UNL     1      45.207  28.869  16.782  1.00  0.00    -0.383 N 
ATOM     35  H52 UNL     1      45.929  28.476  16.178  1.00  0.00     0.157 HD
ATOM     36  H51 UNL     1      45.453  29.614  17.435  1.00  0.00     0.157 HD
ENDBRANCH   6  34
BRANCH   9  37
HETATM   37  N7  UNL     1      41.691  26.833  14.582  1.00  0.00    -0.234 N 
ATOM     38  H72 UNL     1      42.180  26.023  14.203  1.00  0.00     0.174 HD
ATOM     39  H71 UNL     1      40.827  27.143  14.136  1.00  0.00     0.174 HD
ENDBRANCH   9  37
TORSDOF 10
ENDMDL
MODEL 5
REMARK VINA RESULT: -7.167866579      3.841      7.447
REMARK  10 active torsions:
REMARK  status: ('A' for Active; 'I' for Inactive)
REMARK    1  A    between atoms: C2_2  and  C3_3 
REMARK    2  A    between atoms: C3_3  and  C4_4 
REMARK    3  A    between atoms: C4_4  and  N1_5 
REMARK    4  A    between atoms: C6_10  and  N2_11 
REMARK    5  A    between atoms: C7_12  and  S1_13 
REMARK    6  A    between atoms: S1_13  and  C8_14 
REMARK    7  A    between atoms: C8_14  and  C9_15 
REMARK    8  A    between atoms: C9_15  and  N3_16 
REMARK    9  A    between atoms: C11_23  and  N5_24 
REMARK   10  A    between atoms: C12_29  and  N7_30 
ROOT
HETATM    1  N2  UNL     1      38.480  30.250  22.722  1.00  0.00    -0.305 N 
HETATM    2  C7  UNL     1      38.949  31.108  23.659  1.00  0.00     0.149 A 
HETATM    3  N4  UNL     1      38.258  30.946  24.800  1.00  0.00    -0.331 N 
ATOM      4  H4  UNL     1      38.405  31.464  25.667  1.00  0.00     0.168 HD
HETATM    5  C10 UNL     1      37.335  29.977  24.600  1.00  0.00     0.124 A 
HETATM    6  C11 UNL     1      36.369  29.403  25.399  1.00  0.00     0.145 A 
HETATM    7  N6  UNL     1      35.588  28.434  24.893  1.00  0.00    -0.175 N 
ATOM      8  H6  UNL     1      34.876  28.013  25.488  1.00  0.00     0.186 HD
HETATM    9  C12 UNL     1      35.716  28.002  23.621  1.00  0.00     0.679 A 
HETATM   10  N8  UNL     1      36.653  28.556  22.837  1.00  0.00    -0.174 N 
ATOM     11  H8  UNL     1      36.750  28.229  21.875  1.00  0.00     0.186 HD
HETATM   12  C13 UNL     1      37.469  29.529  23.282  1.00  0.00     0.156 A 
ENDROOT
BRANCH   1  13
HETATM   13  C6  UNL     1      38.941  30.101  21.374  1.00  0.00     0.123 C 
HETATM   14  C5  UNL     1      39.353  28.752  20.939  1.00  0.00     0.097 C 
HETATM   15  C4  UNL     1      39.073  28.754  19.446  1.00  0.00     0.289 C 
HETATM   16  N9  UNL     1      38.725  30.113  19.104  1.00  0.00    -0.038 N 
HETATM   17  C14 UNL     1      38.045  30.622  20.308  1.00  0.00     0.261 C 
ATOM     18  H92 UNL     1      39.513  30.682  18.795  1.00  0.00     0.280 HD
ATOM     19  H91 UNL     1      38.181  30.203  18.246  1.00  0.00     0.280 HD
BRANCH  15  20
HETATM   20  C3  UNL     1      40.333  28.296  18.749  1.00  0.00     0.095 C 
BRANCH  20  21
HETATM   21  C2  UNL     1      40.190  28.199  17.288  1.00  0.00    -0.033 C 
HETATM   22  C1  UNL     1      41.213  27.829  16.545  1.00  0.00     0.007 C 
ENDBRANCH  20  21
ENDBRANCH  15  20
BRANCH  15  23
HETATM   23  N1  UNL     1      37.971  27.898  19.084  1.00  0.00    -0.044 N 
ATOM     24  H13 UNL     1      37.447  27.584  19.901  1.00  0.00     0.277 HD
ATOM     25  H12 UNL     1      37.225  28.413  18.617  1.00  0.00     0.277 HD
ATOM     26  H11 UNL     1      38.307  27.117  18.521  1.00  0.00     0.277 HD
ENDBRANCH  15  23
ENDBRANCH   1  13
BRANCH   2  27
HETATM   27  S1  UNL     1      40.294  32.253  23.342  1.00  0.00    -0.092 SA
BRANCH  27  28
HETATM   28  C8  UNL     1      39.692  33.821  22.700  1.00  0.00     0.109 C 
BRANCH  28  29
HETATM   29  C9  UNL     1      40.655  34.902  23.208  1.00  0.00     0.240 C 
BRANCH  29  30
HETATM   30  N3  UNL     1      41.570  35.303  22.163  1.00  0.00    -0.079 N 
ATOM     31  H33 UNL     1      42.522  35.408  22.513  1.00  0.00     0.274 HD
ATOM     32  H32 UNL     1      41.734  34.551  21.495  1.00  0.00     0.274 HD
ATOM     33  H31 UNL     1      41.241  36.152  21.702  1.00  0.00     0.274 HD
ENDBRANCH  29  30
ENDBRANCH  28  29
ENDBRANCH  27  28
ENDBRANCH   2  27
BRANCH   6  34
HETATM   34  N5  UNL     1      36.243  29.811  26.611  1.00  0.00    -0.383 N 
ATOM     35  H52 UNL     1      37.022  29.790  27.269  1.00  0.00     0.157 HD
ATOM     36  H51 UNL     1      35.338  30.166  26.920  1.00  0.00     0.157 HD
ENDBRANCH   6  34
BRANCH   9  37
HETATM   37  N7  UNL     1      34.980  27.075  23.109  1.00  0.00    -0.234 N 
ATOM     38  H72 UNL     1      34.079  26.889  23.549  1.00  0.00     0.174 HD
ATOM     39  H71 UNL     1      35.254  26.527  22.293  1.00  0.00     0.174 HD
ENDBRANCH   9  37
TORSDOF 10
ENDMDL
