MODEL 1
REMARK VINA RESULT: -7.963165965      0.000      0.000
REMARK  10 active torsions:
REMARK  status: ('A' for Active; 'I' for Inactive)
REMARK    1  A    between atoms: C2_2  and  C4_4 
REMARK    2  A    between atoms: C4_4  and  N1_5 
REMARK    3  A    between atoms: N1_5  and  C5_7 
REMARK    4  A    between atoms: C5_7  and  C6_8 
REMARK    5  A    between atoms: C6_8  and  C8_10 
REMARK    6  A    between atoms: C8_10  and  N2_11 
REMARK    7  A    between atoms: N2_11  and  C9_13 
REMARK    8  A    between atoms: C9_13  and  O1_14 
REMARK    9  A    between atoms: C9_13  and  C10_16 
REMARK   10  A    between atoms: N4_19  and  C11_20 
ROOT
HETATM    1  C9  UNL     1      32.392   7.963  17.443  1.00  0.00     0.273 C 
ENDROOT
BRANCH   1   2
HETATM    2  N2  UNL     1      32.763   6.881  18.294  1.00  0.00    -0.391 N 
ATOM      3  H2  UNL     1      32.619   5.910  18.016  1.00  0.00     0.156 HD
BRANCH   2   4
HETATM    4  C8  UNL     1      33.344   7.220  19.551  1.00  0.00     0.126 C 
BRANCH   4   5
HETATM    5  C6  UNL     1      34.844   7.549  19.457  1.00  0.00     0.037 C 
HETATM    6  C7  UNL     1      35.516   6.637  20.440  1.00  0.00     0.017 C 
BRANCH   5   7
HETATM    7  C5  UNL     1      35.005   8.996  19.775  1.00  0.00     0.061 C 
BRANCH   7   8
HETATM    8  N1  UNL     1      35.645   9.849  18.876  1.00  0.00    -0.401 N 
ATOM      9  H1  UNL     1      35.189  10.714  18.585  1.00  0.00     0.158 HD
BRANCH   8  10
HETATM   10  C4  UNL     1      36.925   9.522  18.362  1.00  0.00     0.122 C 
BRANCH  10  11
HETATM   11  C2  UNL     1      36.763   9.506  16.826  1.00  0.00    -0.005 C 
HETATM   12  C1  UNL     1      35.637  10.430  16.403  1.00  0.00     0.011 C 
HETATM   13  C3  UNL     1      36.420   8.109  16.395  1.00  0.00     0.011 C 
ENDBRANCH  10  11
ENDBRANCH   8  10
ENDBRANCH   7   8
ENDBRANCH   5   7
ENDBRANCH   4   5
ENDBRANCH   2   4
ENDBRANCH   1   2
BRANCH   1  14
HETATM   14  O1  UNL     1      31.403   8.700  18.139  1.00  0.00    -0.371 OA
ATOM     15  H1  UNL     1      31.416   9.579  17.777  1.00  0.00     0.212 HD
ENDBRANCH   1  14
BRANCH   1  16
HETATM   16  C10 UNL     1      31.698   7.480  16.190  1.00  0.00     0.119 A 
HETATM   17  N3  UNL     1      31.366   8.196  15.126  1.00  0.00    -0.288 N 
HETATM   18  N4  UNL     1      30.772   7.647  14.145  1.00  0.00    -0.246 N 
ATOM     19  H3  UNL     1      31.587   9.192  15.093  1.00  0.00     0.187 HD
HETATM   20  C16 UNL     1      30.493   6.340  14.210  1.00  0.00     0.306 A 
HETATM   21  O2  UNL     1      29.910   5.598  13.346  1.00  0.00    -0.258 OA
HETATM   22  S1  UNL     1      31.122   5.929  15.753  1.00  0.00    -0.008 SA
BRANCH  18  23
HETATM   23  C11 UNL     1      30.380   8.392  12.924  1.00  0.00     0.112 C 
HETATM   24  C12 UNL     1      31.385   8.255  11.828  1.00  0.00     0.027 C 
HETATM   25  C13 UNL     1      31.104   9.522  11.004  1.00  0.00     0.002 C 
HETATM   26  C14 UNL     1      30.932  10.563  12.106  1.00  0.00     0.002 C 
HETATM   27  C15 UNL     1      30.322   9.862  13.275  1.00  0.00     0.027 C 
ENDBRANCH  18  23
ENDBRANCH   1  16
TORSDOF 10
ENDMDL
MODEL 2
REMARK VINA RESULT: -7.848441155      0.805      1.104
REMARK  10 active torsions:
REMARK  status: ('A' for Active; 'I' for Inactive)
REMARK    1  A    between atoms: C2_2  and  C4_4 
REMARK    2  A    between atoms: C4_4  and  N1_5 
REMARK    3  A    between atoms: N1_5  and  C5_7 
REMARK    4  A    between atoms: C5_7  and  C6_8 
REMARK    5  A    between atoms: C6_8  and  C8_10 
REMARK    6  A    between atoms: C8_10  and  N2_11 
REMARK    7  A    between atoms: N2_11  and  C9_13 
REMARK    8  A    between atoms: C9_13  and  O1_14 
REMARK    9  A    between atoms: C9_13  and  C10_16 
REMARK   10  A    between atoms: N4_19  and  C11_20 
ROOT
HETATM    1  C9  UNL     1      32.469   8.102  17.473  1.00  0.00     0.273 C 
ENDROOT
BRANCH   1   2
HETATM    2  N2  UNL     1      33.088   7.055  18.215  1.00  0.00    -0.391 N 
ATOM      3  H2  UNL     1      33.129   6.100  17.859  1.00  0.00     0.156 HD
BRANCH   2   4
HETATM    4  C8  UNL     1      33.648   7.404  19.479  1.00  0.00     0.126 C 
BRANCH   4   5
HETATM    5  C6  UNL     1      35.083   6.883  19.671  1.00  0.00     0.037 C 
HETATM    6  C7  UNL     1      35.650   7.680  20.808  1.00  0.00     0.017 C 
BRANCH   5   7
HETATM    7  C5  UNL     1      35.807   7.082  18.382  1.00  0.00     0.061 C 
BRANCH   7   8
HETATM    8  N1  UNL     1      37.034   7.745  18.357  1.00  0.00    -0.401 N 
ATOM      9  H1  UNL     1      37.835   7.346  18.845  1.00  0.00     0.158 HD
BRANCH   8  10
HETATM   10  C4  UNL     1      37.174   8.970  17.658  1.00  0.00     0.122 C 
BRANCH  10  11
HETATM   11  C2  UNL     1      36.104   8.935  16.544  1.00  0.00    -0.005 C 
HETATM   12  C1  UNL     1      36.756   8.755  15.187  1.00  0.00     0.011 C 
HETATM   13  C3  UNL     1      35.366  10.244  16.549  1.00  0.00     0.011 C 
ENDBRANCH  10  11
ENDBRANCH   8  10
ENDBRANCH   7   8
ENDBRANCH   5   7
ENDBRANCH   4   5
ENDBRANCH   2   4
ENDBRANCH   1   2
BRANCH   1  14
HETATM   14  O1  UNL     1      31.429   8.611  18.288  1.00  0.00    -0.371 OA
ATOM     15  H1  UNL     1      30.614   8.411  17.841  1.00  0.00     0.212 HD
ENDBRANCH   1  14
BRANCH   1  16
HETATM   16  C10 UNL     1      31.768   7.579  16.240  1.00  0.00     0.119 A 
HETATM   17  N3  UNL     1      31.419   8.263  15.160  1.00  0.00    -0.288 N 
HETATM   18  N4  UNL     1      30.821   7.682  14.200  1.00  0.00    -0.246 N 
ATOM     19  H3  UNL     1      31.630   9.259  15.099  1.00  0.00     0.187 HD
HETATM   20  C16 UNL     1      30.555   6.374  14.304  1.00  0.00     0.306 A 
HETATM   21  O2  UNL     1      29.971   5.603  13.466  1.00  0.00    -0.258 OA
HETATM   22  S1  UNL     1      31.203   6.011  15.851  1.00  0.00    -0.008 SA
BRANCH  18  23
HETATM   23  C11 UNL     1      30.410   8.389  12.964  1.00  0.00     0.112 C 
HETATM   24  C12 UNL     1      31.410   8.240  11.865  1.00  0.00     0.027 C 
HETATM   25  C13 UNL     1      31.104   9.481  11.011  1.00  0.00     0.002 C 
HETATM   26  C14 UNL     1      30.923  10.547  12.088  1.00  0.00     0.002 C 
HETATM   27  C15 UNL     1      30.331   9.866  13.278  1.00  0.00     0.027 C 
ENDBRANCH  18  23
ENDBRANCH   1  16
TORSDOF 10
ENDMDL
MODEL 3
REMARK VINA RESULT: -7.778592684      2.976      5.686
REMARK  10 active torsions:
REMARK  status: ('A' for Active; 'I' for Inactive)
REMARK    1  A    between atoms: C2_2  and  C4_4 
REMARK    2  A    between atoms: C4_4  and  N1_5 
REMARK    3  A    between atoms: N1_5  and  C5_7 
REMARK    4  A    between atoms: C5_7  and  C6_8 
REMARK    5  A    between atoms: C6_8  and  C8_10 
REMARK    6  A    between atoms: C8_10  and  N2_11 
REMARK    7  A    between atoms: N2_11  and  C9_13 
REMARK    8  A    between atoms: C9_13  and  O1_14 
REMARK    9  A    between atoms: C9_13  and  C10_16 
REMARK   10  A    between atoms: N4_19  and  C11_20 
ROOT
HETATM    1  C9  UNL     1      33.438   8.260  17.448  1.00  0.00     0.273 C 
ENDROOT
BRANCH   1   2
HETATM    2  N2  UNL     1      32.113   7.812  17.172  1.00  0.00    -0.391 N 
ATOM      3  H2  UNL     1      31.349   8.469  17.015  1.00  0.00     0.156 HD
BRANCH   2   4
HETATM    4  C8  UNL     1      31.905   6.402  17.127  1.00  0.00     0.126 C 
BRANCH   4   5
HETATM    5  C6  UNL     1      31.132   5.943  15.878  1.00  0.00     0.037 C 
HETATM    6  C7  UNL     1      32.117   5.157  15.065  1.00  0.00     0.017 C 
BRANCH   5   7
HETATM    7  C5  UNL     1      30.629   7.166  15.189  1.00  0.00     0.061 C 
BRANCH   7   8
HETATM    8  N1  UNL     1      29.260   7.359  15.006  1.00  0.00    -0.401 N 
ATOM      9  H1  UNL     1      28.640   7.391  15.815  1.00  0.00     0.158 HD
BRANCH   8  10
HETATM   10  C4  UNL     1      28.724   7.511  13.702  1.00  0.00     0.122 C 
BRANCH  10  11
HETATM   11  C2  UNL     1      29.243   6.298  12.898  1.00  0.00    -0.005 C 
HETATM   12  C1  UNL     1      30.040   6.762  11.694  1.00  0.00     0.011 C 
HETATM   13  C3  UNL     1      28.063   5.506  12.412  1.00  0.00     0.011 C 
ENDBRANCH  10  11
ENDBRANCH   8  10
ENDBRANCH   7   8
ENDBRANCH   5   7
ENDBRANCH   4   5
ENDBRANCH   2   4
ENDBRANCH   1   2
BRANCH   1  14
HETATM   14  O1  UNL     1      33.341   9.143  18.551  1.00  0.00    -0.371 OA
ATOM     15  H1  UNL     1      34.111   8.989  19.087  1.00  0.00     0.212 HD
ENDBRANCH   1  14
BRANCH   1  16
HETATM   16  C10 UNL     1      33.989   9.110  16.326  1.00  0.00     0.119 A 
HETATM   17  N3  UNL     1      33.349   9.533  15.245  1.00  0.00    -0.288 N 
HETATM   18  N4  UNL     1      33.953  10.239  14.379  1.00  0.00    -0.246 N 
ATOM     19  H3  UNL     1      32.367   9.291  15.109  1.00  0.00     0.187 HD
HETATM   20  C16 UNL     1      35.241  10.545  14.580  1.00  0.00     0.306 A 
HETATM   21  O2  UNL     1      36.028  11.235  13.845  1.00  0.00    -0.258 OA
HETATM   22  S1  UNL     1      35.550   9.767  16.079  1.00  0.00    -0.008 SA
BRANCH  18  23
HETATM   23  C11 UNL     1      33.292  10.747  13.152  1.00  0.00     0.112 C 
HETATM   24  C12 UNL     1      31.865  11.120  13.390  1.00  0.00     0.027 C 
HETATM   25  C13 UNL     1      31.284  10.995  11.972  1.00  0.00     0.002 C 
HETATM   26  C14 UNL     1      31.934   9.701  11.495  1.00  0.00     0.002 C 
HETATM   27  C15 UNL     1      33.282   9.631  12.133  1.00  0.00     0.027 C 
ENDBRANCH  18  23
ENDBRANCH   1  16
TORSDOF 10
ENDMDL
MODEL 4
REMARK VINA RESULT: -7.691475366      2.883      5.703
REMARK  10 active torsions:
REMARK  status: ('A' for Active; 'I' for Inactive)
REMARK    1  A    between atoms: C2_2  and  C4_4 
REMARK    2  A    between atoms: C4_4  and  N1_5 
REMARK    3  A    between atoms: N1_5  and  C5_7 
REMARK    4  A    between atoms: C5_7  and  C6_8 
REMARK    5  A    between atoms: C6_8  and  C8_10 
REMARK    6  A    between atoms: C8_10  and  N2_11 
REMARK    7  A    between atoms: N2_11  and  C9_13 
REMARK    8  A    between atoms: C9_13  and  O1_14 
REMARK    9  A    between atoms: C9_13  and  C10_16 
REMARK   10  A    between atoms: N4_19  and  C11_20 
ROOT
HETATM    1  C9  UNL     1      33.502   7.833  17.897  1.00  0.00     0.273 C 
ENDROOT
BRANCH   1   2
HETATM    2  N2  UNL     1      32.202   7.496  17.420  1.00  0.00    -0.391 N 
ATOM      3  H2  UNL     1      31.495   8.211  17.247  1.00  0.00     0.156 HD
BRANCH   2   4
HETATM    4  C8  UNL     1      31.935   6.113  17.198  1.00  0.00     0.126 C 
BRANCH   4   5
HETATM    5  C6  UNL     1      31.198   5.844  15.874  1.00  0.00     0.037 C 
HETATM    6  C7  UNL     1      32.205   5.183  14.982  1.00  0.00     0.017 C 
BRANCH   5   7
HETATM    7  C5  UNL     1      30.711   7.156  15.359  1.00  0.00     0.061 C 
BRANCH   7   8
HETATM    8  N1  UNL     1      29.350   7.365  15.136  1.00  0.00    -0.401 N 
ATOM      9  H1  UNL     1      28.694   7.299  15.914  1.00  0.00     0.158 HD
BRANCH   8  10
HETATM   10  C4  UNL     1      28.873   7.670  13.837  1.00  0.00     0.122 C 
BRANCH  10  11
HETATM   11  C2  UNL     1      29.338   6.500  12.941  1.00  0.00    -0.005 C 
HETATM   12  C1  UNL     1      30.080   7.025  11.727  1.00  0.00     0.011 C 
HETATM   13  C3  UNL     1      28.127   5.746  12.471  1.00  0.00     0.011 C 
ENDBRANCH  10  11
ENDBRANCH   8  10
ENDBRANCH   7   8
ENDBRANCH   5   7
ENDBRANCH   4   5
ENDBRANCH   2   4
ENDBRANCH   1   2
BRANCH   1  14
HETATM   14  O1  UNL     1      33.357   9.024  18.650  1.00  0.00    -0.371 OA
ATOM     15  H1  UNL     1      33.261   8.760  19.557  1.00  0.00     0.212 HD
ENDBRANCH   1  14
BRANCH   1  16
HETATM   16  C10 UNL     1      34.435   8.206  16.768  1.00  0.00     0.119 A 
HETATM   17  N3  UNL     1      34.108   8.548  15.530  1.00  0.00    -0.288 N 
HETATM   18  N4  UNL     1      35.013   8.829  14.683  1.00  0.00    -0.246 N 
ATOM     19  H3  UNL     1      33.126   8.586  15.256  1.00  0.00     0.187 HD
HETATM   20  C16 UNL     1      36.294   8.773  15.066  1.00  0.00     0.306 A 
HETATM   21  O2  UNL     1      37.349   9.014  14.382  1.00  0.00    -0.258 OA
HETATM   22  S1  UNL     1      36.144   8.294  16.707  1.00  0.00    -0.008 SA
BRANCH  18  23
HETATM   23  C11 UNL     1      34.711   9.223  13.285  1.00  0.00     0.112 C 
HETATM   24  C12 UNL     1      34.506  10.695  13.143  1.00  0.00     0.027 C 
HETATM   25  C13 UNL     1      33.643  10.755  11.872  1.00  0.00     0.002 C 
HETATM   26  C14 UNL     1      32.667   9.609  12.119  1.00  0.00     0.002 C 
HETATM   27  C15 UNL     1      33.408   8.566  12.888  1.00  0.00     0.027 C 
ENDBRANCH  18  23
ENDBRANCH   1  16
TORSDOF 10
ENDMDL
MODEL 5
REMARK VINA RESULT: -7.647126886      2.032      7.130
REMARK  10 active torsions:
REMARK  status: ('A' for Active; 'I' for Inactive)
REMARK    1  A    between atoms: C2_2  and  C4_4 
REMARK    2  A    between atoms: C4_4  and  N1_5 
REMARK    3  A    between atoms: N1_5  and  C5_7 
REMARK    4  A    between atoms: C5_7  and  C6_8 
REMARK    5  A    between atoms: C6_8  and  C8_10 
REMARK    6  A    between atoms: C8_10  and  N2_11 
REMARK    7  A    between atoms: N2_11  and  C9_13 
REMARK    8  A    between atoms: C9_13  and  O1_14 
REMARK    9  A    between atoms: C9_13  and  C10_16 
REMARK   10  A    between atoms: N4_19  and  C11_20 
ROOT
HETATM    1  C9  UNL     1      32.170   5.541  15.620  1.00  0.00     0.273 C 
ENDROOT
BRANCH   1   2
HETATM    2  N2  UNL     1      30.805   5.882  15.393  1.00  0.00    -0.391 N 
ATOM      3  H2  UNL     1      30.154   6.020  16.165  1.00  0.00     0.156 HD
BRANCH   2   4
HETATM    4  C8  UNL     1      30.393   6.021  14.035  1.00  0.00     0.126 C 
BRANCH   4   5
HETATM    5  C6  UNL     1      28.975   6.599  13.889  1.00  0.00     0.037 C 
HETATM    6  C7  UNL     1      28.446   6.040  12.602  1.00  0.00     0.017 C 
BRANCH   5   7
HETATM    7  C5  UNL     1      29.095   8.085  13.891  1.00  0.00     0.061 C 
BRANCH   7   8
HETATM    8  N1  UNL     1      30.181   8.706  13.273  1.00  0.00    -0.401 N 
ATOM      9  H1  UNL     1      30.858   8.145  12.756  1.00  0.00     0.158 HD
BRANCH   8  10
HETATM   10  C4  UNL     1      30.349  10.111  13.358  1.00  0.00     0.122 C 
BRANCH  10  11
HETATM   11  C2  UNL     1      31.358  10.474  12.245  1.00  0.00    -0.005 C 
HETATM   12  C1  UNL     1      31.109  11.884  11.743  1.00  0.00     0.011 C 
HETATM   13  C3  UNL     1      31.170   9.520  11.100  1.00  0.00     0.011 C 
ENDBRANCH  10  11
ENDBRANCH   8  10
ENDBRANCH   7   8
ENDBRANCH   5   7
ENDBRANCH   4   5
ENDBRANCH   2   4
ENDBRANCH   1   2
BRANCH   1  14
HETATM   14  O1  UNL     1      32.181   4.630  16.705  1.00  0.00    -0.371 OA
ATOM     15  H1  UNL     1      32.775   3.928  16.463  1.00  0.00     0.212 HD
ENDBRANCH   1  14
BRANCH   1  16
HETATM   16  C10 UNL     1      32.972   6.725  16.109  1.00  0.00     0.119 A 
HETATM   17  N3  UNL     1      33.700   6.806  17.214  1.00  0.00    -0.288 N 
HETATM   18  N4  UNL     1      34.316   7.881  17.497  1.00  0.00    -0.246 N 
ATOM     19  H3  UNL     1      33.765   6.002  17.839  1.00  0.00     0.187 HD
HETATM   20  C16 UNL     1      34.215   8.921  16.661  1.00  0.00     0.306 A 
HETATM   21  O2  UNL     1      34.747  10.081  16.754  1.00  0.00    -0.258 OA
HETATM   22  S1  UNL     1      33.188   8.286  15.441  1.00  0.00    -0.008 SA
BRANCH  18  23
HETATM   23  C11 UNL     1      35.149   8.032  18.715  1.00  0.00     0.112 C 
HETATM   24  C12 UNL     1      36.514   7.451  18.544  1.00  0.00     0.027 C 
HETATM   25  C13 UNL     1      36.904   7.169  20.004  1.00  0.00     0.002 C 
HETATM   26  C14 UNL     1      35.607   6.583  20.552  1.00  0.00     0.002 C 
HETATM   27  C15 UNL     1      34.486   7.257  19.831  1.00  0.00     0.027 C 
ENDBRANCH  18  23
ENDBRANCH   1  16
TORSDOF 10
ENDMDL
