MODEL 1
REMARK VINA RESULT: -7.517838611      0.000      0.000
REMARK  16 active torsions:
REMARK  status: ('A' for Active; 'I' for Inactive)
REMARK    1  A    between atoms: C2_2  and  C3_3 
REMARK    2  A    between atoms: C3_3  and  O1_4 
REMARK    3  A    between atoms: C3_3  and  O2_6 
REMARK    4  A    between atoms: C3_3  and  C4_8 
REMARK    5  A    between atoms: C5_9  and  C6_10 
REMARK    6  A    between atoms: C7_11  and  O3_12 
REMARK    7  A    between atoms: C8_14  and  N1_15 
REMARK    8  A    between atoms: C9_19  and  O4_20 
REMARK    9  A    between atoms: C10_22  and  O5_23 
REMARK   10  A    between atoms: C11_25  and  N2_26 
REMARK   11  A    between atoms: N2_26  and  C12_28 
REMARK   12  A    between atoms: C12_28  and  O6_29 
REMARK   13  A    between atoms: C12_28  and  C13_31 
REMARK   14  A    between atoms: C13_31  and  N3_32 
REMARK   15  A    between atoms: C13_31  and  C14_36 
REMARK   16  A    between atoms: C14_36  and  C15_37 
ROOT
HETATM    1  C6  UNL     1      40.197  32.985  23.575  1.00  0.00     0.064 C 
HETATM    2  C7  UNL     1      40.421  34.133  24.592  1.00  0.00     0.161 C 
HETATM    3  C8  UNL     1      40.514  35.372  23.742  1.00  0.00     0.243 C 
HETATM    4  C9  UNL     1      41.708  35.240  22.870  1.00  0.00     0.181 C 
HETATM    5  C10 UNL     1      41.865  33.971  22.124  1.00  0.00     0.172 C 
HETATM    6  C11 UNL     1      41.495  32.734  22.898  1.00  0.00     0.120 C 
ENDROOT
BRANCH   6   7
HETATM    7  N2  UNL     1      41.408  31.566  22.063  1.00  0.00    -0.388 N 
ATOM      8  H2  UNL     1      41.546  30.643  22.474  1.00  0.00     0.156 HD
BRANCH   7   9
HETATM    9  C12 UNL     1      41.137  31.676  20.702  1.00  0.00     0.244 C 
BRANCH   9  10
HETATM   10  O6  UNL     1      42.165  31.134  19.874  1.00  0.00    -0.375 OA
ATOM     11  H6  UNL     1      42.072  31.365  18.958  1.00  0.00     0.212 HD
ENDBRANCH   9  10
BRANCH   9  12
HETATM   12  C13 UNL     1      39.902  30.844  20.292  1.00  0.00     0.231 C 
BRANCH  12  13
HETATM   13  N3  UNL     1      39.826  30.674  18.889  1.00  0.00    -0.071 N 
ATOM     14  H33 UNL     1      40.587  31.160  18.414  1.00  0.00     0.274 HD
ATOM     15  H32 UNL     1      40.055  29.717  18.617  1.00  0.00     0.274 HD
ATOM     16  H31 UNL     1      38.918  30.957  18.521  1.00  0.00     0.274 HD
ENDBRANCH  12  13
BRANCH  12  17
HETATM   17  C14 UNL     1      39.824  29.538  21.015  1.00  0.00     0.042 C 
BRANCH  17  18
HETATM   18  C15 UNL     1      38.430  29.042  21.137  1.00  0.00    -0.012 C 
HETATM   19  C16 UNL     1      37.330  30.007  20.872  1.00  0.00     0.005 C 
HETATM   20  C17 UNL     1      36.147  29.355  20.168  1.00  0.00     0.000 C 
HETATM   21  C18 UNL     1      35.820  27.987  20.656  1.00  0.00     0.000 C 
HETATM   22  C19 UNL     1      36.994  27.101  20.931  1.00  0.00     0.000 C 
HETATM   23  C20 UNL     1      38.223  27.769  20.305  1.00  0.00     0.005 C 
ENDBRANCH  17  18
ENDBRANCH  12  17
ENDBRANCH   9  12
ENDBRANCH   7   9
ENDBRANCH   6   7
BRANCH   1  24
HETATM   24  C5  UNL     1      39.591  31.853  24.307  1.00  0.00    -0.016 C 
HETATM   25  C4  UNL     1      38.495  31.213  24.129  1.00  0.00     0.041 C 
BRANCH  25  26
HETATM   26  C3  UNL     1      38.111  30.092  25.026  1.00  0.00     0.198 C 
BRANCH  26  27
HETATM   27  C2  UNL     1      36.623  29.912  24.894  1.00  0.00     0.035 C 
HETATM   28  C1  UNL     1      36.102  28.914  24.205  1.00  0.00     0.013 C 
ENDBRANCH  26  27
BRANCH  26  29
HETATM   29  O1  UNL     1      38.366  30.373  26.369  1.00  0.00    -0.359 OA
ATOM     30  H1  UNL     1      39.025  29.753  26.659  1.00  0.00     0.213 HD
ENDBRANCH  26  29
BRANCH  26  31
HETATM   31  O2  UNL     1      38.775  28.922  24.663  1.00  0.00    -0.359 OA
ATOM     32  H2  UNL     1      39.646  29.123  24.342  1.00  0.00     0.213 HD
ENDBRANCH  26  31
ENDBRANCH  25  26
ENDBRANCH   1  24
BRANCH   5  33
HETATM   33  O5  UNL     1      43.188  33.942  21.677  1.00  0.00    -0.391 OA
ATOM     34  H5  UNL     1      43.661  33.384  22.283  1.00  0.00     0.210 HD
ENDBRANCH   5  33
BRANCH   2  35
HETATM   35  O3  UNL     1      39.409  34.161  25.524  1.00  0.00    -0.393 OA
ATOM     36  H3  UNL     1      39.763  34.113  26.405  1.00  0.00     0.210 HD
ENDBRANCH   2  35
BRANCH   4  37
HETATM   37  O4  UNL     1      41.642  36.287  21.920  1.00  0.00    -0.391 OA
ATOM     38  H4  UNL     1      40.763  36.278  21.559  1.00  0.00     0.210 HD
ENDBRANCH   4  37
BRANCH   3  39
HETATM   39  N1  UNL     1      39.303  35.536  22.997  1.00  0.00    -0.070 N 
ATOM     40  H13 UNL     1      39.138  34.760  22.356  1.00  0.00     0.274 HD
ATOM     41  H12 UNL     1      38.474  35.423  23.580  1.00  0.00     0.274 HD
ATOM     42  H11 UNL     1      39.316  36.436  22.516  1.00  0.00     0.274 HD
ENDBRANCH   3  39
TORSDOF 16
ENDMDL
MODEL 2
REMARK VINA RESULT: -7.513697143      3.133      6.249
REMARK  16 active torsions:
REMARK  status: ('A' for Active; 'I' for Inactive)
REMARK    1  A    between atoms: C2_2  and  C3_3 
REMARK    2  A    between atoms: C3_3  and  O1_4 
REMARK    3  A    between atoms: C3_3  and  O2_6 
REMARK    4  A    between atoms: C3_3  and  C4_8 
REMARK    5  A    between atoms: C5_9  and  C6_10 
REMARK    6  A    between atoms: C7_11  and  O3_12 
REMARK    7  A    between atoms: C8_14  and  N1_15 
REMARK    8  A    between atoms: C9_19  and  O4_20 
REMARK    9  A    between atoms: C10_22  and  O5_23 
REMARK   10  A    between atoms: C11_25  and  N2_26 
REMARK   11  A    between atoms: N2_26  and  C12_28 
REMARK   12  A    between atoms: C12_28  and  O6_29 
REMARK   13  A    between atoms: C12_28  and  C13_31 
REMARK   14  A    between atoms: C13_31  and  N3_32 
REMARK   15  A    between atoms: C13_31  and  C14_36 
REMARK   16  A    between atoms: C14_36  and  C15_37 
ROOT
HETATM    1  C6  UNL     1      41.255  29.171  18.408  1.00  0.00     0.064 C 
HETATM    2  C7  UNL     1      41.252  29.626  16.926  1.00  0.00     0.161 C 
HETATM    3  C8  UNL     1      42.453  28.948  16.325  1.00  0.00     0.243 C 
HETATM    4  C9  UNL     1      43.663  29.475  17.004  1.00  0.00     0.181 C 
HETATM    5  C10 UNL     1      43.652  29.502  18.484  1.00  0.00     0.172 C 
HETATM    6  C11 UNL     1      42.341  29.915  19.097  1.00  0.00     0.120 C 
ENDROOT
BRANCH   6   7
HETATM    7  N2  UNL     1      42.293  29.673  20.514  1.00  0.00    -0.388 N 
ATOM      8  H2  UNL     1      42.286  28.714  20.861  1.00  0.00     0.156 HD
BRANCH   7   9
HETATM    9  C12 UNL     1      42.257  30.730  21.420  1.00  0.00     0.244 C 
BRANCH   9  10
HETATM   10  O6  UNL     1      42.343  32.012  20.798  1.00  0.00    -0.375 OA
ATOM     11  H6  UNL     1      43.149  32.473  20.997  1.00  0.00     0.212 HD
ENDBRANCH   9  10
BRANCH   9  12
HETATM   12  C13 UNL     1      40.903  30.806  22.160  1.00  0.00     0.231 C 
BRANCH  12  13
HETATM   13  N3  UNL     1      41.075  31.055  23.543  1.00  0.00    -0.071 N 
ATOM     14  H33 UNL     1      41.044  30.191  24.083  1.00  0.00     0.274 HD
ATOM     15  H32 UNL     1      42.031  31.340  23.754  1.00  0.00     0.274 HD
ATOM     16  H31 UNL     1      40.399  31.735  23.892  1.00  0.00     0.274 HD
ENDBRANCH  12  13
BRANCH  12  17
HETATM   17  C14 UNL     1      39.960  31.781  21.532  1.00  0.00     0.042 C 
BRANCH  17  18
HETATM   18  C15 UNL     1      39.184  32.545  22.542  1.00  0.00    -0.012 C 
HETATM   19  C16 UNL     1      39.372  34.020  22.585  1.00  0.00     0.005 C 
HETATM   20  C17 UNL     1      38.078  34.758  22.900  1.00  0.00     0.000 C 
HETATM   21  C18 UNL     1      37.229  34.097  23.930  1.00  0.00     0.000 C 
HETATM   22  C19 UNL     1      37.130  32.608  23.827  1.00  0.00     0.000 C 
HETATM   23  C20 UNL     1      37.688  32.210  22.458  1.00  0.00     0.005 C 
ENDBRANCH  17  18
ENDBRANCH  12  17
ENDBRANCH   9  12
ENDBRANCH   7   9
ENDBRANCH   6   7
BRANCH   1  24
HETATM   24  C5  UNL     1      39.884  29.346  18.931  1.00  0.00    -0.016 C 
HETATM   25  C4  UNL     1      39.095  28.538  19.538  1.00  0.00     0.041 C 
BRANCH  25  26
HETATM   26  C3  UNL     1      37.740  28.972  19.966  1.00  0.00     0.198 C 
BRANCH  26  27
HETATM   27  C2  UNL     1      37.636  28.702  21.443  1.00  0.00     0.035 C 
HETATM   28  C1  UNL     1      37.514  27.477  21.918  1.00  0.00     0.013 C 
ENDBRANCH  26  27
BRANCH  26  29
HETATM   29  O1  UNL     1      36.726  28.236  19.349  1.00  0.00    -0.359 OA
ATOM     30  H1  UNL     1      36.175  28.858  18.889  1.00  0.00     0.213 HD
ENDBRANCH  26  29
BRANCH  26  31
HETATM   31  O2  UNL     1      37.552  30.327  19.706  1.00  0.00    -0.359 OA
ATOM     32  H2  UNL     1      38.119  30.610  18.998  1.00  0.00     0.213 HD
ENDBRANCH  26  31
ENDBRANCH  25  26
ENDBRANCH   1  24
BRANCH   5  33
HETATM   33  O5  UNL     1      44.704  30.338  18.867  1.00  0.00    -0.391 OA
ATOM     34  H5  UNL     1      44.671  30.390  19.815  1.00  0.00     0.210 HD
ENDBRANCH   5  33
BRANCH   2  35
HETATM   35  O3  UNL     1      40.058  29.304  16.322  1.00  0.00    -0.393 OA
ATOM     36  H3  UNL     1      39.383  29.931  16.555  1.00  0.00     0.210 HD
ENDBRANCH   2  35
BRANCH   4  37
HETATM   37  O4  UNL     1      44.749  28.660  16.601  1.00  0.00    -0.391 OA
ATOM     38  H4  UNL     1      45.317  28.564  17.357  1.00  0.00     0.210 HD
ENDBRANCH   4  37
BRANCH   3  39
HETATM   39  N1  UNL     1      42.321  27.529  16.457  1.00  0.00    -0.070 N 
ATOM     40  H13 UNL     1      43.017  27.026  15.907  1.00  0.00     0.274 HD
ATOM     41  H12 UNL     1      42.599  27.202  17.382  1.00  0.00     0.274 HD
ATOM     42  H11 UNL     1      41.369  27.250  16.220  1.00  0.00     0.274 HD
ENDBRANCH   3  39
TORSDOF 16
ENDMDL
MODEL 3
REMARK VINA RESULT: -7.476021386      3.073      6.258
REMARK  16 active torsions:
REMARK  status: ('A' for Active; 'I' for Inactive)
REMARK    1  A    between atoms: C2_2  and  C3_3 
REMARK    2  A    between atoms: C3_3  and  O1_4 
REMARK    3  A    between atoms: C3_3  and  O2_6 
REMARK    4  A    between atoms: C3_3  and  C4_8 
REMARK    5  A    between atoms: C5_9  and  C6_10 
REMARK    6  A    between atoms: C7_11  and  O3_12 
REMARK    7  A    between atoms: C8_14  and  N1_15 
REMARK    8  A    between atoms: C9_19  and  O4_20 
REMARK    9  A    between atoms: C10_22  and  O5_23 
REMARK   10  A    between atoms: C11_25  and  N2_26 
REMARK   11  A    between atoms: N2_26  and  C12_28 
REMARK   12  A    between atoms: C12_28  and  O6_29 
REMARK   13  A    between atoms: C12_28  and  C13_31 
REMARK   14  A    between atoms: C13_31  and  N3_32 
REMARK   15  A    between atoms: C13_31  and  C14_36 
REMARK   16  A    between atoms: C14_36  and  C15_37 
ROOT
HETATM    1  C6  UNL     1      42.376  29.644  19.009  1.00  0.00     0.064 C 
HETATM    2  C7  UNL     1      43.555  28.679  18.726  1.00  0.00     0.161 C 
HETATM    3  C8  UNL     1      43.879  28.903  17.273  1.00  0.00     0.243 C 
HETATM    4  C9  UNL     1      42.698  28.492  16.473  1.00  0.00     0.181 C 
HETATM    5  C10 UNL     1      41.379  29.016  16.895  1.00  0.00     0.172 C 
HETATM    6  C11 UNL     1      41.163  29.057  18.383  1.00  0.00     0.120 C 
ENDROOT
BRANCH   6   7
HETATM    7  N2  UNL     1      39.994  29.810  18.752  1.00  0.00    -0.388 N 
ATOM      8  H2  UNL     1      39.919  30.789  18.476  1.00  0.00     0.156 HD
BRANCH   7   9
HETATM    9  C12 UNL     1      38.963  29.221  19.479  1.00  0.00     0.244 C 
BRANCH   9  10
HETATM   10  O6  UNL     1      39.299  27.934  19.995  1.00  0.00    -0.375 OA
ATOM     11  H6  UNL     1      38.539  27.406  20.214  1.00  0.00     0.212 HD
ENDBRANCH   9  10
BRANCH   9  12
HETATM   12  C13 UNL     1      38.633  30.021  20.759  1.00  0.00     0.231 C 
BRANCH  12  13
HETATM   13  N3  UNL     1      39.060  31.368  20.660  1.00  0.00    -0.071 N 
ATOM     14  H33 UNL     1      40.049  31.428  20.420  1.00  0.00     0.274 HD
ATOM     15  H32 UNL     1      38.667  31.823  19.836  1.00  0.00     0.274 HD
ATOM     16  H31 UNL     1      38.852  31.893  21.510  1.00  0.00     0.274 HD
ENDBRANCH  12  13
BRANCH  12  17
HETATM   17  C14 UNL     1      37.191  29.922  21.141  1.00  0.00     0.042 C 
BRANCH  17  18
HETATM   18  C15 UNL     1      37.009  29.652  22.590  1.00  0.00    -0.012 C 
HETATM   19  C16 UNL     1      37.774  28.522  23.182  1.00  0.00     0.005 C 
HETATM   20  C17 UNL     1      38.245  28.822  24.599  1.00  0.00     0.000 C 
HETATM   21  C18 UNL     1      37.250  29.551  25.434  1.00  0.00     0.000 C 
HETATM   22  C19 UNL     1      36.503  30.647  24.741  1.00  0.00     0.000 C 
HETATM   23  C20 UNL     1      37.227  30.924  23.420  1.00  0.00     0.005 C 
ENDBRANCH  17  18
ENDBRANCH  12  17
ENDBRANCH   9  12
ENDBRANCH   7   9
ENDBRANCH   6   7
BRANCH   1  24
HETATM   24  C5  UNL     1      42.332  29.879  20.468  1.00  0.00    -0.016 C 
HETATM   25  C4  UNL     1      42.430  30.953  21.161  1.00  0.00     0.041 C 
BRANCH  25  26
HETATM   26  C3  UNL     1      42.353  30.915  22.644  1.00  0.00     0.198 C 
BRANCH  26  27
HETATM   27  C2  UNL     1      42.887  32.228  23.148  1.00  0.00     0.035 C 
HETATM   28  C1  UNL     1      42.904  33.308  22.389  1.00  0.00     0.013 C 
ENDBRANCH  26  27
BRANCH  26  29
HETATM   29  O1  UNL     1      43.157  29.914  23.194  1.00  0.00    -0.359 OA
ATOM     30  H1  UNL     1      42.676  29.545  23.925  1.00  0.00     0.213 HD
ENDBRANCH  26  29
BRANCH  26  31
HETATM   31  O2  UNL     1      41.037  30.734  23.064  1.00  0.00    -0.359 OA
ATOM     32  H2  UNL     1      40.511  30.374  22.360  1.00  0.00     0.213 HD
ENDBRANCH  26  31
ENDBRANCH  25  26
ENDBRANCH   1  24
BRANCH   5  33
HETATM   33  O5  UNL     1      40.422  28.237  16.240  1.00  0.00    -0.391 OA
ATOM     34  H5  UNL     1      39.909  28.835  15.710  1.00  0.00     0.210 HD
ENDBRANCH   5  33
BRANCH   2  35
HETATM   35  O3  UNL     1      44.602  28.927  19.584  1.00  0.00    -0.393 OA
ATOM     36  H3  UNL     1      45.157  28.160  19.667  1.00  0.00     0.210 HD
ENDBRANCH   2  35
BRANCH   4  37
HETATM   37  O4  UNL     1      42.926  28.931  15.147  1.00  0.00    -0.391 OA
ATOM     38  H4  UNL     1      43.431  28.253  14.715  1.00  0.00     0.210 HD
ENDBRANCH   4  37
BRANCH   3  39
HETATM   39  N1  UNL     1      44.237  30.273  17.065  1.00  0.00    -0.070 N 
ATOM     40  H13 UNL     1      44.724  30.669  17.869  1.00  0.00     0.274 HD
ATOM     41  H12 UNL     1      44.982  30.375  16.376  1.00  0.00     0.274 HD
ATOM     42  H11 UNL     1      43.406  30.810  16.815  1.00  0.00     0.274 HD
ENDBRANCH   3  39
TORSDOF 16
ENDMDL
MODEL 4
REMARK VINA RESULT: -7.445994738      3.045      6.153
REMARK  16 active torsions:
REMARK  status: ('A' for Active; 'I' for Inactive)
REMARK    1  A    between atoms: C2_2  and  C3_3 
REMARK    2  A    between atoms: C3_3  and  O1_4 
REMARK    3  A    between atoms: C3_3  and  O2_6 
REMARK    4  A    between atoms: C3_3  and  C4_8 
REMARK    5  A    between atoms: C5_9  and  C6_10 
REMARK    6  A    between atoms: C7_11  and  O3_12 
REMARK    7  A    between atoms: C8_14  and  N1_15 
REMARK    8  A    between atoms: C9_19  and  O4_20 
REMARK    9  A    between atoms: C10_22  and  O5_23 
REMARK   10  A    between atoms: C11_25  and  N2_26 
REMARK   11  A    between atoms: N2_26  and  C12_28 
REMARK   12  A    between atoms: C12_28  and  O6_29 
REMARK   13  A    between atoms: C12_28  and  C13_31 
REMARK   14  A    between atoms: C13_31  and  N3_32 
REMARK   15  A    between atoms: C13_31  and  C14_36 
REMARK   16  A    between atoms: C14_36  and  C15_37 
ROOT
HETATM    1  C6  UNL     1      41.375  29.237  18.445  1.00  0.00     0.064 C 
HETATM    2  C7  UNL     1      41.351  29.598  16.938  1.00  0.00     0.161 C 
HETATM    3  C8  UNL     1      42.536  28.870  16.361  1.00  0.00     0.243 C 
HETATM    4  C9  UNL     1      43.762  29.425  16.986  1.00  0.00     0.181 C 
HETATM    5  C10 UNL     1      43.775  29.545  18.461  1.00  0.00     0.172 C 
HETATM    6  C11 UNL     1      42.479  30.011  19.068  1.00  0.00     0.120 C 
ENDROOT
BRANCH   6   7
HETATM    7  N2  UNL     1      42.453  29.859  20.498  1.00  0.00    -0.388 N 
ATOM      8  H2  UNL     1      42.291  28.937  20.904  1.00  0.00     0.156 HD
BRANCH   7   9
HETATM    9  C12 UNL     1      42.644  30.953  21.338  1.00  0.00     0.244 C 
BRANCH   9  10
HETATM   10  O6  UNL     1      42.109  32.168  20.815  1.00  0.00    -0.375 OA
ATOM     11  H6  UNL     1      41.608  32.664  21.452  1.00  0.00     0.212 HD
ENDBRANCH   9  10
BRANCH   9  12
HETATM   12  C13 UNL     1      41.880  30.795  22.671  1.00  0.00     0.231 C 
BRANCH  12  13
HETATM   13  N3  UNL     1      42.761  30.575  23.758  1.00  0.00    -0.071 N 
ATOM     14  H33 UNL     1      43.667  30.234  23.439  1.00  0.00     0.274 HD
ATOM     15  H32 UNL     1      43.061  31.455  24.178  1.00  0.00     0.274 HD
ATOM     16  H31 UNL     1      42.354  29.951  24.454  1.00  0.00     0.274 HD
ENDBRANCH  12  13
BRANCH  12  17
HETATM   17  C14 UNL     1      40.946  31.932  22.935  1.00  0.00     0.042 C 
BRANCH  17  18
HETATM   18  C15 UNL     1      39.552  31.474  23.166  1.00  0.00    -0.012 C 
HETATM   19  C16 UNL     1      39.329  30.450  24.221  1.00  0.00     0.005 C 
HETATM   20  C17 UNL     1      38.027  30.675  24.980  1.00  0.00     0.000 C 
HETATM   21  C18 UNL     1      36.887  31.108  24.125  1.00  0.00     0.000 C 
HETATM   22  C19 UNL     1      37.217  32.113  23.068  1.00  0.00     0.000 C 
HETATM   23  C20 UNL     1      38.610  32.666  23.385  1.00  0.00     0.005 C 
ENDBRANCH  17  18
ENDBRANCH  12  17
ENDBRANCH   9  12
ENDBRANCH   7   9
ENDBRANCH   6   7
BRANCH   1  24
HETATM   24  C5  UNL     1      40.015  29.459  18.978  1.00  0.00    -0.016 C 
HETATM   25  C4  UNL     1      39.225  28.697  19.641  1.00  0.00     0.041 C 
BRANCH  25  26
HETATM   26  C3  UNL     1      37.882  29.172  20.064  1.00  0.00     0.198 C 
BRANCH  26  27
HETATM   27  C2  UNL     1      37.687  28.731  21.489  1.00  0.00     0.035 C 
HETATM   28  C1  UNL     1      37.547  27.458  21.809  1.00  0.00     0.013 C 
ENDBRANCH  26  27
BRANCH  26  29
HETATM   29  O1  UNL     1      36.853  28.595  19.318  1.00  0.00    -0.359 OA
ATOM     30  H1  UNL     1      36.096  29.162  19.407  1.00  0.00     0.213 HD
ENDBRANCH  26  29
BRANCH  26  31
HETATM   31  O2  UNL     1      37.799  30.560  19.970  1.00  0.00    -0.359 OA
ATOM     32  H2  UNL     1      36.942  30.819  19.653  1.00  0.00     0.213 HD
ENDBRANCH  26  31
ENDBRANCH  25  26
ENDBRANCH   1  24
BRANCH   5  33
HETATM   33  O5  UNL     1      44.842  30.392  18.774  1.00  0.00    -0.391 OA
ATOM     34  H5  UNL     1      45.095  30.184  19.666  1.00  0.00     0.210 HD
ENDBRANCH   5  33
BRANCH   2  35
HETATM   35  O3  UNL     1      40.144  29.251  16.374  1.00  0.00    -0.393 OA
ATOM     36  H3  UNL     1      40.042  29.659  15.522  1.00  0.00     0.210 HD
ENDBRANCH   2  35
BRANCH   4  37
HETATM   37  O4  UNL     1      44.833  28.575  16.618  1.00  0.00    -0.391 OA
ATOM     38  H4  UNL     1      44.828  28.519  15.670  1.00  0.00     0.210 HD
ENDBRANCH   4  37
BRANCH   3  39
HETATM   39  N1  UNL     1      42.392  27.464  16.584  1.00  0.00    -0.070 N 
ATOM     40  H13 UNL     1      43.292  26.997  16.693  1.00  0.00     0.274 HD
ATOM     41  H12 UNL     1      42.008  27.259  17.507  1.00  0.00     0.274 HD
ATOM     42  H11 UNL     1      41.834  27.053  15.835  1.00  0.00     0.274 HD
ENDBRANCH   3  39
TORSDOF 16
ENDMDL
MODEL 5
REMARK VINA RESULT: -7.410603389      3.157      6.474
REMARK  16 active torsions:
REMARK  status: ('A' for Active; 'I' for Inactive)
REMARK    1  A    between atoms: C2_2  and  C3_3 
REMARK    2  A    between atoms: C3_3  and  O1_4 
REMARK    3  A    between atoms: C3_3  and  O2_6 
REMARK    4  A    between atoms: C3_3  and  C4_8 
REMARK    5  A    between atoms: C5_9  and  C6_10 
REMARK    6  A    between atoms: C7_11  and  O3_12 
REMARK    7  A    between atoms: C8_14  and  N1_15 
REMARK    8  A    between atoms: C9_19  and  O4_20 
REMARK    9  A    between atoms: C10_22  and  O5_23 
REMARK   10  A    between atoms: C11_25  and  N2_26 
REMARK   11  A    between atoms: N2_26  and  C12_28 
REMARK   12  A    between atoms: C12_28  and  O6_29 
REMARK   13  A    between atoms: C12_28  and  C13_31 
REMARK   14  A    between atoms: C13_31  and  N3_32 
REMARK   15  A    between atoms: C13_31  and  C14_36 
REMARK   16  A    between atoms: C14_36  and  C15_37 
ROOT
HETATM    1  C6  UNL     1      42.383  29.665  19.162  1.00  0.00     0.064 C 
HETATM    2  C7  UNL     1      43.521  28.685  18.780  1.00  0.00     0.161 C 
HETATM    3  C8  UNL     1      43.761  28.945  17.317  1.00  0.00     0.243 C 
HETATM    4  C9  UNL     1      42.525  28.583  16.580  1.00  0.00     0.181 C 
HETATM    5  C10 UNL     1      41.246  29.121  17.096  1.00  0.00     0.172 C 
HETATM    6  C11 UNL     1      41.121  29.122  18.595  1.00  0.00     0.120 C 
ENDROOT
BRANCH   6   7
HETATM    7  N2  UNL     1      39.994  29.887  19.056  1.00  0.00    -0.388 N 
ATOM      8  H2  UNL     1      39.952  30.888  18.861  1.00  0.00     0.156 HD
BRANCH   7   9
HETATM    9  C12 UNL     1      38.959  29.283  19.763  1.00  0.00     0.244 C 
BRANCH   9  10
HETATM   10  O6  UNL     1      39.369  28.120  20.483  1.00  0.00    -0.375 OA
ATOM     11  H6  UNL     1      38.845  27.352  20.288  1.00  0.00     0.212 HD
ENDBRANCH   9  10
BRANCH   9  12
HETATM   12  C13 UNL     1      38.417  30.198  20.883  1.00  0.00     0.231 C 
BRANCH  12  13
HETATM   13  N3  UNL     1      38.629  29.638  22.167  1.00  0.00    -0.071 N 
ATOM     14  H33 UNL     1      38.441  28.636  22.171  1.00  0.00     0.274 HD
ATOM     15  H32 UNL     1      39.621  29.614  22.402  1.00  0.00     0.274 HD
ATOM     16  H31 UNL     1      38.089  30.121  22.884  1.00  0.00     0.274 HD
ENDBRANCH  12  13
BRANCH  12  17
HETATM   17  C14 UNL     1      38.946  31.593  20.791  1.00  0.00     0.042 C 
BRANCH  17  18
HETATM   18  C15 UNL     1      38.760  32.351  22.054  1.00  0.00    -0.012 C 
HETATM   19  C16 UNL     1      39.681  33.489  22.317  1.00  0.00     0.005 C 
HETATM   20  C17 UNL     1      38.982  34.651  23.010  1.00  0.00     0.000 C 
HETATM   21  C18 UNL     1      38.004  34.242  24.056  1.00  0.00     0.000 C 
HETATM   22  C19 UNL     1      37.147  33.065  23.715  1.00  0.00     0.000 C 
HETATM   23  C20 UNL     1      37.304  32.809  22.213  1.00  0.00     0.005 C 
ENDBRANCH  17  18
ENDBRANCH  12  17
ENDBRANCH   9  12
ENDBRANCH   7   9
ENDBRANCH   6   7
BRANCH   1  24
HETATM   24  C5  UNL     1      42.432  29.858  20.627  1.00  0.00    -0.016 C 
HETATM   25  C4  UNL     1      42.420  30.918  21.347  1.00  0.00     0.041 C 
BRANCH  25  26
HETATM   26  C3  UNL     1      42.483  30.835  22.830  1.00  0.00     0.198 C 
BRANCH  26  27
HETATM   27  C2  UNL     1      42.946  32.177  23.327  1.00  0.00     0.035 C 
HETATM   28  C1  UNL     1      43.400  33.104  22.504  1.00  0.00     0.013 C 
ENDBRANCH  26  27
BRANCH  26  29
HETATM   29  O1  UNL     1      43.417  29.896  23.271  1.00  0.00    -0.359 OA
ATOM     30  H1  UNL     1      43.197  29.692  24.172  1.00  0.00     0.213 HD
ENDBRANCH  26  29
BRANCH  26  31
HETATM   31  O2  UNL     1      41.231  30.527  23.359  1.00  0.00    -0.359 OA
ATOM     32  H2  UNL     1      40.548  30.726  22.730  1.00  0.00     0.213 HD
ENDBRANCH  26  31
ENDBRANCH  25  26
ENDBRANCH   1  24
BRANCH   5  33
HETATM   33  O5  UNL     1      40.234  28.381  16.479  1.00  0.00    -0.391 OA
ATOM     34  H5  UNL     1      39.647  29.013  16.080  1.00  0.00     0.210 HD
ENDBRANCH   5  33
BRANCH   2  35
HETATM   35  O3  UNL     1      44.623  28.886  19.579  1.00  0.00    -0.393 OA
ATOM     36  H3  UNL     1      44.642  28.256  20.290  1.00  0.00     0.210 HD
ENDBRANCH   2  35
BRANCH   4  37
HETATM   37  O4  UNL     1      42.682  29.056  15.255  1.00  0.00    -0.391 OA
ATOM     38  H4  UNL     1      42.177  28.479  14.694  1.00  0.00     0.210 HD
ENDBRANCH   4  37
BRANCH   3  39
HETATM   39  N1  UNL     1      44.136  30.313  17.126  1.00  0.00    -0.070 N 
ATOM     40  H13 UNL     1      45.145  30.425  17.032  1.00  0.00     0.274 HD
ATOM     41  H12 UNL     1      43.863  30.661  16.208  1.00  0.00     0.274 HD
ATOM     42  H11 UNL     1      43.755  30.881  17.883  1.00  0.00     0.274 HD
ENDBRANCH   3  39
TORSDOF 16
ENDMDL
