MODEL 1
REMARK VINA RESULT: -8.559842270      0.000      0.000
REMARK  12 active torsions:
REMARK  status: ('A' for Active; 'I' for Inactive)
REMARK    1  A    between atoms: N1_1  and  C1_4 
REMARK    2  A    between atoms: C2_7  and  N3_8 
REMARK    3  A    between atoms: C6_16  and  N6_17 
REMARK    4  A    between atoms: N6_17  and  N7_18 
REMARK    5  A    between atoms: N6_17  and  C7_21 
REMARK    6  A    between atoms: C7_21  and  C8_22 
REMARK    7  A    between atoms: C8_22  and  N8_23 
REMARK    8  A    between atoms: N8_23  and  C9_24 
REMARK    9  A    between atoms: N8_23  and  C11_30 
REMARK   10  A    between atoms: C9_24  and  C10_25 
REMARK   11  A    between atoms: C10_25  and  N9_26 
REMARK   12  A    between atoms: C14_33  and  O1_34 
ROOT
HETATM    1  C1  UNL     1      42.811  28.508  15.399  1.00  0.00     0.679 A 
HETATM    2  N2  UNL     1      43.979  28.825  15.980  1.00  0.00    -0.176 N 
ATOM      3  H2  UNL     1      44.843  28.801  15.437  1.00  0.00     0.186 HD
HETATM    4  C2  UNL     1      44.010  29.176  17.283  1.00  0.00     0.130 A 
HETATM    5  C3  UNL     1      42.840  29.207  18.016  1.00  0.00     0.079 A 
HETATM    6  C4  UNL     1      42.789  29.550  19.347  1.00  0.00     0.092 A 
HETATM    7  N4  UNL     1      44.026  29.889  19.967  1.00  0.00    -0.099 NA
HETATM    8  C5  UNL     1      41.589  29.564  20.043  1.00  0.00     0.117 A 
HETATM    9  N5  UNL     1      41.591  29.917  21.415  1.00  0.00    -0.096 NA
HETATM   10  C6  UNL     1      40.415  29.233  19.413  1.00  0.00     0.150 A 
HETATM   11  N10 UNL     1      40.479  28.896  18.100  1.00  0.00    -0.325 N 
ATOM     12  H10 UNL     1      39.620  28.646  17.611  1.00  0.00     0.169 HD
HETATM   13  C17 UNL     1      41.637  28.882  17.426  1.00  0.00     0.138 A 
HETATM   14  N11 UNL     1      41.667  28.535  16.103  1.00  0.00    -0.176 N 
ATOM     15  H11 UNL     1      40.793  28.290  15.636  1.00  0.00     0.186 HD
ENDROOT
BRANCH  10  16
HETATM   16  N6  UNL     1      39.137  29.223  20.079  1.00  0.00    -0.280 N 
BRANCH  16  17
HETATM   17  N7  UNL     1      38.673  27.960  20.451  1.00  0.00    -0.341 N 
ATOM     18  H72 UNL     1      38.583  27.709  21.435  1.00  0.00     0.177 HD
ATOM     19  H71 UNL     1      38.442  27.338  19.676  1.00  0.00     0.177 HD
ENDBRANCH  16  17
BRANCH  16  20
HETATM   20  C7  UNL     1      38.363  30.401  20.361  1.00  0.00     0.180 C 
BRANCH  20  21
HETATM   21  C8  UNL     1      37.242  30.175  21.332  1.00  0.00     0.294 C 
BRANCH  21  22
HETATM   22  N8  UNL     1      37.462  30.819  22.623  1.00  0.00     0.096 N 
BRANCH  22  23
HETATM   23  C9  UNL     1      38.194  29.933  23.508  1.00  0.00     0.300 C 
BRANCH  23  24
HETATM   24  C10 UNL     1      37.507  28.657  23.836  1.00  0.00     0.259 C 
BRANCH  24  25
HETATM   25  N9  UNL     1      36.254  28.935  24.561  1.00  0.00    -0.078 N 
ATOM     26  H93 UNL     1      35.860  28.094  24.981  1.00  0.00     0.274 HD
ATOM     27  H92 UNL     1      36.416  29.467  25.417  1.00  0.00     0.274 HD
ATOM     28  H91 UNL     1      35.592  29.400  23.941  1.00  0.00     0.274 HD
ENDBRANCH  24  25
ENDBRANCH  23  24
ENDBRANCH  22  23
BRANCH  22  29
HETATM   29  C11 UNL     1      38.225  32.051  22.423  1.00  0.00     0.223 C 
HETATM   30  C12 UNL     1      37.332  33.264  22.575  1.00  0.00     0.038 C 
HETATM   31  C13 UNL     1      38.106  34.521  22.767  1.00  0.00     0.034 C 
HETATM   32  C14 UNL     1      39.589  34.343  22.525  1.00  0.00     0.118 C 
HETATM   33  C15 UNL     1      40.156  33.323  23.460  1.00  0.00     0.034 C 
HETATM   34  C16 UNL     1      39.264  32.102  23.512  1.00  0.00     0.038 C 
BRANCH  32  35
HETATM   35  O1  UNL     1      40.194  35.571  22.796  1.00  0.00    -0.396 OA
ATOM     36  H1  UNL     1      40.135  36.089  22.002  1.00  0.00     0.210 HD
ENDBRANCH  32  35
ENDBRANCH  22  29
ENDBRANCH  21  22
ENDBRANCH  20  21
ENDBRANCH  16  20
ENDBRANCH  10  16
BRANCH   4  37
HETATM   37  N3  UNL     1      45.121  29.485  17.860  1.00  0.00    -0.384 N 
ATOM     38  H32 UNL     1      45.767  28.741  18.125  1.00  0.00     0.157 HD
ATOM     39  H31 UNL     1      45.358  30.458  18.054  1.00  0.00     0.157 HD
ENDBRANCH   4  37
BRANCH   1  40
HETATM   40  N1  UNL     1      42.776  28.171  14.151  1.00  0.00    -0.234 N 
ATOM     41  H12 UNL     1      43.168  28.803  13.453  1.00  0.00     0.174 HD
ATOM     42  H11 UNL     1      42.359  27.282  13.871  1.00  0.00     0.174 HD
ENDBRANCH   1  40
TORSDOF 12
ENDMDL
MODEL 2
REMARK VINA RESULT: -8.335076672      2.045      2.728
REMARK  12 active torsions:
REMARK  status: ('A' for Active; 'I' for Inactive)
REMARK    1  A    between atoms: N1_1  and  C1_4 
REMARK    2  A    between atoms: C2_7  and  N3_8 
REMARK    3  A    between atoms: C6_16  and  N6_17 
REMARK    4  A    between atoms: N6_17  and  N7_18 
REMARK    5  A    between atoms: N6_17  and  C7_21 
REMARK    6  A    between atoms: C7_21  and  C8_22 
REMARK    7  A    between atoms: C8_22  and  N8_23 
REMARK    8  A    between atoms: N8_23  and  C9_24 
REMARK    9  A    between atoms: N8_23  and  C11_30 
REMARK   10  A    between atoms: C9_24  and  C10_25 
REMARK   11  A    between atoms: C10_25  and  N9_26 
REMARK   12  A    between atoms: C14_33  and  O1_34 
ROOT
HETATM    1  C1  UNL     1      42.750  28.290  15.124  1.00  0.00     0.679 A 
HETATM    2  N2  UNL     1      44.044  28.485  15.423  1.00  0.00    -0.176 N 
ATOM      3  H2  UNL     1      44.765  28.281  14.730  1.00  0.00     0.186 HD
HETATM    4  C2  UNL     1      44.391  28.950  16.641  1.00  0.00     0.130 A 
HETATM    5  C3  UNL     1      43.414  29.223  17.578  1.00  0.00     0.079 A 
HETATM    6  C4  UNL     1      43.687  29.696  18.842  1.00  0.00     0.092 A 
HETATM    7  N4  UNL     1      45.060  29.905  19.161  1.00  0.00    -0.099 NA
HETATM    8  C5  UNL     1      42.672  29.954  19.750  1.00  0.00     0.117 A 
HETATM    9  N5  UNL     1      43.006  30.432  21.042  1.00  0.00    -0.096 NA
HETATM   10  C6  UNL     1      41.360  29.742  19.407  1.00  0.00     0.150 A 
HETATM   11  N10 UNL     1      41.104  29.275  18.158  1.00  0.00    -0.325 N 
ATOM     12  H10 UNL     1      40.137  29.110  17.881  1.00  0.00     0.169 HD
HETATM   13  C17 UNL     1      42.083  29.026  17.279  1.00  0.00     0.138 A 
HETATM   14  N11 UNL     1      41.791  28.553  16.028  1.00  0.00    -0.176 N 
ATOM     15  H11 UNL     1      40.815  28.396  15.774  1.00  0.00     0.186 HD
ENDROOT
BRANCH  10  16
HETATM   16  N6  UNL     1      40.259  29.985  20.305  1.00  0.00    -0.280 N 
BRANCH  16  17
HETATM   17  N7  UNL     1      40.235  31.256  20.882  1.00  0.00    -0.341 N 
ATOM     18  H72 UNL     1      39.367  31.789  20.929  1.00  0.00     0.177 HD
ATOM     19  H71 UNL     1      41.132  31.587  21.236  1.00  0.00     0.177 HD
ENDBRANCH  16  17
BRANCH  16  20
HETATM   20  C7  UNL     1      39.237  29.022  20.611  1.00  0.00     0.180 C 
BRANCH  20  21
HETATM   21  C8  UNL     1      37.844  29.505  20.339  1.00  0.00     0.294 C 
BRANCH  21  22
HETATM   22  N8  UNL     1      36.936  29.305  21.465  1.00  0.00     0.096 N 
BRANCH  22  23
HETATM   23  C9  UNL     1      36.511  27.920  21.526  1.00  0.00     0.300 C 
BRANCH  23  24
HETATM   24  C10 UNL     1      35.819  27.415  20.312  1.00  0.00     0.259 C 
BRANCH  24  25
HETATM   25  N9  UNL     1      34.635  28.247  20.030  1.00  0.00    -0.078 N 
ATOM     26  H93 UNL     1      34.666  29.139  20.523  1.00  0.00     0.274 HD
ATOM     27  H92 UNL     1      34.637  28.605  19.075  1.00  0.00     0.274 HD
ATOM     28  H91 UNL     1      33.785  27.723  20.240  1.00  0.00     0.274 HD
ENDBRANCH  24  25
ENDBRANCH  23  24
ENDBRANCH  22  23
BRANCH  22  29
HETATM   29  C11 UNL     1      37.623  29.662  22.706  1.00  0.00     0.223 C 
HETATM   30  C12 UNL     1      37.475  31.140  22.994  1.00  0.00     0.038 C 
HETATM   31  C13 UNL     1      37.807  31.482  24.404  1.00  0.00     0.034 C 
HETATM   32  C14 UNL     1      38.444  30.334  25.155  1.00  0.00     0.118 C 
HETATM   33  C15 UNL     1      37.528  29.153  25.187  1.00  0.00     0.034 C 
HETATM   34  C16 UNL     1      36.942  28.904  23.815  1.00  0.00     0.038 C 
BRANCH  32  35
HETATM   35  O1  UNL     1      38.646  30.768  26.465  1.00  0.00    -0.396 OA
ATOM     36  H1  UNL     1      39.277  30.177  26.859  1.00  0.00     0.210 HD
ENDBRANCH  32  35
ENDBRANCH  22  29
ENDBRANCH  21  22
ENDBRANCH  20  21
ENDBRANCH  16  20
ENDBRANCH  10  16
BRANCH   4  37
HETATM   37  N3  UNL     1      45.629  29.145  16.949  1.00  0.00    -0.384 N 
ATOM     38  H32 UNL     1      45.889  29.999  17.443  1.00  0.00     0.157 HD
ATOM     39  H31 UNL     1      46.343  28.459  16.705  1.00  0.00     0.157 HD
ENDBRANCH   4  37
BRANCH   1  40
HETATM   40  N1  UNL     1      42.411  27.844  13.958  1.00  0.00    -0.234 N 
ATOM     41  H12 UNL     1      41.812  28.415  13.362  1.00  0.00     0.174 HD
ATOM     42  H11 UNL     1      42.740  26.931  13.644  1.00  0.00     0.174 HD
ENDBRANCH   1  40
TORSDOF 12
ENDMDL
MODEL 3
REMARK VINA RESULT: -8.306404150      1.984      3.045
REMARK  12 active torsions:
REMARK  status: ('A' for Active; 'I' for Inactive)
REMARK    1  A    between atoms: N1_1  and  C1_4 
REMARK    2  A    between atoms: C2_7  and  N3_8 
REMARK    3  A    between atoms: C6_16  and  N6_17 
REMARK    4  A    between atoms: N6_17  and  N7_18 
REMARK    5  A    between atoms: N6_17  and  C7_21 
REMARK    6  A    between atoms: C7_21  and  C8_22 
REMARK    7  A    between atoms: C8_22  and  N8_23 
REMARK    8  A    between atoms: N8_23  and  C9_24 
REMARK    9  A    between atoms: N8_23  and  C11_30 
REMARK   10  A    between atoms: C9_24  and  C10_25 
REMARK   11  A    between atoms: C10_25  and  N9_26 
REMARK   12  A    between atoms: C14_33  and  O1_34 
ROOT
HETATM    1  C1  UNL     1      43.106  28.791  15.316  1.00  0.00     0.679 A 
HETATM    2  N2  UNL     1      44.265  28.881  15.988  1.00  0.00    -0.176 N 
ATOM      3  H2  UNL     1      45.151  28.744  15.500  1.00  0.00     0.186 HD
HETATM    4  C2  UNL     1      44.257  29.152  17.310  1.00  0.00     0.130 A 
HETATM    5  C3  UNL     1      43.057  29.335  17.968  1.00  0.00     0.079 A 
HETATM    6  C4  UNL     1      42.966  29.611  19.313  1.00  0.00     0.092 A 
HETATM    7  N4  UNL     1      44.194  29.709  20.030  1.00  0.00    -0.099 NA
HETATM    8  C5  UNL     1      41.737  29.785  19.932  1.00  0.00     0.117 A 
HETATM    9  N5  UNL     1      41.697  30.060  21.322  1.00  0.00    -0.096 NA
HETATM   10  C6  UNL     1      40.574  29.686  19.210  1.00  0.00     0.150 A 
HETATM   11  N10 UNL     1      40.678  29.413  17.884  1.00  0.00    -0.325 N 
ATOM     12  H10 UNL     1      39.827  29.334  17.328  1.00  0.00     0.169 HD
HETATM   13  C17 UNL     1      41.864  29.245  17.285  1.00  0.00     0.138 A 
HETATM   14  N11 UNL     1      41.933  28.969  15.946  1.00  0.00    -0.176 N 
ATOM     15  H11 UNL     1      41.068  28.895  15.411  1.00  0.00     0.186 HD
ENDROOT
BRANCH  10  16
HETATM   16  N6  UNL     1      39.266  29.851  19.792  1.00  0.00    -0.280 N 
BRANCH  16  17
HETATM   17  N7  UNL     1      38.724  28.700  20.368  1.00  0.00    -0.341 N 
ATOM     18  H72 UNL     1      38.253  28.003  19.792  1.00  0.00     0.177 HD
ATOM     19  H71 UNL     1      38.839  28.627  21.379  1.00  0.00     0.177 HD
ENDBRANCH  16  17
BRANCH  16  20
HETATM   20  C7  UNL     1      38.536  31.089  19.805  1.00  0.00     0.180 C 
BRANCH  20  21
HETATM   21  C8  UNL     1      37.879  31.395  21.117  1.00  0.00     0.294 C 
BRANCH  21  22
HETATM   22  N8  UNL     1      38.826  31.504  22.223  1.00  0.00     0.096 N 
BRANCH  22  23
HETATM   23  C9  UNL     1      38.745  32.821  22.825  1.00  0.00     0.300 C 
BRANCH  23  24
HETATM   24  C10 UNL     1      37.598  33.652  22.378  1.00  0.00     0.259 C 
BRANCH  24  25
HETATM   25  N9  UNL     1      36.718  33.947  23.524  1.00  0.00    -0.078 N 
ATOM     26  H93 UNL     1      37.200  33.838  24.416  1.00  0.00     0.274 HD
ATOM     27  H92 UNL     1      36.500  34.941  23.594  1.00  0.00     0.274 HD
ATOM     28  H91 UNL     1      35.877  33.373  23.471  1.00  0.00     0.274 HD
ENDBRANCH  24  25
ENDBRANCH  23  24
ENDBRANCH  22  23
BRANCH  22  29
HETATM   29  C11 UNL     1      38.514  30.486  23.226  1.00  0.00     0.223 C 
HETATM   30  C12 UNL     1      38.799  31.003  24.619  1.00  0.00     0.038 C 
HETATM   31  C13 UNL     1      38.151  30.180  25.677  1.00  0.00     0.034 C 
HETATM   32  C14 UNL     1      37.565  28.890  25.145  1.00  0.00     0.118 C 
HETATM   33  C15 UNL     1      36.532  29.173  24.102  1.00  0.00     0.034 C 
HETATM   34  C16 UNL     1      37.036  30.214  23.127  1.00  0.00     0.038 C 
BRANCH  32  35
HETATM   35  O1  UNL     1      36.944  28.253  26.218  1.00  0.00    -0.396 OA
ATOM     36  H1  UNL     1      37.549  27.593  26.536  1.00  0.00     0.210 HD
ENDBRANCH  32  35
ENDBRANCH  22  29
ENDBRANCH  21  22
ENDBRANCH  20  21
ENDBRANCH  16  20
ENDBRANCH  10  16
BRANCH   4  37
HETATM   37  N3  UNL     1      45.359  29.243  17.975  1.00  0.00    -0.384 N 
ATOM     38  H32 UNL     1      46.208  28.831  17.587  1.00  0.00     0.157 HD
ATOM     39  H31 UNL     1      45.389  29.719  18.876  1.00  0.00     0.157 HD
ENDBRANCH   4  37
BRANCH   1  40
HETATM   40  N1  UNL     1      43.108  28.531  14.049  1.00  0.00    -0.234 N 
ATOM     41  H12 UNL     1      42.688  29.200  13.403  1.00  0.00     0.174 HD
ATOM     42  H11 UNL     1      43.523  27.665  13.704  1.00  0.00     0.174 HD
ENDBRANCH   1  40
TORSDOF 12
ENDMDL
MODEL 4
REMARK VINA RESULT: -8.283039643      1.135      2.717
REMARK  12 active torsions:
REMARK  status: ('A' for Active; 'I' for Inactive)
REMARK    1  A    between atoms: N1_1  and  C1_4 
REMARK    2  A    between atoms: C2_7  and  N3_8 
REMARK    3  A    between atoms: C6_16  and  N6_17 
REMARK    4  A    between atoms: N6_17  and  N7_18 
REMARK    5  A    between atoms: N6_17  and  C7_21 
REMARK    6  A    between atoms: C7_21  and  C8_22 
REMARK    7  A    between atoms: C8_22  and  N8_23 
REMARK    8  A    between atoms: N8_23  and  C9_24 
REMARK    9  A    between atoms: N8_23  and  C11_30 
REMARK   10  A    between atoms: C9_24  and  C10_25 
REMARK   11  A    between atoms: C10_25  and  N9_26 
REMARK   12  A    between atoms: C14_33  and  O1_34 
ROOT
HETATM    1  C1  UNL     1      45.018  30.074  20.111  1.00  0.00     0.679 A 
HETATM    2  N2  UNL     1      45.452  29.839  18.862  1.00  0.00    -0.176 N 
ATOM      3  H2  UNL     1      46.452  29.840  18.660  1.00  0.00     0.186 HD
HETATM    4  C2  UNL     1      44.564  29.604  17.874  1.00  0.00     0.130 A 
HETATM    5  C3  UNL     1      43.210  29.606  18.149  1.00  0.00     0.079 A 
HETATM    6  C4  UNL     1      42.243  29.378  17.197  1.00  0.00     0.092 A 
HETATM    7  N4  UNL     1      42.700  29.127  15.871  1.00  0.00    -0.099 NA
HETATM    8  C5  UNL     1      40.895  29.392  17.521  1.00  0.00     0.117 A 
HETATM    9  N5  UNL     1      39.938  29.159  16.502  1.00  0.00    -0.096 NA
HETATM   10  C6  UNL     1      40.491  29.636  18.810  1.00  0.00     0.150 A 
HETATM   11  N10 UNL     1      41.455  29.859  19.740  1.00  0.00    -0.325 N 
ATOM     12  H10 UNL     1      41.178  30.043  20.704  1.00  0.00     0.169 HD
HETATM   13  C17 UNL     1      42.758  29.846  19.429  1.00  0.00     0.138 A 
HETATM   14  N11 UNL     1      43.704  30.077  20.390  1.00  0.00    -0.176 N 
ATOM     15  H11 UNL     1      43.402  30.258  21.348  1.00  0.00     0.186 HD
ENDROOT
BRANCH  10  16
HETATM   16  N6  UNL     1      39.107  29.669  19.212  1.00  0.00    -0.280 N 
BRANCH  16  17
HETATM   17  N7  UNL     1      38.438  28.446  19.135  1.00  0.00    -0.341 N 
ATOM     18  H72 UNL     1      37.716  28.205  19.813  1.00  0.00     0.177 HD
ATOM     19  H71 UNL     1      38.730  27.841  18.367  1.00  0.00     0.177 HD
ENDBRANCH  16  17
BRANCH  16  20
HETATM   20  C7  UNL     1      38.425  30.850  19.667  1.00  0.00     0.180 C 
BRANCH  20  21
HETATM   21  C8  UNL     1      37.226  30.569  20.522  1.00  0.00     0.294 C 
BRANCH  21  22
HETATM   22  N8  UNL     1      37.411  30.959  21.916  1.00  0.00     0.096 N 
BRANCH  22  23
HETATM   23  C9  UNL     1      38.172  29.947  22.624  1.00  0.00     0.300 C 
BRANCH  23  24
HETATM   24  C10 UNL     1      37.360  28.920  23.325  1.00  0.00     0.259 C 
BRANCH  24  25
HETATM   25  N9  UNL     1      37.471  27.629  22.622  1.00  0.00    -0.078 N 
ATOM     26  H93 UNL     1      37.220  26.843  23.222  1.00  0.00     0.274 HD
ATOM     27  H92 UNL     1      36.746  27.513  21.915  1.00  0.00     0.274 HD
ATOM     28  H91 UNL     1      38.408  27.527  22.231  1.00  0.00     0.274 HD
ENDBRANCH  24  25
ENDBRANCH  23  24
ENDBRANCH  22  23
BRANCH  22  29
HETATM   29  C11 UNL     1      38.125  32.235  21.969  1.00  0.00     0.223 C 
HETATM   30  C12 UNL     1      37.238  33.322  22.537  1.00  0.00     0.038 C 
HETATM   31  C13 UNL     1      38.009  34.519  22.970  1.00  0.00     0.034 C 
HETATM   32  C14 UNL     1      39.456  34.481  22.527  1.00  0.00     0.118 C 
HETATM   33  C15 UNL     1      40.146  33.278  23.087  1.00  0.00     0.034 C 
HETATM   34  C16 UNL     1      39.285  32.047  22.910  1.00  0.00     0.038 C 
BRANCH  32  35
HETATM   35  O1  UNL     1      40.069  35.621  23.046  1.00  0.00    -0.396 OA
ATOM     36  H1  UNL     1      40.499  36.059  22.320  1.00  0.00     0.210 HD
ENDBRANCH  32  35
ENDBRANCH  22  29
ENDBRANCH  21  22
ENDBRANCH  20  21
ENDBRANCH  16  20
ENDBRANCH  10  16
BRANCH   4  37
HETATM   37  N3  UNL     1      44.959  29.376  16.668  1.00  0.00    -0.384 N 
ATOM     38  H32 UNL     1      45.789  28.801  16.517  1.00  0.00     0.157 HD
ATOM     39  H31 UNL     1      44.454  29.761  15.869  1.00  0.00     0.157 HD
ENDBRANCH   4  37
BRANCH   1  40
HETATM   40  N1  UNL     1      45.865  30.301  21.062  1.00  0.00    -0.234 N 
ATOM     41  H12 UNL     1      45.563  30.201  22.031  1.00  0.00     0.174 HD
ATOM     42  H11 UNL     1      46.822  30.578  20.841  1.00  0.00     0.174 HD
ENDBRANCH   1  40
TORSDOF 12
ENDMDL
MODEL 5
REMARK VINA RESULT: -8.260376355      2.201      4.098
REMARK  12 active torsions:
REMARK  status: ('A' for Active; 'I' for Inactive)
REMARK    1  A    between atoms: N1_1  and  C1_4 
REMARK    2  A    between atoms: C2_7  and  N3_8 
REMARK    3  A    between atoms: C6_16  and  N6_17 
REMARK    4  A    between atoms: N6_17  and  N7_18 
REMARK    5  A    between atoms: N6_17  and  C7_21 
REMARK    6  A    between atoms: C7_21  and  C8_22 
REMARK    7  A    between atoms: C8_22  and  N8_23 
REMARK    8  A    between atoms: N8_23  and  C9_24 
REMARK    9  A    between atoms: N8_23  and  C11_30 
REMARK   10  A    between atoms: C9_24  and  C10_25 
REMARK   11  A    between atoms: C10_25  and  N9_26 
REMARK   12  A    between atoms: C14_33  and  O1_34 
ROOT
HETATM    1  C1  UNL     1      44.966  30.059  20.120  1.00  0.00     0.679 A 
HETATM    2  N2  UNL     1      45.409  29.800  18.879  1.00  0.00    -0.176 N 
ATOM      3  H2  UNL     1      46.411  29.767  18.690  1.00  0.00     0.186 HD
HETATM    4  C2  UNL     1      44.526  29.583  17.881  1.00  0.00     0.130 A 
HETATM    5  C3  UNL     1      43.170  29.628  18.139  1.00  0.00     0.079 A 
HETATM    6  C4  UNL     1      42.209  29.422  17.176  1.00  0.00     0.092 A 
HETATM    7  N4  UNL     1      42.675  29.144  15.858  1.00  0.00    -0.099 NA
HETATM    8  C5  UNL     1      40.858  29.480  17.482  1.00  0.00     0.117 A 
HETATM    9  N5  UNL     1      39.907  29.267  16.452  1.00  0.00    -0.096 NA
HETATM   10  C6  UNL     1      40.445  29.747  18.764  1.00  0.00     0.150 A 
HETATM   11  N10 UNL     1      41.403  29.950  19.703  1.00  0.00    -0.325 N 
ATOM     12  H10 UNL     1      41.120  30.151  20.662  1.00  0.00     0.169 HD
HETATM   13  C17 UNL     1      42.709  29.893  19.410  1.00  0.00     0.138 A 
HETATM   14  N11 UNL     1      43.649  30.105  20.381  1.00  0.00    -0.176 N 
ATOM     15  H11 UNL     1      43.341  30.304  21.334  1.00  0.00     0.186 HD
ENDROOT
BRANCH  10  16
HETATM   16  N6  UNL     1      39.058  29.827  19.147  1.00  0.00    -0.280 N 
BRANCH  16  17
HETATM   17  N7  UNL     1      38.383  28.605  19.186  1.00  0.00    -0.341 N 
ATOM     18  H72 UNL     1      38.406  28.025  20.024  1.00  0.00     0.177 HD
ATOM     19  H71 UNL     1      37.886  28.358  18.330  1.00  0.00     0.177 HD
ENDBRANCH  16  17
BRANCH  16  20
HETATM   20  C7  UNL     1      38.378  31.050  19.475  1.00  0.00     0.180 C 
BRANCH  20  21
HETATM   21  C8  UNL     1      37.708  31.033  20.816  1.00  0.00     0.294 C 
BRANCH  21  22
HETATM   22  N8  UNL     1      38.568  31.514  21.894  1.00  0.00     0.096 N 
BRANCH  22  23
HETATM   23  C9  UNL     1      38.301  32.915  22.161  1.00  0.00     0.300 C 
BRANCH  23  24
HETATM   24  C10 UNL     1      39.486  33.723  22.547  1.00  0.00     0.259 C 
BRANCH  24  25
HETATM   25  N9  UNL     1      39.133  35.154  22.558  1.00  0.00    -0.078 N 
ATOM     26  H93 UNL     1      38.583  35.407  23.379  1.00  0.00     0.274 HD
ATOM     27  H92 UNL     1      39.944  35.748  22.734  1.00  0.00     0.274 HD
ATOM     28  H91 UNL     1      38.659  35.401  21.689  1.00  0.00     0.274 HD
ENDBRANCH  24  25
ENDBRANCH  23  24
ENDBRANCH  22  23
BRANCH  22  29
HETATM   29  C11 UNL     1      38.314  30.728  23.101  1.00  0.00     0.223 C 
HETATM   30  C12 UNL     1      37.128  31.281  23.861  1.00  0.00     0.038 C 
HETATM   31  C13 UNL     1      36.593  30.317  24.861  1.00  0.00     0.034 C 
HETATM   32  C14 UNL     1      37.490  29.116  25.062  1.00  0.00     0.118 C 
HETATM   33  C15 UNL     1      37.670  28.373  23.778  1.00  0.00     0.034 C 
HETATM   34  C16 UNL     1      37.965  29.335  22.648  1.00  0.00     0.038 C 
BRANCH  32  35
HETATM   35  O1  UNL     1      36.845  28.275  25.970  1.00  0.00    -0.396 OA
ATOM     36  H1  UNL     1      36.612  28.807  26.722  1.00  0.00     0.210 HD
ENDBRANCH  32  35
ENDBRANCH  22  29
ENDBRANCH  21  22
ENDBRANCH  20  21
ENDBRANCH  16  20
ENDBRANCH  10  16
BRANCH   4  37
HETATM   37  N3  UNL     1      44.930  29.331  16.682  1.00  0.00    -0.384 N 
ATOM     38  H32 UNL     1      45.876  28.978  16.540  1.00  0.00     0.157 HD
ATOM     39  H31 UNL     1      44.317  29.481  15.881  1.00  0.00     0.157 HD
ENDBRANCH   4  37
BRANCH   1  40
HETATM   40  N1  UNL     1      45.808  30.269  21.080  1.00  0.00    -0.234 N 
ATOM     41  H12 UNL     1      46.751  30.583  20.854  1.00  0.00     0.174 HD
ATOM     42  H11 UNL     1      45.527  30.119  22.049  1.00  0.00     0.174 HD
ENDBRANCH   1  40
TORSDOF 12
ENDMDL
