MODEL 1
REMARK VINA RESULT: -6.486172914      0.000      0.000
REMARK  10 active torsions:
REMARK  status: ('A' for Active; 'I' for Inactive)
REMARK    1  A    between atoms: O1_2  and  C2_3 
REMARK    2  A    between atoms: C2_3  and  C3_5 
REMARK    3  A    between atoms: C3_5  and  N1_6 
REMARK    4  A    between atoms: C3_5  and  C4_10 
REMARK       I    between atoms: C4_10  and  N2_12 
REMARK    5  A    between atoms: N2_12  and  N3_14 
REMARK    6  A    between atoms: C5_16  and  C7_18 
REMARK       I    between atoms: C7_18  and  N4_20 
REMARK    7  A    between atoms: N4_20  and  C8_21 
REMARK    8  A    between atoms: C8_21  and  C10_23 
REMARK    9  A    between atoms: C12_28  and  N7_29 
REMARK   10  A    between atoms: C15_34  and  N9_35 
ROOT
HETATM    1  C10 UNL     1      32.175  44.999   4.180  1.00  0.00     0.271 C 
HETATM    2  N5  UNL     1      31.537  44.094   5.025  1.00  0.00    -0.110 NA
HETATM    3  N6  UNL     1      31.829  42.791   4.774  1.00  0.00    -0.333 N 
ATOM      4  H6  UNL     1      31.987  42.117   5.523  1.00  0.00     0.175 HD
HETATM    5  C11 UNL     1      31.900  42.427   3.404  1.00  0.00     0.191 C 
HETATM    6  C12 UNL     1      32.042  43.522   2.414  1.00  0.00     0.267 C 
HETATM    7  O5  UNL     1      31.846  44.798   2.858  1.00  0.00    -0.337 OA
ENDROOT
BRANCH   1   8
HETATM    8  C8  UNL     1      33.725  45.047   4.323  1.00  0.00     0.209 C 
HETATM    9  C9  UNL     1      34.096  45.211   5.762  1.00  0.00     0.052 C 
BRANCH   8  10
HETATM   10  N4  UNL     1      34.228  45.870   3.386  1.00  0.00    -0.401 NA
HETATM   11  C7  UNL     1      34.744  46.718   2.419  1.00  0.00     0.335 C 
HETATM   12  O4  UNL     1      35.931  47.155   2.350  1.00  0.00    -0.250 OA
BRANCH  11  13
HETATM   13  C5  UNL     1      33.871  47.214   1.325  1.00  0.00     0.103 C 
HETATM   14  N3  UNL     1      33.253  46.330   0.624  1.00  0.00    -0.296 N 
ATOM     15  H3  UNL     1      33.350  45.345   0.874  1.00  0.00     0.187 HD
HETATM   16  C6  UNL     1      33.794  48.658   1.061  1.00  0.00     0.077 C 
BRANCH  14  17
HETATM   17  N2  UNL     1      32.467  46.669  -0.448  1.00  0.00    -0.268 N 
HETATM   18  C4  UNL     1      32.231  45.746  -1.524  1.00  0.00     0.276 C 
HETATM   19  O3  UNL     1      32.748  44.600  -1.469  1.00  0.00    -0.269 OA
ATOM     20  H2  UNL     1      32.041  47.596  -0.482  1.00  0.00     0.190 HD
BRANCH  18  21
HETATM   21  C3  UNL     1      31.391  46.178  -2.669  1.00  0.00     0.374 C 
BRANCH  21  22
HETATM   22  C2  UNL     1      32.158  46.276  -3.928  1.00  0.00     0.298 C 
HETATM   23  O2  UNL     1      32.219  45.279  -4.731  1.00  0.00    -0.262 OA
BRANCH  22  24
HETATM   24  O1  UNL     1      32.845  47.412  -4.330  1.00  0.00    -0.324 OA
HETATM   25  C1  UNL     1      32.814  48.591  -3.495  1.00  0.00     0.213 C 
ENDBRANCH  22  24
ENDBRANCH  21  22
BRANCH  21  26
HETATM   26  N1  UNL     1      30.304  45.239  -2.863  1.00  0.00    -0.057 N 
ATOM     27  H13 UNL     1      29.785  45.413  -3.724  1.00  0.00     0.275 HD
ATOM     28  H12 UNL     1      30.634  44.300  -3.086  1.00  0.00     0.275 HD
ATOM     29  H11 UNL     1      29.708  45.258  -2.035  1.00  0.00     0.275 HD
ENDBRANCH  21  26
ENDBRANCH  18  21
ENDBRANCH  14  17
ENDBRANCH  11  13
ENDBRANCH   8  10
ENDBRANCH   1   8
BRANCH   6  30
HETATM   30  N7  UNL     1      31.056  43.252   1.352  1.00  0.00    -0.244 N 
HETATM   31  N8  UNL     1      31.266  42.414   0.335  1.00  0.00    -0.305 N 
HETATM   32  C13 UNL     1      30.223  42.368  -0.487  1.00  0.00     0.126 A 
ATOM     33  H8  UNL     1      32.123  41.876   0.205  1.00  0.00     0.186 HD
HETATM   34  C14 UNL     1      29.275  43.218   0.010  1.00  0.00     0.070 A 
HETATM   35  C15 UNL     1      28.021  43.631  -0.325  1.00  0.00     0.115 A 
HETATM   36  C17 UNL     1      29.832  43.761   1.174  1.00  0.00     0.141 A 
HETATM   37  N10 UNL     1      27.368  44.523   0.449  1.00  0.00    -0.338 N 
HETATM   38  C16 UNL     1      27.891  45.044   1.559  1.00  0.00     0.183 A 
ATOM     39  H10 UNL     1      26.430  44.813   0.172  1.00  0.00     0.168 HD
HETATM   40  N11 UNL     1      29.135  44.642   1.899  1.00  0.00    -0.336 N 
ATOM     41  H11 UNL     1      29.560  45.026   2.744  1.00  0.00     0.168 HD
BRANCH  35  42
HETATM   42  N9  UNL     1      27.462  43.155  -1.391  1.00  0.00    -0.385 N 
ATOM     43  H92 UNL     1      26.581  43.542  -1.730  1.00  0.00     0.157 HD
ATOM     44  H91 UNL     1      27.911  42.386  -1.888  1.00  0.00     0.157 HD
ENDBRANCH  35  42
ENDBRANCH   6  30
TORSDOF 10
ENDMDL
MODEL 2
REMARK VINA RESULT: -6.483143667      6.410     10.417
REMARK  10 active torsions:
REMARK  status: ('A' for Active; 'I' for Inactive)
REMARK    1  A    between atoms: O1_2  and  C2_3 
REMARK    2  A    between atoms: C2_3  and  C3_5 
REMARK    3  A    between atoms: C3_5  and  N1_6 
REMARK    4  A    between atoms: C3_5  and  C4_10 
REMARK       I    between atoms: C4_10  and  N2_12 
REMARK    5  A    between atoms: N2_12  and  N3_14 
REMARK    6  A    between atoms: C5_16  and  C7_18 
REMARK       I    between atoms: C7_18  and  N4_20 
REMARK    7  A    between atoms: N4_20  and  C8_21 
REMARK    8  A    between atoms: C8_21  and  C10_23 
REMARK    9  A    between atoms: C12_28  and  N7_29 
REMARK   10  A    between atoms: C15_34  and  N9_35 
ROOT
HETATM    1  C10 UNL     1      37.141  53.189   0.555  1.00  0.00     0.271 C 
HETATM    2  N5  UNL     1      38.121  54.032   0.036  1.00  0.00    -0.110 NA
HETATM    3  N6  UNL     1      39.389  53.559   0.157  1.00  0.00    -0.333 N 
ATOM      4  H6  UNL     1      40.077  53.654  -0.591  1.00  0.00     0.175 HD
HETATM    5  C11 UNL     1      39.697  52.923   1.388  1.00  0.00     0.191 C 
HETATM    6  C12 UNL     1      38.558  52.493   2.235  1.00  0.00     0.267 C 
HETATM    7  O5  UNL     1      37.317  52.953   1.900  1.00  0.00    -0.337 OA
ENDROOT
BRANCH   1   8
HETATM    8  C8  UNL     1      36.985  51.831  -0.191  1.00  0.00     0.209 C 
HETATM    9  C9  UNL     1      36.863  52.072  -1.661  1.00  0.00     0.052 C 
BRANCH   8  10
HETATM   10  N4  UNL     1      36.082  51.075   0.459  1.00  0.00    -0.401 NA
HETATM   11  C7  UNL     1      35.151  50.296   1.127  1.00  0.00     0.335 C 
HETATM   12  O4  UNL     1      35.043  50.152   2.381  1.00  0.00    -0.250 OA
BRANCH  11  13
HETATM   13  C5  UNL     1      34.150  49.513   0.357  1.00  0.00     0.103 C 
HETATM   14  N3  UNL     1      33.792  48.380   0.847  1.00  0.00    -0.296 N 
ATOM     15  H3  UNL     1      34.168  48.091   1.751  1.00  0.00     0.187 HD
HETATM   16  C6  UNL     1      33.665  50.032  -0.931  1.00  0.00     0.077 C 
BRANCH  14  17
HETATM   17  N2  UNL     1      32.920  47.546   0.193  1.00  0.00    -0.268 N 
HETATM   18  C4  UNL     1      33.035  46.117   0.294  1.00  0.00     0.276 C 
HETATM   19  O3  UNL     1      33.947  45.627   1.008  1.00  0.00    -0.269 OA
ATOM     20  H2  UNL     1      32.176  47.949  -0.376  1.00  0.00     0.190 HD
BRANCH  18  21
HETATM   21  C3  UNL     1      32.077  45.266  -0.455  1.00  0.00     0.374 C 
BRANCH  21  22
HETATM   22  C2  UNL     1      32.701  44.600  -1.617  1.00  0.00     0.298 C 
HETATM   23  O2  UNL     1      33.542  43.649  -1.447  1.00  0.00    -0.262 OA
BRANCH  22  24
HETATM   24  O1  UNL     1      32.435  44.935  -2.937  1.00  0.00    -0.324 OA
HETATM   25  C1  UNL     1      32.087  46.299  -3.265  1.00  0.00     0.213 C 
ENDBRANCH  22  24
ENDBRANCH  21  22
BRANCH  21  26
HETATM   26  N1  UNL     1      31.533  44.249   0.422  1.00  0.00    -0.057 N 
ATOM     27  H13 UNL     1      31.401  43.354  -0.051  1.00  0.00     0.275 HD
ATOM     28  H12 UNL     1      32.205  43.938   1.124  1.00  0.00     0.275 HD
ATOM     29  H11 UNL     1      30.670  44.604   0.835  1.00  0.00     0.275 HD
ENDBRANCH  21  26
ENDBRANCH  18  21
ENDBRANCH  14  17
ENDBRANCH  11  13
ENDBRANCH   8  10
ENDBRANCH   1   8
BRANCH   6  30
HETATM   30  N7  UNL     1      38.862  52.955   3.603  1.00  0.00    -0.244 N 
HETATM   31  N8  UNL     1      39.498  52.217   4.514  1.00  0.00    -0.305 N 
HETATM   32  C13 UNL     1      39.627  52.864   5.668  1.00  0.00     0.126 A 
ATOM     33  H8  UNL     1      39.844  51.272   4.346  1.00  0.00     0.186 HD
HETATM   34  C14 UNL     1      39.045  54.092   5.512  1.00  0.00     0.070 A 
HETATM   35  C15 UNL     1      38.833  55.206   6.267  1.00  0.00     0.115 A 
HETATM   36  C17 UNL     1      38.571  54.117   4.195  1.00  0.00     0.141 A 
HETATM   37  N10 UNL     1      38.192  56.272   5.741  1.00  0.00    -0.338 N 
HETATM   38  C16 UNL     1      37.739  56.305   4.488  1.00  0.00     0.183 A 
ATOM     39  H10 UNL     1      38.048  57.092   6.331  1.00  0.00     0.168 HD
HETATM   40  N11 UNL     1      37.943  55.204   3.733  1.00  0.00    -0.336 N 
ATOM     41  H11 UNL     1      37.605  55.201   2.770  1.00  0.00     0.168 HD
BRANCH  35  42
HETATM   42  N9  UNL     1      39.255  55.232   7.489  1.00  0.00    -0.385 N 
ATOM     43  H92 UNL     1      39.984  54.588   7.798  1.00  0.00     0.157 HD
ATOM     44  H91 UNL     1      38.849  55.901   8.143  1.00  0.00     0.157 HD
ENDBRANCH  35  42
ENDBRANCH   6  30
TORSDOF 10
ENDMDL
MODEL 3
REMARK VINA RESULT: -6.414103090      3.860      6.945
REMARK  10 active torsions:
REMARK  status: ('A' for Active; 'I' for Inactive)
REMARK    1  A    between atoms: O1_2  and  C2_3 
REMARK    2  A    between atoms: C2_3  and  C3_5 
REMARK    3  A    between atoms: C3_5  and  N1_6 
REMARK    4  A    between atoms: C3_5  and  C4_10 
REMARK       I    between atoms: C4_10  and  N2_12 
REMARK    5  A    between atoms: N2_12  and  N3_14 
REMARK    6  A    between atoms: C5_16  and  C7_18 
REMARK       I    between atoms: C7_18  and  N4_20 
REMARK    7  A    between atoms: N4_20  and  C8_21 
REMARK    8  A    between atoms: C8_21  and  C10_23 
REMARK    9  A    between atoms: C12_28  and  N7_29 
REMARK   10  A    between atoms: C15_34  and  N9_35 
ROOT
HETATM    1  C10 UNL     1      33.442  44.487   0.648  1.00  0.00     0.271 C 
HETATM    2  N5  UNL     1      32.954  43.205   0.405  1.00  0.00    -0.110 NA
HETATM    3  N6  UNL     1      31.747  42.948   0.973  1.00  0.00    -0.333 N 
ATOM      4  H6  UNL     1      31.018  42.427   0.485  1.00  0.00     0.175 HD
HETATM    5  C11 UNL     1      31.564  43.449   2.288  1.00  0.00     0.191 C 
HETATM    6  C12 UNL     1      32.500  44.501   2.753  1.00  0.00     0.267 C 
HETATM    7  O5  UNL     1      33.610  44.734   1.993  1.00  0.00    -0.337 OA
ENDROOT
BRANCH   1   8
HETATM    8  C8  UNL     1      32.605  45.637   0.014  1.00  0.00     0.209 C 
HETATM    9  C9  UNL     1      32.569  45.477  -1.472  1.00  0.00     0.052 C 
BRANCH   8  10
HETATM   10  N4  UNL     1      32.971  46.805   0.571  1.00  0.00    -0.401 NA
HETATM   11  C7  UNL     1      33.349  48.009   1.143  1.00  0.00     0.335 C 
HETATM   12  O4  UNL     1      33.309  48.310   2.373  1.00  0.00    -0.250 OA
BRANCH  11  13
HETATM   13  C5  UNL     1      33.855  49.111   0.285  1.00  0.00     0.103 C 
HETATM   14  N3  UNL     1      34.717  49.910   0.807  1.00  0.00    -0.296 N 
ATOM     15  H3  UNL     1      35.045  49.731   1.756  1.00  0.00     0.187 HD
HETATM   16  C6  UNL     1      33.321  49.268  -1.076  1.00  0.00     0.077 C 
BRANCH  14  17
HETATM   17  N2  UNL     1      35.207  50.997   0.128  1.00  0.00    -0.268 N 
HETATM   18  C4  UNL     1      36.584  51.394   0.248  1.00  0.00     0.276 C 
HETATM   19  O3  UNL     1      37.351  50.720   0.982  1.00  0.00    -0.269 OA
ATOM     20  H2  UNL     1      34.583  51.533  -0.475  1.00  0.00     0.190 HD
BRANCH  18  21
HETATM   21  C3  UNL     1      37.051  52.592  -0.493  1.00  0.00     0.374 C 
BRANCH  21  22
HETATM   22  C2  UNL     1      37.858  53.499   0.350  1.00  0.00     0.298 C 
HETATM   23  O2  UNL     1      37.295  54.235   1.235  1.00  0.00    -0.262 OA
BRANCH  22  24
HETATM   24  O1  UNL     1      39.236  53.621   0.258  1.00  0.00    -0.324 OA
HETATM   25  C1  UNL     1      40.024  53.679   1.468  1.00  0.00     0.213 C 
ENDBRANCH  22  24
ENDBRANCH  21  22
BRANCH  21  26
HETATM   26  N1  UNL     1      37.853  52.184  -1.630  1.00  0.00    -0.057 N 
ATOM     27  H13 UNL     1      37.997  52.942  -2.298  1.00  0.00     0.275 HD
ATOM     28  H12 UNL     1      38.830  52.028  -1.383  1.00  0.00     0.275 HD
ATOM     29  H11 UNL     1      37.420  51.364  -2.054  1.00  0.00     0.275 HD
ENDBRANCH  21  26
ENDBRANCH  18  21
ENDBRANCH  14  17
ENDBRANCH  11  13
ENDBRANCH   8  10
ENDBRANCH   1   8
BRANCH   6  30
HETATM   30  N7  UNL     1      32.945  44.095   4.098  1.00  0.00    -0.244 N 
HETATM   31  N8  UNL     1      32.541  44.681   5.227  1.00  0.00    -0.305 N 
HETATM   32  C13 UNL     1      33.107  44.133   6.296  1.00  0.00     0.126 A 
ATOM     33  H8  UNL     1      31.879  45.456   5.263  1.00  0.00     0.186 HD
HETATM   34  C14 UNL     1      33.928  43.133   5.854  1.00  0.00     0.070 A 
HETATM   35  C15 UNL     1      34.770  42.210   6.397  1.00  0.00     0.115 A 
HETATM   36  C17 UNL     1      33.803  43.135   4.459  1.00  0.00     0.141 A 
HETATM   37  N10 UNL     1      35.440  41.348   5.603  1.00  0.00    -0.338 N 
HETATM   38  C16 UNL     1      35.325  41.342   4.275  1.00  0.00     0.183 A 
ATOM     39  H10 UNL     1      36.062  40.668   6.039  1.00  0.00     0.168 HD
HETATM   40  N11 UNL     1      34.493  42.255   3.727  1.00  0.00    -0.336 N 
ATOM     41  H11 UNL     1      34.388  42.274   2.712  1.00  0.00     0.168 HD
BRANCH  35  42
HETATM   42  N9  UNL     1      34.917  42.167   7.682  1.00  0.00    -0.385 N 
ATOM     43  H92 UNL     1      34.718  42.989   8.253  1.00  0.00     0.157 HD
ATOM     44  H91 UNL     1      35.238  41.303   8.118  1.00  0.00     0.157 HD
ENDBRANCH  35  42
ENDBRANCH   6  30
TORSDOF 10
ENDMDL
MODEL 4
REMARK VINA RESULT: -6.371508633      8.733     11.894
REMARK  10 active torsions:
REMARK  status: ('A' for Active; 'I' for Inactive)
REMARK    1  A    between atoms: O1_2  and  C2_3 
REMARK    2  A    between atoms: C2_3  and  C3_5 
REMARK    3  A    between atoms: C3_5  and  N1_6 
REMARK    4  A    between atoms: C3_5  and  C4_10 
REMARK       I    between atoms: C4_10  and  N2_12 
REMARK    5  A    between atoms: N2_12  and  N3_14 
REMARK    6  A    between atoms: C5_16  and  C7_18 
REMARK       I    between atoms: C7_18  and  N4_20 
REMARK    7  A    between atoms: N4_20  and  C8_21 
REMARK    8  A    between atoms: C8_21  and  C10_23 
REMARK    9  A    between atoms: C12_28  and  N7_29 
REMARK   10  A    between atoms: C15_34  and  N9_35 
ROOT
HETATM    1  C10 UNL     1      39.275  52.266   6.219  1.00  0.00     0.271 C 
HETATM    2  N5  UNL     1      39.844  53.536   6.164  1.00  0.00    -0.110 NA
HETATM    3  N6  UNL     1      38.945  54.550   6.070  1.00  0.00    -0.333 N 
ATOM      4  H6  UNL     1      39.055  55.422   6.587  1.00  0.00     0.175 HD
HETATM    5  C11 UNL     1      37.842  54.320   5.207  1.00  0.00     0.191 C 
HETATM    6  C12 UNL     1      37.565  52.916   4.815  1.00  0.00     0.267 C 
HETATM    7  O5  UNL     1      38.521  51.985   5.101  1.00  0.00    -0.337 OA
ENDROOT
BRANCH   1   8
HETATM    8  C8  UNL     1      38.428  51.984   7.496  1.00  0.00     0.209 C 
HETATM    9  C9  UNL     1      39.330  51.836   8.678  1.00  0.00     0.052 C 
BRANCH   8  10
HETATM   10  N4  UNL     1      37.507  51.046   7.213  1.00  0.00    -0.401 NA
HETATM   11  C7  UNL     1      36.558  50.079   6.922  1.00  0.00     0.335 C 
HETATM   12  O4  UNL     1      35.936  49.931   5.829  1.00  0.00    -0.250 OA
BRANCH  11  13
HETATM   13  C5  UNL     1      36.173  49.084   7.957  1.00  0.00     0.103 C 
HETATM   14  N3  UNL     1      36.684  47.908   7.855  1.00  0.00    -0.296 N 
ATOM     15  H3  UNL     1      37.355  47.723   7.108  1.00  0.00     0.187 HD
HETATM   16  C6  UNL     1      35.206  49.463   8.998  1.00  0.00     0.077 C 
BRANCH  14  17
HETATM   17  N2  UNL     1      36.354  46.893   8.718  1.00  0.00    -0.268 N 
HETATM   18  C4  UNL     1      35.565  45.772   8.286  1.00  0.00     0.276 C 
HETATM   19  O3  UNL     1      35.185  45.718   7.089  1.00  0.00    -0.269 OA
ATOM     20  H2  UNL     1      36.674  46.937   9.685  1.00  0.00     0.190 HD
BRANCH  18  21
HETATM   21  C3  UNL     1      35.220  44.716   9.271  1.00  0.00     0.374 C 
BRANCH  21  22
HETATM   22  C2  UNL     1      36.268  43.679   9.378  1.00  0.00     0.298 C 
HETATM   23  O2  UNL     1      37.507  43.995   9.284  1.00  0.00    -0.262 OA
BRANCH  22  24
HETATM   24  O1  UNL     1      36.007  42.333   9.584  1.00  0.00    -0.324 OA
HETATM   25  C1  UNL     1      35.232  41.930  10.734  1.00  0.00     0.213 C 
ENDBRANCH  22  24
ENDBRANCH  21  22
BRANCH  21  26
HETATM   26  N1  UNL     1      35.024  45.310  10.579  1.00  0.00    -0.057 N 
ATOM     27  H13 UNL     1      34.569  46.222  10.530  1.00  0.00     0.275 HD
ATOM     28  H12 UNL     1      34.310  44.826  11.124  1.00  0.00     0.275 HD
ATOM     29  H11 UNL     1      35.925  45.346  11.057  1.00  0.00     0.275 HD
ENDBRANCH  21  26
ENDBRANCH  18  21
ENDBRANCH  14  17
ENDBRANCH  11  13
ENDBRANCH   8  10
ENDBRANCH   1   8
BRANCH   6  30
HETATM   30  N7  UNL     1      37.360  52.926   3.355  1.00  0.00    -0.244 N 
HETATM   31  N8  UNL     1      36.184  52.701   2.765  1.00  0.00    -0.305 N 
HETATM   32  C13 UNL     1      36.281  52.751   1.441  1.00  0.00     0.126 A 
ATOM     33  H8  UNL     1      35.318  52.514   3.270  1.00  0.00     0.186 HD
HETATM   34  C14 UNL     1      37.587  53.023   1.139  1.00  0.00     0.070 A 
HETATM   35  C15 UNL     1      38.342  53.201   0.019  1.00  0.00     0.115 A 
HETATM   36  C17 UNL     1      38.242  53.128   2.371  1.00  0.00     0.141 A 
HETATM   37  N10 UNL     1      39.662  53.468   0.124  1.00  0.00    -0.338 N 
HETATM   38  C16 UNL     1      40.293  53.570   1.293  1.00  0.00     0.183 A 
ATOM     39  H10 UNL     1      40.201  53.597  -0.732  1.00  0.00     0.168 HD
HETATM   40  N11 UNL     1      39.552  53.393   2.409  1.00  0.00    -0.336 N 
ATOM     41  H11 UNL     1      40.011  53.465   3.318  1.00  0.00     0.168 HD
BRANCH  35  42
HETATM   42  N9  UNL     1      37.781  53.117  -1.143  1.00  0.00    -0.385 N 
ATOM     43  H92 UNL     1      37.022  52.454  -1.304  1.00  0.00     0.157 HD
ATOM     44  H91 UNL     1      38.107  53.719  -1.899  1.00  0.00     0.157 HD
ENDBRANCH  35  42
ENDBRANCH   6  30
TORSDOF 10
ENDMDL
MODEL 5
REMARK VINA RESULT: -6.365080207      3.715      7.216
REMARK  10 active torsions:
REMARK  status: ('A' for Active; 'I' for Inactive)
REMARK    1  A    between atoms: O1_2  and  C2_3 
REMARK    2  A    between atoms: C2_3  and  C3_5 
REMARK    3  A    between atoms: C3_5  and  N1_6 
REMARK    4  A    between atoms: C3_5  and  C4_10 
REMARK       I    between atoms: C4_10  and  N2_12 
REMARK    5  A    between atoms: N2_12  and  N3_14 
REMARK    6  A    between atoms: C5_16  and  C7_18 
REMARK       I    between atoms: C7_18  and  N4_20 
REMARK    7  A    between atoms: N4_20  and  C8_21 
REMARK    8  A    between atoms: C8_21  and  C10_23 
REMARK    9  A    between atoms: C12_28  and  N7_29 
REMARK   10  A    between atoms: C15_34  and  N9_35 
ROOT
HETATM    1  C10 UNL     1      32.532  46.675  -2.827  1.00  0.00     0.271 C 
HETATM    2  N5  UNL     1      31.802  45.778  -3.602  1.00  0.00    -0.110 NA
HETATM    3  N6  UNL     1      30.554  45.516  -3.133  1.00  0.00    -0.333 N 
ATOM      4  H6  UNL     1      29.748  45.435  -3.753  1.00  0.00     0.175 HD
HETATM    5  C11 UNL     1      30.443  45.362  -1.726  1.00  0.00     0.191 C 
HETATM    6  C12 UNL     1      31.561  45.872  -0.895  1.00  0.00     0.267 C 
HETATM    7  O5  UNL     1      32.713  46.221  -1.539  1.00  0.00    -0.337 OA
ENDROOT
BRANCH   1   8
HETATM    8  C8  UNL     1      31.959  48.122  -2.787  1.00  0.00     0.209 C 
HETATM    9  C9  UNL     1      32.094  48.757  -4.133  1.00  0.00     0.052 C 
BRANCH   8  10
HETATM   10  N4  UNL     1      32.413  48.745  -1.685  1.00  0.00    -0.401 NA
HETATM   11  C7  UNL     1      32.883  49.386  -0.550  1.00  0.00     0.335 C 
HETATM   12  O4  UNL     1      32.524  49.171   0.646  1.00  0.00    -0.250 OA
BRANCH  11  13
HETATM   13  C5  UNL     1      33.908  50.454  -0.673  1.00  0.00     0.103 C 
HETATM   14  N3  UNL     1      34.503  50.821   0.407  1.00  0.00    -0.296 N 
ATOM     15  H3  UNL     1      34.283  50.340   1.280  1.00  0.00     0.187 HD
HETATM   16  C6  UNL     1      34.155  51.069  -1.986  1.00  0.00     0.077 C 
BRANCH  14  17
HETATM   17  N2  UNL     1      35.423  51.838   0.421  1.00  0.00    -0.268 N 
HETATM   18  C4  UNL     1      36.815  51.583   0.677  1.00  0.00     0.276 C 
HETATM   19  O3  UNL     1      37.191  50.400   0.877  1.00  0.00    -0.269 OA
ATOM     20  H2  UNL     1      35.114  52.794   0.247  1.00  0.00     0.190 HD
BRANCH  18  21
HETATM   21  C3  UNL     1      37.760  52.727   0.703  1.00  0.00     0.374 C 
BRANCH  21  22
HETATM   22  C2  UNL     1      38.856  52.533   1.675  1.00  0.00     0.298 C 
HETATM   23  O2  UNL     1      40.078  52.669   1.313  1.00  0.00    -0.262 OA
BRANCH  22  24
HETATM   24  O1  UNL     1      38.660  52.204   3.008  1.00  0.00    -0.324 OA
HETATM   25  C1  UNL     1      38.929  53.191   4.028  1.00  0.00     0.213 C 
ENDBRANCH  22  24
ENDBRANCH  21  22
BRANCH  21  26
HETATM   26  N1  UNL     1      38.340  52.916  -0.612  1.00  0.00    -0.057 N 
ATOM     27  H13 UNL     1      38.626  53.881  -0.779  1.00  0.00     0.275 HD
ATOM     28  H12 UNL     1      39.257  52.480  -0.701  1.00  0.00     0.275 HD
ATOM     29  H11 UNL     1      37.676  52.578  -1.310  1.00  0.00     0.275 HD
ENDBRANCH  21  26
ENDBRANCH  18  21
ENDBRANCH  14  17
ENDBRANCH  11  13
ENDBRANCH   8  10
ENDBRANCH   1   8
BRANCH   6  30
HETATM   30  N7  UNL     1      31.882  44.803   0.068  1.00  0.00    -0.244 N 
HETATM   31  N8  UNL     1      31.225  43.644   0.142  1.00  0.00    -0.305 N 
HETATM   32  C13 UNL     1      31.706  42.867   1.107  1.00  0.00     0.126 A 
ATOM     33  H8  UNL     1      30.448  43.387  -0.467  1.00  0.00     0.186 HD
HETATM   34  C14 UNL     1      32.733  43.546   1.702  1.00  0.00     0.070 A 
HETATM   35  C15 UNL     1      33.620  43.339   2.714  1.00  0.00     0.115 A 
HETATM   36  C17 UNL     1      32.819  44.766   1.021  1.00  0.00     0.141 A 
HETATM   37  N10 UNL     1      34.532  44.286   3.025  1.00  0.00    -0.338 N 
HETATM   38  C16 UNL     1      34.621  45.449   2.381  1.00  0.00     0.183 A 
ATOM     39  H10 UNL     1      35.183  44.101   3.787  1.00  0.00     0.168 HD
HETATM   40  N11 UNL     1      33.744  45.664   1.376  1.00  0.00    -0.336 N 
ATOM     41  H11 UNL     1      33.789  46.548   0.867  1.00  0.00     0.168 HD
BRANCH  35  42
HETATM   42  N9  UNL     1      33.582  42.225   3.371  1.00  0.00    -0.385 N 
ATOM     43  H92 UNL     1      32.715  41.912   3.808  1.00  0.00     0.157 HD
ATOM     44  H91 UNL     1      34.430  41.664   3.450  1.00  0.00     0.157 HD
ENDBRANCH  35  42
ENDBRANCH   6  30
TORSDOF 10
ENDMDL
