MODEL 1
REMARK VINA RESULT: -6.029039438      0.000      0.000
REMARK  10 active torsions:
REMARK  status: ('A' for Active; 'I' for Inactive)
REMARK    1  A    between atoms: C2_2  and  O1_3 
REMARK    2  A    between atoms: O1_3  and  C3_4 
REMARK    3  A    between atoms: C3_4  and  N1_5 
REMARK    4  A    between atoms: C5_7  and  C6_8 
REMARK    5  A    between atoms: C6_8  and  N2_9 
REMARK    6  A    between atoms: N2_9  and  C7_11 
REMARK    7  A    between atoms: C12_22  and  N6_23 
REMARK       I    between atoms: N8_29  and  C14_31 
REMARK    8  A    between atoms: N12_38  and  C16_39 
REMARK    9  A    between atoms: C16_39  and  C17_40 
REMARK   10  A    between atoms: C17_40  and  O3_41 
ROOT
HETATM    1  C7  UNL     1      33.399  49.877  -0.177  1.00  0.00     0.683 A 
HETATM    2  N3  UNL     1      34.288  50.283   0.706  1.00  0.00    -0.182 N 
ATOM      3  H3  UNL     1      34.287  50.078   1.705  1.00  0.00     0.184 HD
HETATM    4  C8  UNL     1      35.184  51.009   0.051  1.00  0.00     0.164 A 
HETATM    5  C9  UNL     1      36.297  51.689   0.484  1.00  0.00     0.292 A 
HETATM    6  O2  UNL     1      36.583  51.621   1.707  1.00  0.00    -0.265 OA
HETATM    7  N4  UNL     1      37.010  52.373  -0.388  1.00  0.00    -0.148 N 
HETATM    8  C10 UNL     1      38.183  53.095   0.035  1.00  0.00     0.179 C 
HETATM    9  C11 UNL     1      36.639  52.395  -1.678  1.00  0.00     0.724 A 
HETATM   10  N5  UNL     1      37.409  53.139  -2.514  1.00  0.00    -0.021 N 
ATOM     11  H5  UNL     1      38.226  53.630  -2.153  1.00  0.00     0.203 HD
HETATM   12  C12 UNL     1      37.096  53.226  -3.800  1.00  0.00     0.705 A 
HETATM   13  N7  UNL     1      36.033  52.589  -4.277  1.00  0.00    -0.021 N 
ATOM     14  H7  UNL     1      35.807  52.666  -5.269  1.00  0.00     0.203 HD
HETATM   15  C13 UNL     1      35.233  51.827  -3.462  1.00  0.00     0.722 A 
HETATM   16  N8  UNL     1      34.317  51.306  -4.088  1.00  0.00    -0.162 N 
ATOM     17  H8  UNL     1      33.675  50.724  -3.550  1.00  0.00     0.187 HD
HETATM   18  C14 UNL     1      34.047  51.422  -5.479  1.00  0.00     0.200 C 
HETATM   19  N9  UNL     1      34.590  50.555  -6.244  1.00  0.00    -0.373 N 
ATOM     20  H91 UNL     1      34.397  50.638  -7.242  1.00  0.00     0.158 HD
ATOM     21  H92 UNL     1      35.176  49.847  -5.802  1.00  0.00     0.158 HD
HETATM   22  N10 UNL     1      33.239  52.398  -6.088  1.00  0.00    -0.063 NA
HETATM   23  N11 UNL     1      35.557  51.753  -2.186  1.00  0.00     0.043 N 
HETATM   24  C15 UNL     1      34.803  51.035  -1.302  1.00  0.00     0.198 A 
HETATM   25  N12 UNL     1      33.700  50.337  -1.461  1.00  0.00    -0.162 N 
ENDROOT
BRANCH   1  26
HETATM   26  N2  UNL     1      32.373  49.154   0.162  1.00  0.00    -0.221 N 
ATOM     27  H2  UNL     1      31.535  49.193  -0.419  1.00  0.00     0.178 HD
BRANCH  26  28
HETATM   28  C6  UNL     1      32.367  48.315   1.304  1.00  0.00     0.179 C 
BRANCH  28  29
HETATM   29  C5  UNL     1      32.961  46.995   0.947  1.00  0.00    -0.006 A 
HETATM   30  C4  UNL     1      32.480  46.122  -0.006  1.00  0.00     0.122 A 
HETATM   31  N1  UNL     1      33.265  45.031  -0.060  1.00  0.00    -0.280 N 
HETATM   32  N13 UNL     1      34.224  45.212   0.842  1.00  0.00    -0.308 N 
HETATM   33  C18 UNL     1      34.074  46.388   1.471  1.00  0.00     0.117 A 
ATOM     34  H13 UNL     1      34.973  44.547   1.031  1.00  0.00     0.186 HD
BRANCH  31  35
HETATM   35  C3  UNL     1      33.088  43.879  -0.941  1.00  0.00     0.315 C 
BRANCH  35  36
HETATM   36  O1  UNL     1      32.988  42.692  -0.248  1.00  0.00    -0.371 OA
BRANCH  36  37
HETATM   37  C2  UNL     1      31.783  42.503   0.379  1.00  0.00     0.165 C 
HETATM   38  C1  UNL     1      31.877  42.441   1.879  1.00  0.00     0.033 C 
ENDBRANCH  36  37
ENDBRANCH  35  36
ENDBRANCH  31  35
ENDBRANCH  28  29
ENDBRANCH  26  28
ENDBRANCH   1  26
BRANCH  25  39
HETATM   39  C16 UNL     1      32.799  49.975  -2.461  1.00  0.00     0.175 C 
BRANCH  39  40
HETATM   40  C17 UNL     1      32.959  48.533  -2.976  1.00  0.00     0.185 C 
BRANCH  40  41
HETATM   41  O3  UNL     1      33.200  48.407  -4.305  1.00  0.00    -0.399 OA
ATOM     42  H3  UNL     1      32.435  48.454  -4.868  1.00  0.00     0.209 HD
ENDBRANCH  40  41
ENDBRANCH  39  40
ENDBRANCH  25  39
BRANCH  12  43
HETATM   43  N6  UNL     1      37.825  53.936  -4.586  1.00  0.00    -0.234 N 
ATOM     44  H62 UNL     1      38.841  53.882  -4.524  1.00  0.00     0.174 HD
ATOM     45  H61 UNL     1      37.381  54.549  -5.270  1.00  0.00     0.174 HD
ENDBRANCH  12  43
TORSDOF 10
ENDMDL
MODEL 2
REMARK VINA RESULT: -5.807886962      2.369      7.467
REMARK  10 active torsions:
REMARK  status: ('A' for Active; 'I' for Inactive)
REMARK    1  A    between atoms: C2_2  and  O1_3 
REMARK    2  A    between atoms: O1_3  and  C3_4 
REMARK    3  A    between atoms: C3_4  and  N1_5 
REMARK    4  A    between atoms: C5_7  and  C6_8 
REMARK    5  A    between atoms: C6_8  and  N2_9 
REMARK    6  A    between atoms: N2_9  and  C7_11 
REMARK    7  A    between atoms: C12_22  and  N6_23 
REMARK       I    between atoms: N8_29  and  C14_31 
REMARK    8  A    between atoms: N12_38  and  C16_39 
REMARK    9  A    between atoms: C16_39  and  C17_40 
REMARK   10  A    between atoms: C17_40  and  O3_41 
ROOT
HETATM    1  C7  UNL     1      33.987  49.662   0.471  1.00  0.00     0.683 A 
HETATM    2  N3  UNL     1      34.433  49.257   1.642  1.00  0.00    -0.182 N 
ATOM      3  H3  UNL     1      34.910  49.828   2.340  1.00  0.00     0.184 HD
HETATM    4  C8  UNL     1      34.146  47.966   1.743  1.00  0.00     0.164 A 
HETATM    5  C9  UNL     1      34.405  47.050   2.735  1.00  0.00     0.292 A 
HETATM    6  O2  UNL     1      34.992  47.460   3.768  1.00  0.00    -0.265 OA
HETATM    7  N4  UNL     1      34.032  45.798   2.564  1.00  0.00    -0.148 N 
HETATM    8  C10 UNL     1      34.290  44.815   3.586  1.00  0.00     0.179 C 
HETATM    9  C11 UNL     1      33.408  45.439   1.431  1.00  0.00     0.724 A 
HETATM   10  N5  UNL     1      33.074  44.127   1.316  1.00  0.00    -0.021 N 
ATOM     11  H5  UNL     1      33.286  43.479   2.075  1.00  0.00     0.203 HD
HETATM   12  C12 UNL     1      32.472  43.691   0.218  1.00  0.00     0.705 A 
HETATM   13  N7  UNL     1      32.192  44.530  -0.773  1.00  0.00    -0.021 N 
ATOM     14  H7  UNL     1      31.728  44.178  -1.610  1.00  0.00     0.203 HD
HETATM   15  C13 UNL     1      32.515  45.862  -0.691  1.00  0.00     0.722 A 
HETATM   16  N8  UNL     1      32.161  46.474  -1.693  1.00  0.00    -0.162 N 
ATOM     17  H8  UNL     1      32.367  47.473  -1.709  1.00  0.00     0.187 HD
HETATM   18  C14 UNL     1      31.496  45.949  -2.835  1.00  0.00     0.200 C 
HETATM   19  N9  UNL     1      30.219  45.958  -2.810  1.00  0.00    -0.373 N 
ATOM     20  H91 UNL     1      29.741  45.581  -3.629  1.00  0.00     0.158 HD
ATOM     21  H92 UNL     1      29.772  46.338  -1.976  1.00  0.00     0.158 HD
HETATM   22  N10 UNL     1      32.111  45.425  -3.984  1.00  0.00    -0.063 NA
HETATM   23  N11 UNL     1      33.115  46.279   0.407  1.00  0.00     0.043 N 
HETATM   24  C15 UNL     1      33.490  47.583   0.560  1.00  0.00     0.198 A 
HETATM   25  N12 UNL     1      33.381  48.622  -0.238  1.00  0.00    -0.162 N 
ENDROOT
BRANCH   1  26
HETATM   26  N2  UNL     1      34.136  50.888   0.064  1.00  0.00    -0.221 N 
ATOM     27  H2  UNL     1      33.433  51.284  -0.559  1.00  0.00     0.178 HD
BRANCH  26  28
HETATM   28  C6  UNL     1      35.233  51.697   0.449  1.00  0.00     0.179 C 
BRANCH  28  29
HETATM   29  C5  UNL     1      36.111  51.931  -0.733  1.00  0.00    -0.006 A 
HETATM   30  C4  UNL     1      35.706  51.949  -2.051  1.00  0.00     0.122 A 
HETATM   31  N1  UNL     1      36.763  52.189  -2.848  1.00  0.00    -0.280 N 
HETATM   32  N13 UNL     1      37.816  52.320  -2.048  1.00  0.00    -0.308 N 
HETATM   33  C18 UNL     1      37.462  52.171  -0.763  1.00  0.00     0.117 A 
ATOM     34  H13 UNL     1      38.765  52.509  -2.368  1.00  0.00     0.186 HD
BRANCH  31  35
HETATM   35  C3  UNL     1      36.745  52.283  -4.306  1.00  0.00     0.315 C 
BRANCH  35  36
HETATM   36  O1  UNL     1      35.467  52.264  -4.824  1.00  0.00    -0.371 OA
BRANCH  36  37
HETATM   37  C2  UNL     1      35.183  51.159  -5.583  1.00  0.00     0.165 C 
HETATM   38  C1  UNL     1      34.065  50.312  -5.037  1.00  0.00     0.033 C 
ENDBRANCH  36  37
ENDBRANCH  35  36
ENDBRANCH  31  35
ENDBRANCH  28  29
ENDBRANCH  26  28
ENDBRANCH   1  26
BRANCH  25  39
HETATM   39  C16 UNL     1      32.898  48.953  -1.503  1.00  0.00     0.175 C 
BRANCH  39  40
HETATM   40  C17 UNL     1      31.513  49.625  -1.504  1.00  0.00     0.185 C 
BRANCH  40  41
HETATM   41  O3  UNL     1      30.466  48.815  -1.207  1.00  0.00    -0.399 OA
ATOM     42  H3  UNL     1      29.615  49.237  -1.175  1.00  0.00     0.209 HD
ENDBRANCH  40  41
ENDBRANCH  39  40
ENDBRANCH  25  39
BRANCH  12  43
HETATM   43  N6  UNL     1      32.163  42.448   0.113  1.00  0.00    -0.234 N 
ATOM     44  H62 UNL     1      32.742  41.826  -0.450  1.00  0.00     0.174 HD
ATOM     45  H61 UNL     1      31.340  42.089   0.596  1.00  0.00     0.174 HD
ENDBRANCH  12  43
TORSDOF 10
ENDMDL
MODEL 3
REMARK VINA RESULT: -5.722811773      2.897      8.109
REMARK  10 active torsions:
REMARK  status: ('A' for Active; 'I' for Inactive)
REMARK    1  A    between atoms: C2_2  and  O1_3 
REMARK    2  A    between atoms: O1_3  and  C3_4 
REMARK    3  A    between atoms: C3_4  and  N1_5 
REMARK    4  A    between atoms: C5_7  and  C6_8 
REMARK    5  A    between atoms: C6_8  and  N2_9 
REMARK    6  A    between atoms: N2_9  and  C7_11 
REMARK    7  A    between atoms: C12_22  and  N6_23 
REMARK       I    between atoms: N8_29  and  C14_31 
REMARK    8  A    between atoms: N12_38  and  C16_39 
REMARK    9  A    between atoms: C16_39  and  C17_40 
REMARK   10  A    between atoms: C17_40  and  O3_41 
ROOT
HETATM    1  C7  UNL     1      34.083  49.653   0.222  1.00  0.00     0.683 A 
HETATM    2  N3  UNL     1      34.485  49.271   1.417  1.00  0.00    -0.182 N 
ATOM      3  H3  UNL     1      34.944  49.854   2.116  1.00  0.00     0.184 HD
HETATM    4  C8  UNL     1      34.179  47.986   1.539  1.00  0.00     0.164 A 
HETATM    5  C9  UNL     1      34.394  47.092   2.560  1.00  0.00     0.292 A 
HETATM    6  O2  UNL     1      34.951  47.521   3.603  1.00  0.00    -0.265 OA
HETATM    7  N4  UNL     1      34.013  45.841   2.407  1.00  0.00    -0.148 N 
HETATM    8  C10 UNL     1      34.224  44.880   3.460  1.00  0.00     0.179 C 
HETATM    9  C11 UNL     1      33.424  45.461   1.262  1.00  0.00     0.724 A 
HETATM   10  N5  UNL     1      33.078  44.150   1.168  1.00  0.00    -0.021 N 
ATOM     11  H5  UNL     1      33.257  43.518   1.949  1.00  0.00     0.203 HD
HETATM   12  C12 UNL     1      32.509  43.694   0.061  1.00  0.00     0.705 A 
HETATM   13  N7  UNL     1      32.272  44.511  -0.959  1.00  0.00    -0.021 N 
ATOM     14  H7  UNL     1      31.833  44.144  -1.803  1.00  0.00     0.203 HD
HETATM   15  C13 UNL     1      32.607  45.841  -0.899  1.00  0.00     0.722 A 
HETATM   16  N8  UNL     1      32.295  46.432  -1.926  1.00  0.00    -0.162 N 
ATOM     17  H8  UNL     1      32.513  47.428  -1.959  1.00  0.00     0.187 HD
HETATM   18  C14 UNL     1      31.662  45.887  -3.077  1.00  0.00     0.200 C 
HETATM   19  N9  UNL     1      30.386  45.910  -3.096  1.00  0.00    -0.373 N 
ATOM     20  H91 UNL     1      29.932  45.518  -3.921  1.00  0.00     0.158 HD
ATOM     21  H92 UNL     1      29.916  46.316  -2.287  1.00  0.00     0.158 HD
HETATM   22  N10 UNL     1      32.310  45.328  -4.191  1.00  0.00    -0.063 NA
HETATM   23  N11 UNL     1      33.175  46.278   0.209  1.00  0.00     0.043 N 
HETATM   24  C15 UNL     1      33.559  47.581   0.343  1.00  0.00     0.198 A 
HETATM   25  N12 UNL     1      33.490  48.602  -0.482  1.00  0.00    -0.162 N 
ENDROOT
BRANCH   1  26
HETATM   26  N2  UNL     1      34.260  50.866  -0.209  1.00  0.00    -0.221 N 
ATOM     27  H2  UNL     1      34.049  51.073  -1.185  1.00  0.00     0.178 HD
BRANCH  26  28
HETATM   28  C6  UNL     1      34.734  51.914   0.618  1.00  0.00     0.179 C 
BRANCH  28  29
HETATM   29  C5  UNL     1      36.136  52.247   0.237  1.00  0.00    -0.006 A 
HETATM   30  C4  UNL     1      37.125  52.684   1.093  1.00  0.00     0.122 A 
HETATM   31  N1  UNL     1      38.264  52.886   0.406  1.00  0.00    -0.280 N 
HETATM   32  N13 UNL     1      37.999  52.580  -0.860  1.00  0.00    -0.308 N 
HETATM   33  C18 UNL     1      36.724  52.189  -1.002  1.00  0.00     0.117 A 
ATOM     34  H13 UNL     1      38.675  52.635  -1.622  1.00  0.00     0.186 HD
BRANCH  31  35
HETATM   35  C3  UNL     1      39.537  53.350   0.954  1.00  0.00     0.315 C 
BRANCH  35  36
HETATM   36  O1  UNL     1      39.817  54.655   0.612  1.00  0.00    -0.371 OA
BRANCH  36  37
HETATM   37  C2  UNL     1      38.958  55.577   1.150  1.00  0.00     0.165 C 
HETATM   38  C1  UNL     1      38.278  56.450   0.130  1.00  0.00     0.033 C 
ENDBRANCH  36  37
ENDBRANCH  35  36
ENDBRANCH  31  35
ENDBRANCH  28  29
ENDBRANCH  26  28
ENDBRANCH   1  26
BRANCH  25  39
HETATM   39  C16 UNL     1      33.054  48.907  -1.771  1.00  0.00     0.175 C 
BRANCH  39  40
HETATM   40  C17 UNL     1      31.675  49.589  -1.835  1.00  0.00     0.185 C 
BRANCH  40  41
HETATM   41  O3  UNL     1      30.613  48.797  -1.544  1.00  0.00    -0.399 OA
ATOM     42  H3  UNL     1      30.740  47.867  -1.691  1.00  0.00     0.209 HD
ENDBRANCH  40  41
ENDBRANCH  39  40
ENDBRANCH  25  39
BRANCH  12  43
HETATM   43  N6  UNL     1      32.189  42.451  -0.025  1.00  0.00    -0.234 N 
ATOM     44  H62 UNL     1      32.202  41.864   0.808  1.00  0.00     0.174 HD
ATOM     45  H61 UNL     1      31.920  42.060  -0.928  1.00  0.00     0.174 HD
ENDBRANCH  12  43
TORSDOF 10
ENDMDL
MODEL 4
REMARK VINA RESULT: -5.701959631      2.459      8.498
REMARK  10 active torsions:
REMARK  status: ('A' for Active; 'I' for Inactive)
REMARK    1  A    between atoms: C2_2  and  O1_3 
REMARK    2  A    between atoms: O1_3  and  C3_4 
REMARK    3  A    between atoms: C3_4  and  N1_5 
REMARK    4  A    between atoms: C5_7  and  C6_8 
REMARK    5  A    between atoms: C6_8  and  N2_9 
REMARK    6  A    between atoms: N2_9  and  C7_11 
REMARK    7  A    between atoms: C12_22  and  N6_23 
REMARK       I    between atoms: N8_29  and  C14_31 
REMARK    8  A    between atoms: N12_38  and  C16_39 
REMARK    9  A    between atoms: C16_39  and  C17_40 
REMARK   10  A    between atoms: C17_40  and  O3_41 
ROOT
HETATM    1  C7  UNL     1      33.738  49.619  -0.747  1.00  0.00     0.683 A 
HETATM    2  N3  UNL     1      33.601  49.577  -2.057  1.00  0.00    -0.182 N 
ATOM      3  H3  UNL     1      33.928  50.276  -2.723  1.00  0.00     0.184 HD
HETATM    4  C8  UNL     1      32.959  48.453  -2.345  1.00  0.00     0.164 A 
HETATM    5  C9  UNL     1      32.535  47.927  -3.542  1.00  0.00     0.292 A 
HETATM    6  O2  UNL     1      32.804  48.570  -4.589  1.00  0.00    -0.265 OA
HETATM    7  N4  UNL     1      31.876  46.786  -3.543  1.00  0.00    -0.148 N 
HETATM    8  C10 UNL     1      31.420  46.210  -4.782  1.00  0.00     0.179 C 
HETATM    9  C11 UNL     1      31.629  46.160  -2.382  1.00  0.00     0.724 A 
HETATM   10  N5  UNL     1      30.924  45.000  -2.460  1.00  0.00    -0.021 N 
ATOM     11  H5  UNL     1      30.627  44.645  -3.369  1.00  0.00     0.203 HD
HETATM   12  C12 UNL     1      30.624  44.333  -1.354  1.00  0.00     0.705 A 
HETATM   13  N7  UNL     1      31.009  44.790  -0.168  1.00  0.00    -0.021 N 
ATOM     14  H7  UNL     1      30.770  44.263   0.672  1.00  0.00     0.203 HD
HETATM   15  C13 UNL     1      31.723  45.957  -0.051  1.00  0.00     0.722 A 
HETATM   16  N8  UNL     1      31.999  46.201   1.117  1.00  0.00    -0.162 N 
ATOM     17  H8  UNL     1      32.530  47.056   1.287  1.00  0.00     0.187 HD
HETATM   18  C14 UNL     1      31.665  45.428   2.263  1.00  0.00     0.200 C 
HETATM   19  N9  UNL     1      32.507  44.537   2.620  1.00  0.00    -0.373 N 
ATOM     20  H91 UNL     1      32.267  43.982   3.442  1.00  0.00     0.158 HD
ATOM     21  H92 UNL     1      33.353  44.445   2.059  1.00  0.00     0.158 HD
HETATM   22  N10 UNL     1      30.499  45.556   3.037  1.00  0.00    -0.063 NA
HETATM   23  N11 UNL     1      32.011  46.610  -1.161  1.00  0.00     0.043 N 
HETATM   24  C15 UNL     1      32.698  47.789  -1.132  1.00  0.00     0.198 A 
HETATM   25  N12 UNL     1      33.176  48.497  -0.133  1.00  0.00    -0.162 N 
ENDROOT
BRANCH   1  26
HETATM   26  N2  UNL     1      34.316  50.618  -0.148  1.00  0.00    -0.221 N 
ATOM     27  H2  UNL     1      34.586  50.510   0.830  1.00  0.00     0.178 HD
BRANCH  26  28
HETATM   28  C6  UNL     1      34.587  51.849  -0.793  1.00  0.00     0.179 C 
BRANCH  28  29
HETATM   29  C5  UNL     1      36.034  52.175  -0.643  1.00  0.00    -0.006 A 
HETATM   30  C4  UNL     1      36.702  52.362   0.548  1.00  0.00     0.122 A 
HETATM   31  N1  UNL     1      37.995  52.642   0.306  1.00  0.00    -0.280 N 
HETATM   32  N13 UNL     1      38.141  52.630  -1.015  1.00  0.00    -0.308 N 
HETATM   33  C18 UNL     1      36.979  52.352  -1.623  1.00  0.00     0.117 A 
ATOM     34  H13 UNL     1      39.020  52.809  -1.502  1.00  0.00     0.186 HD
BRANCH  31  35
HETATM   35  C3  UNL     1      39.028  52.904   1.306  1.00  0.00     0.315 C 
BRANCH  35  36
HETATM   36  O1  UNL     1      39.074  51.938   2.287  1.00  0.00    -0.371 OA
BRANCH  36  37
HETATM   37  C2  UNL     1      38.997  52.427   3.565  1.00  0.00     0.165 C 
HETATM   38  C1  UNL     1      38.951  53.929   3.644  1.00  0.00     0.033 C 
ENDBRANCH  36  37
ENDBRANCH  35  36
ENDBRANCH  31  35
ENDBRANCH  28  29
ENDBRANCH  26  28
ENDBRANCH   1  26
BRANCH  25  39
HETATM   39  C16 UNL     1      33.253  48.467   1.259  1.00  0.00     0.175 C 
BRANCH  39  40
HETATM   40  C17 UNL     1      34.608  47.994   1.815  1.00  0.00     0.185 C 
BRANCH  40  41
HETATM   41  O3  UNL     1      34.840  46.659   1.741  1.00  0.00    -0.399 OA
ATOM     42  H3  UNL     1      34.302  46.116   2.305  1.00  0.00     0.209 HD
ENDBRANCH  40  41
ENDBRANCH  39  40
ENDBRANCH  25  39
BRANCH  12  43
HETATM   43  N6  UNL     1      29.952  43.239  -1.434  1.00  0.00    -0.234 N 
ATOM     44  H62 UNL     1      29.690  42.869  -2.346  1.00  0.00     0.174 HD
ATOM     45  H61 UNL     1      29.688  42.746  -0.581  1.00  0.00     0.174 HD
ENDBRANCH  12  43
TORSDOF 10
ENDMDL
MODEL 5
REMARK VINA RESULT: -5.680333390      1.471      2.075
REMARK  10 active torsions:
REMARK  status: ('A' for Active; 'I' for Inactive)
REMARK    1  A    between atoms: C2_2  and  O1_3 
REMARK    2  A    between atoms: O1_3  and  C3_4 
REMARK    3  A    between atoms: C3_4  and  N1_5 
REMARK    4  A    between atoms: C5_7  and  C6_8 
REMARK    5  A    between atoms: C6_8  and  N2_9 
REMARK    6  A    between atoms: N2_9  and  C7_11 
REMARK    7  A    between atoms: C12_22  and  N6_23 
REMARK       I    between atoms: N8_29  and  C14_31 
REMARK    8  A    between atoms: N12_38  and  C16_39 
REMARK    9  A    between atoms: C16_39  and  C17_40 
REMARK   10  A    between atoms: C17_40  and  O3_41 
ROOT
HETATM    1  C7  UNL     1      34.022  49.824   0.662  1.00  0.00     0.683 A 
HETATM    2  N3  UNL     1      34.986  50.300   1.424  1.00  0.00    -0.182 N 
ATOM      3  H3  UNL     1      35.125  50.107   2.415  1.00  0.00     0.184 HD
HETATM    4  C8  UNL     1      35.742  51.075   0.657  1.00  0.00     0.164 A 
HETATM    5  C9  UNL     1      36.853  51.831   0.942  1.00  0.00     0.292 A 
HETATM    6  O2  UNL     1      37.295  51.798   2.119  1.00  0.00    -0.265 OA
HETATM    7  N4  UNL     1      37.402  52.549  -0.017  1.00  0.00    -0.148 N 
HETATM    8  C10 UNL     1      38.568  53.352   0.251  1.00  0.00     0.179 C 
HETATM    9  C11 UNL     1      36.870  52.531  -1.249  1.00  0.00     0.724 A 
HETATM   10  N5  UNL     1      37.477  53.313  -2.179  1.00  0.00    -0.021 N 
ATOM     11  H5  UNL     1      38.299  53.862  -1.927  1.00  0.00     0.203 HD
HETATM   12  C12 UNL     1      36.999  53.364  -3.415  1.00  0.00     0.705 A 
HETATM   13  N7  UNL     1      35.929  52.651  -3.751  1.00  0.00    -0.021 N 
ATOM     14  H7  UNL     1      35.575  52.701  -4.706  1.00  0.00     0.203 HD
HETATM   15  C13 UNL     1      35.291  51.849  -2.838  1.00  0.00     0.722 A 
HETATM   16  N8  UNL     1      34.340  51.262  -3.340  1.00  0.00    -0.162 N 
ATOM     17  H8  UNL     1      33.813  50.645  -2.722  1.00  0.00     0.187 HD
HETATM   18  C14 UNL     1      33.889  51.342  -4.686  1.00  0.00     0.200 C 
HETATM   19  N9  UNL     1      34.389  50.503  -5.510  1.00  0.00    -0.373 N 
ATOM     20  H91 UNL     1      34.065  50.560  -6.476  1.00  0.00     0.158 HD
ATOM     21  H92 UNL     1      35.071  49.840  -5.143  1.00  0.00     0.158 HD
HETATM   22  N10 UNL     1      32.948  52.254  -5.192  1.00  0.00    -0.063 NA
HETATM   23  N11 UNL     1      35.778  51.813  -1.612  1.00  0.00     0.043 N 
HETATM   24  C15 UNL     1      35.191  51.058  -0.637  1.00  0.00     0.198 A 
HETATM   25  N12 UNL     1      34.127  50.287  -0.652  1.00  0.00    -0.162 N 
ENDROOT
BRANCH   1  26
HETATM   26  N2  UNL     1      33.097  49.040   1.132  1.00  0.00    -0.221 N 
ATOM     27  H2  UNL     1      32.122  49.267   0.941  1.00  0.00     0.178 HD
BRANCH  26  28
HETATM   28  C6  UNL     1      33.387  47.883   1.897  1.00  0.00     0.179 C 
BRANCH  28  29
HETATM   29  C5  UNL     1      33.293  46.679   1.023  1.00  0.00    -0.006 A 
HETATM   30  C4  UNL     1      32.418  46.508  -0.029  1.00  0.00     0.122 A 
HETATM   31  N1  UNL     1      32.614  45.303  -0.592  1.00  0.00    -0.280 N 
HETATM   32  N13 UNL     1      33.596  44.724   0.090  1.00  0.00    -0.308 N 
HETATM   33  C18 UNL     1      34.033  45.524   1.074  1.00  0.00     0.117 A 
ATOM     34  H13 UNL     1      33.968  43.795  -0.107  1.00  0.00     0.186 HD
BRANCH  31  35
HETATM   35  C3  UNL     1      31.885  44.749  -1.731  1.00  0.00     0.315 C 
BRANCH  35  36
HETATM   36  O1  UNL     1      32.453  45.086  -2.940  1.00  0.00    -0.371 OA
BRANCH  36  37
HETATM   37  C2  UNL     1      31.739  46.004  -3.665  1.00  0.00     0.165 C 
HETATM   38  C1  UNL     1      32.471  47.296  -3.908  1.00  0.00     0.033 C 
ENDBRANCH  36  37
ENDBRANCH  35  36
ENDBRANCH  31  35
ENDBRANCH  28  29
ENDBRANCH  26  28
ENDBRANCH   1  26
BRANCH  25  39
HETATM   39  C16 UNL     1      33.133  49.854  -1.528  1.00  0.00     0.175 C 
BRANCH  39  40
HETATM   40  C17 UNL     1      31.803  50.622  -1.417  1.00  0.00     0.185 C 
BRANCH  40  41
HETATM   41  O3  UNL     1      31.732  51.778  -2.122  1.00  0.00    -0.399 OA
ATOM     42  H3  UNL     1      31.773  51.687  -3.067  1.00  0.00     0.209 HD
ENDBRANCH  40  41
ENDBRANCH  39  40
ENDBRANCH  25  39
BRANCH  12  43
HETATM   43  N6  UNL     1      37.573  54.110  -4.290  1.00  0.00    -0.234 N 
ATOM     44  H62 UNL     1      38.258  53.709  -4.930  1.00  0.00     0.174 HD
ATOM     45  H61 UNL     1      37.338  55.101  -4.342  1.00  0.00     0.174 HD
ENDBRANCH  12  43
TORSDOF 10
ENDMDL
