MODEL 1
REMARK VINA RESULT: -9.735684578      0.000      0.000
REMARK  15 active torsions:
REMARK  status: ('A' for Active; 'I' for Inactive)
REMARK    1  A    between atoms: N1_1  and  C1_4 
REMARK    2  A    between atoms: C2_7  and  O1_8 
REMARK    3  A    between atoms: O1_8  and  C3_9 
REMARK    4  A    between atoms: C3_9  and  C4_10 
REMARK       I    between atoms: C4_10  and  N3_12 
REMARK    5  A    between atoms: N3_12  and  N4_14 
REMARK    6  A    between atoms: N7_22  and  C6_23 
REMARK    7  A    between atoms: C7_25  and  C8_26 
REMARK       I    between atoms: C8_26  and  N8_28 
REMARK    8  A    between atoms: N8_28  and  C9_30 
REMARK    9  A    between atoms: C9_30  and  C10_31 
REMARK   10  A    between atoms: C10_31  and  O5_32 
REMARK   11  A    between atoms: C12_35  and  O6_36 
REMARK   12  A    between atoms: C13_38  and  O7_39 
REMARK   13  A    between atoms: C14_41  and  O8_42 
REMARK   14  A    between atoms: C15_44  and  O9_45 
REMARK   15  A    between atoms: C16_47  and  O10_48 
ROOT
HETATM    1  C6  UNL     1      22.400  16.398  19.494  1.00  0.00     0.279 C 
HETATM    2  O3  UNL     1      22.806  17.669  19.833  1.00  0.00    -0.345 OA
HETATM    3  C7  UNL     1      22.262  18.531  18.887  1.00  0.00     0.247 C 
HETATM    4  C15 UNL     1      20.949  17.948  18.476  1.00  0.00     0.189 C 
HETATM    5  C16 UNL     1      21.176  16.470  18.633  1.00  0.00     0.200 C 
ENDROOT
BRANCH   1   6
HETATM    6  N7  UNL     1      22.292  15.474  20.574  1.00  0.00    -0.227 N 
HETATM    7  N6  UNL     1      21.451  14.432  20.676  1.00  0.00    -0.236 N 
HETATM    8  N5  UNL     1      21.662  13.827  21.821  1.00  0.00    -0.279 N 
ATOM      9  H6  UNL     1      20.761  14.155  19.978  1.00  0.00     0.208 HD
HETATM   10  C5  UNL     1      22.646  14.449  22.510  1.00  0.00     0.147 A 
ATOM     11  H5  UNL     1      21.155  13.004  22.147  1.00  0.00     0.189 HD
HETATM   12  C2  UNL     1      23.276  14.289  23.701  1.00  0.00     0.190 A 
HETATM   13  C17 UNL     1      23.037  15.503  21.692  1.00  0.00     0.174 A 
HETATM   14  N2  UNL     1      24.252  15.141  24.065  1.00  0.00    -0.168 N 
HETATM   15  C1  UNL     1      24.644  16.163  23.292  1.00  0.00     0.679 A 
ATOM     16  H2  UNL     1      24.712  15.003  24.966  1.00  0.00     0.186 HD
HETATM   17  N9  UNL     1      24.018  16.319  22.110  1.00  0.00    -0.173 N 
ATOM     18  H9  UNL     1      24.301  17.091  21.507  1.00  0.00     0.186 HD
BRANCH  12  19
HETATM   19  O1  UNL     1      22.907  13.251  24.529  1.00  0.00    -0.324 OA
BRANCH  19  20
HETATM   20  C3  UNL     1      21.893  13.356  25.491  1.00  0.00     0.282 C 
BRANCH  20  21
HETATM   21  C4  UNL     1      22.427  14.044  26.677  1.00  0.00     0.259 C 
HETATM   22  O2  UNL     1      23.607  13.835  27.032  1.00  0.00    -0.269 OA
HETATM   23  N3  UNL     1      21.624  14.931  27.411  1.00  0.00    -0.275 N 
ATOM     24  H3  UNL     1      20.662  15.097  27.114  1.00  0.00     0.189 HD
BRANCH  23  25
HETATM   25  N4  UNL     1      22.112  15.589  28.534  1.00  0.00    -0.343 N 
ATOM     26  H42 UNL     1      22.943  16.172  28.431  1.00  0.00     0.176 HD
ATOM     27  H41 UNL     1      21.657  15.497  29.442  1.00  0.00     0.176 HD
ENDBRANCH  23  25
ENDBRANCH  20  21
ENDBRANCH  19  20
ENDBRANCH  12  19
BRANCH  15  28
HETATM   28  N1  UNL     1      25.578  16.990  23.625  1.00  0.00    -0.234 N 
ATOM     29  H12 UNL     1      25.350  17.788  24.219  1.00  0.00     0.174 HD
ATOM     30  H11 UNL     1      26.548  16.892  23.326  1.00  0.00     0.174 HD
ENDBRANCH  15  28
ENDBRANCH   1   6
BRANCH   5  31
HETATM   31  O10 UNL     1      20.132  15.852  19.327  1.00  0.00    -0.388 OA
ATOM     32  H10 UNL     1      19.655  16.529  19.793  1.00  0.00     0.210 HD
ENDBRANCH   5  31
BRANCH   3  33
HETATM   33  C8  UNL     1      23.180  18.846  17.783  1.00  0.00     0.249 C 
HETATM   34  O4  UNL     1      24.239  18.137  17.670  1.00  0.00    -0.271 OA
HETATM   35  N8  UNL     1      22.955  19.882  16.849  1.00  0.00    -0.356 N 
ATOM     36  H8  UNL     1      22.115  20.455  16.927  1.00  0.00     0.162 HD
BRANCH  35  37
HETATM   37  C9  UNL     1      23.894  20.141  15.788  1.00  0.00     0.163 C 
BRANCH  37  38
HETATM   38  C10 UNL     1      23.357  19.824  14.433  1.00  0.00     0.104 C 
HETATM   39  C11 UNL     1      24.530  19.767  13.467  1.00  0.00     0.076 C 
HETATM   40  C12 UNL     1      24.886  21.219  13.232  1.00  0.00     0.152 C 
HETATM   41  C13 UNL     1      23.625  22.018  13.508  1.00  0.00     0.178 C 
HETATM   42  C14 UNL     1      22.576  20.986  13.908  1.00  0.00     0.185 C 
BRANCH  38  43
HETATM   43  O5  UNL     1      22.679  18.627  14.375  1.00  0.00    -0.385 OA
ATOM     44  H5  UNL     1      23.070  17.996  13.783  1.00  0.00     0.210 HD
ENDBRANCH  38  43
BRANCH  40  45
HETATM   45  O6  UNL     1      25.285  21.450  11.918  1.00  0.00    -0.393 OA
ATOM     46  H6  UNL     1      25.672  22.311  11.811  1.00  0.00     0.210 HD
ENDBRANCH  40  45
BRANCH  41  47
HETATM   47  O7  UNL     1      23.206  22.720  12.373  1.00  0.00    -0.390 OA
ATOM     48  H7  UNL     1      22.264  22.672  12.263  1.00  0.00     0.210 HD
ENDBRANCH  41  47
BRANCH  42  49
HETATM   49  O8  UNL     1      21.879  20.643  12.740  1.00  0.00    -0.390 OA
ATOM     50  H8  UNL     1      22.432  20.730  11.972  1.00  0.00     0.210 HD
ENDBRANCH  42  49
ENDBRANCH  37  38
ENDBRANCH  35  37
ENDBRANCH   3  33
BRANCH   4  51
HETATM   51  O9  UNL     1      20.719  18.187  17.121  1.00  0.00    -0.390 OA
ATOM     52  H9  UNL     1      20.922  17.412  16.612  1.00  0.00     0.210 HD
ENDBRANCH   4  51
TORSDOF 15
ENDMDL
MODEL 2
REMARK VINA RESULT: -9.560176526      1.097      1.248
REMARK  15 active torsions:
REMARK  status: ('A' for Active; 'I' for Inactive)
REMARK    1  A    between atoms: N1_1  and  C1_4 
REMARK    2  A    between atoms: C2_7  and  O1_8 
REMARK    3  A    between atoms: O1_8  and  C3_9 
REMARK    4  A    between atoms: C3_9  and  C4_10 
REMARK       I    between atoms: C4_10  and  N3_12 
REMARK    5  A    between atoms: N3_12  and  N4_14 
REMARK    6  A    between atoms: N7_22  and  C6_23 
REMARK    7  A    between atoms: C7_25  and  C8_26 
REMARK       I    between atoms: C8_26  and  N8_28 
REMARK    8  A    between atoms: N8_28  and  C9_30 
REMARK    9  A    between atoms: C9_30  and  C10_31 
REMARK   10  A    between atoms: C10_31  and  O5_32 
REMARK   11  A    between atoms: C12_35  and  O6_36 
REMARK   12  A    between atoms: C13_38  and  O7_39 
REMARK   13  A    between atoms: C14_41  and  O8_42 
REMARK   14  A    between atoms: C15_44  and  O9_45 
REMARK   15  A    between atoms: C16_47  and  O10_48 
ROOT
HETATM    1  C6  UNL     1      22.642  15.932  20.502  1.00  0.00     0.279 C 
HETATM    2  O3  UNL     1      22.737  17.299  20.630  1.00  0.00    -0.345 OA
HETATM    3  C7  UNL     1      22.036  17.853  19.565  1.00  0.00     0.247 C 
HETATM    4  C15 UNL     1      20.902  16.926  19.265  1.00  0.00     0.189 C 
HETATM    5  C16 UNL     1      21.457  15.584  19.654  1.00  0.00     0.200 C 
ENDROOT
BRANCH   1   6
HETATM    6  N7  UNL     1      22.719  15.189  21.717  1.00  0.00    -0.227 N 
HETATM    7  N6  UNL     1      22.015  14.095  22.051  1.00  0.00    -0.236 N 
HETATM    8  N5  UNL     1      22.376  13.710  23.252  1.00  0.00    -0.279 N 
ATOM      9  H6  UNL     1      21.315  13.639  21.467  1.00  0.00     0.208 HD
HETATM   10  C5  UNL     1      23.327  14.535  23.747  1.00  0.00     0.147 A 
ATOM     11  H5  UNL     1      21.993  12.903  23.744  1.00  0.00     0.189 HD
HETATM   12  C2  UNL     1      24.053  14.637  24.889  1.00  0.00     0.190 A 
HETATM   13  C17 UNL     1      23.533  15.477  22.747  1.00  0.00     0.174 A 
HETATM   14  N2  UNL     1      24.946  15.634  25.031  1.00  0.00    -0.168 N 
HETATM   15  C1  UNL     1      25.160  16.553  24.078  1.00  0.00     0.679 A 
ATOM     16  H2  UNL     1      25.481  15.694  25.897  1.00  0.00     0.186 HD
HETATM   17  N9  UNL     1      24.438  16.449  22.946  1.00  0.00    -0.173 N 
ATOM     18  H9  UNL     1      24.586  17.137  22.209  1.00  0.00     0.186 HD
BRANCH  12  19
HETATM   19  O1  UNL     1      23.868  13.715  25.895  1.00  0.00    -0.324 OA
BRANCH  19  20
HETATM   20  C3  UNL     1      22.796  13.763  26.798  1.00  0.00     0.282 C 
BRANCH  20  21
HETATM   21  C4  UNL     1      23.023  14.859  27.754  1.00  0.00     0.259 C 
HETATM   22  O2  UNL     1      24.193  15.200  28.034  1.00  0.00    -0.269 OA
HETATM   23  N3  UNL     1      21.941  15.523  28.352  1.00  0.00    -0.275 N 
ATOM     24  H3  UNL     1      20.990  15.239  28.117  1.00  0.00     0.189 HD
BRANCH  23  25
HETATM   25  N4  UNL     1      22.138  16.560  29.257  1.00  0.00    -0.343 N 
ATOM     26  H42 UNL     1      21.971  17.515  28.942  1.00  0.00     0.176 HD
ATOM     27  H41 UNL     1      22.442  16.378  30.213  1.00  0.00     0.176 HD
ENDBRANCH  23  25
ENDBRANCH  20  21
ENDBRANCH  19  20
ENDBRANCH  12  19
BRANCH  15  28
HETATM   28  N1  UNL     1      26.012  17.515  24.196  1.00  0.00    -0.234 N 
ATOM     29  H12 UNL     1      25.834  18.401  23.721  1.00  0.00     0.174 HD
ATOM     30  H11 UNL     1      26.868  17.444  24.746  1.00  0.00     0.174 HD
ENDBRANCH  15  28
ENDBRANCH   1   6
BRANCH   5  31
HETATM   31  O10 UNL     1      20.564  14.860  20.448  1.00  0.00    -0.388 OA
ATOM     32  H10 UNL     1      19.945  14.431  19.868  1.00  0.00     0.210 HD
ENDBRANCH   5  31
BRANCH   3  33
HETATM   33  C8  UNL     1      22.887  18.193  18.416  1.00  0.00     0.249 C 
HETATM   34  O4  UNL     1      24.043  17.649  18.350  1.00  0.00    -0.271 OA
HETATM   35  N8  UNL     1      22.497  19.082  17.389  1.00  0.00    -0.356 N 
ATOM     36  H8  UNL     1      21.578  19.523  17.428  1.00  0.00     0.162 HD
BRANCH  35  37
HETATM   37  C9  UNL     1      23.378  19.375  16.287  1.00  0.00     0.163 C 
BRANCH  37  38
HETATM   38  C10 UNL     1      22.713  19.272  14.955  1.00  0.00     0.104 C 
HETATM   39  C11 UNL     1      23.749  18.791  13.952  1.00  0.00     0.076 C 
HETATM   40  C12 UNL     1      24.599  20.015  13.683  1.00  0.00     0.152 C 
HETATM   41  C13 UNL     1      23.725  21.218  13.989  1.00  0.00     0.178 C 
HETATM   42  C14 UNL     1      22.388  20.637  14.439  1.00  0.00     0.185 C 
BRANCH  38  43
HETATM   43  O5  UNL     1      21.645  18.403  14.938  1.00  0.00    -0.385 OA
ATOM     44  H5  UNL     1      20.900  18.706  15.443  1.00  0.00     0.210 HD
ENDBRANCH  38  43
BRANCH  40  45
HETATM   45  O6  UNL     1      25.006  20.082  12.353  1.00  0.00    -0.393 OA
ATOM     46  H6  UNL     1      25.001  20.974  12.026  1.00  0.00     0.210 HD
ENDBRANCH  40  45
BRANCH  41  47
HETATM   47  O7  UNL     1      23.548  22.021  12.858  1.00  0.00    -0.390 OA
ATOM     48  H7  UNL     1      24.178  21.810  12.179  1.00  0.00     0.210 HD
ENDBRANCH  41  47
BRANCH  42  49
HETATM   49  O8  UNL     1      21.572  20.568  13.301  1.00  0.00    -0.390 OA
ATOM     50  H8  UNL     1      22.038  20.183  12.568  1.00  0.00     0.210 HD
ENDBRANCH  42  49
ENDBRANCH  37  38
ENDBRANCH  35  37
ENDBRANCH   3  33
BRANCH   4  51
HETATM   51  O9  UNL     1      20.660  16.890  17.892  1.00  0.00    -0.390 OA
ATOM     52  H9  UNL     1      19.922  16.323  17.704  1.00  0.00     0.210 HD
ENDBRANCH   4  51
TORSDOF 15
ENDMDL
MODEL 3
REMARK VINA RESULT: -9.341497461      1.634      2.227
REMARK  15 active torsions:
REMARK  status: ('A' for Active; 'I' for Inactive)
REMARK    1  A    between atoms: N1_1  and  C1_4 
REMARK    2  A    between atoms: C2_7  and  O1_8 
REMARK    3  A    between atoms: O1_8  and  C3_9 
REMARK    4  A    between atoms: C3_9  and  C4_10 
REMARK       I    between atoms: C4_10  and  N3_12 
REMARK    5  A    between atoms: N3_12  and  N4_14 
REMARK    6  A    between atoms: N7_22  and  C6_23 
REMARK    7  A    between atoms: C7_25  and  C8_26 
REMARK       I    between atoms: C8_26  and  N8_28 
REMARK    8  A    between atoms: N8_28  and  C9_30 
REMARK    9  A    between atoms: C9_30  and  C10_31 
REMARK   10  A    between atoms: C10_31  and  O5_32 
REMARK   11  A    between atoms: C12_35  and  O6_36 
REMARK   12  A    between atoms: C13_38  and  O7_39 
REMARK   13  A    between atoms: C14_41  and  O8_42 
REMARK   14  A    between atoms: C15_44  and  O9_45 
REMARK   15  A    between atoms: C16_47  and  O10_48 
ROOT
HETATM    1  C6  UNL     1      22.959  16.361  20.670  1.00  0.00     0.279 C 
HETATM    2  O3  UNL     1      22.453  17.636  20.799  1.00  0.00    -0.345 OA
HETATM    3  C7  UNL     1      21.469  17.779  19.826  1.00  0.00     0.247 C 
HETATM    4  C15 UNL     1      20.838  16.436  19.651  1.00  0.00     0.189 C 
HETATM    5  C16 UNL     1      21.966  15.492  19.961  1.00  0.00     0.200 C 
ENDROOT
BRANCH   1   6
HETATM    6  N7  UNL     1      23.486  15.781  21.861  1.00  0.00    -0.227 N 
HETATM    7  N6  UNL     1      23.281  14.537  22.323  1.00  0.00    -0.236 N 
HETATM    8  N5  UNL     1      23.940  14.390  23.448  1.00  0.00    -0.279 N 
ATOM      9  H6  UNL     1      22.708  13.824  21.874  1.00  0.00     0.208 HD
HETATM   10  C5  UNL     1      24.599  15.528  23.763  1.00  0.00     0.147 A 
ATOM     11  H5  UNL     1      23.953  13.536  24.007  1.00  0.00     0.189 HD
HETATM   12  C2  UNL     1      25.411  15.959  24.761  1.00  0.00     0.190 A 
HETATM   13  C17 UNL     1      24.295  16.409  22.732  1.00  0.00     0.174 A 
HETATM   14  N2  UNL     1      25.900  17.213  24.736  1.00  0.00    -0.168 N 
HETATM   15  C1  UNL     1      25.619  18.078  23.751  1.00  0.00     0.679 A 
ATOM     16  H2  UNL     1      26.508  17.517  25.497  1.00  0.00     0.186 HD
HETATM   17  N9  UNL     1      24.813  17.647  22.762  1.00  0.00    -0.173 N 
ATOM     18  H9  UNL     1      24.587  18.289  22.003  1.00  0.00     0.186 HD
BRANCH  12  19
HETATM   19  O1  UNL     1      25.728  15.104  25.794  1.00  0.00    -0.324 OA
BRANCH  19  20
HETATM   20  C3  UNL     1      25.124  15.165  27.058  1.00  0.00     0.282 C 
BRANCH  20  21
HETATM   21  C4  UNL     1      23.772  14.592  26.971  1.00  0.00     0.259 C 
HETATM   22  O2  UNL     1      23.630  13.392  26.647  1.00  0.00    -0.269 OA
HETATM   23  N3  UNL     1      22.642  15.378  27.249  1.00  0.00    -0.275 N 
ATOM     24  H3  UNL     1      22.767  16.355  27.513  1.00  0.00     0.189 HD
BRANCH  23  25
HETATM   25  N4  UNL     1      21.358  14.852  27.171  1.00  0.00    -0.343 N 
ATOM     26  H42 UNL     1      20.589  15.390  27.572  1.00  0.00     0.176 HD
ATOM     27  H41 UNL     1      21.180  13.952  26.726  1.00  0.00     0.176 HD
ENDBRANCH  23  25
ENDBRANCH  20  21
ENDBRANCH  19  20
ENDBRANCH  12  19
BRANCH  15  28
HETATM   28  N1  UNL     1      26.079  19.283  23.711  1.00  0.00    -0.234 N 
ATOM     29  H12 UNL     1      25.834  19.936  24.456  1.00  0.00     0.174 HD
ATOM     30  H11 UNL     1      26.683  19.630  22.966  1.00  0.00     0.174 HD
ENDBRANCH  15  28
ENDBRANCH   1   6
BRANCH   5  31
HETATM   31  O10 UNL     1      21.576  14.484  20.846  1.00  0.00    -0.388 OA
ATOM     32  H10 UNL     1      21.777  13.649  20.439  1.00  0.00     0.210 HD
ENDBRANCH   5  31
BRANCH   3  33
HETATM   33  C8  UNL     1      21.954  18.409  18.590  1.00  0.00     0.249 C 
HETATM   34  O4  UNL     1      23.161  18.174  18.236  1.00  0.00    -0.271 OA
HETATM   35  N8  UNL     1      21.161  19.253  17.779  1.00  0.00    -0.356 N 
ATOM     36  H8  UNL     1      20.198  19.449  18.050  1.00  0.00     0.162 HD
BRANCH  35  37
HETATM   37  C9  UNL     1      21.695  19.841  16.577  1.00  0.00     0.163 C 
BRANCH  37  38
HETATM   38  C10 UNL     1      21.411  19.039  15.351  1.00  0.00     0.104 C 
HETATM   39  C11 UNL     1      22.731  18.796  14.637  1.00  0.00     0.076 C 
HETATM   40  C12 UNL     1      23.041  20.119  13.972  1.00  0.00     0.152 C 
HETATM   41  C13 UNL     1      21.711  20.823  13.778  1.00  0.00     0.178 C 
HETATM   42  C14 UNL     1      20.667  19.872  14.357  1.00  0.00     0.185 C 
BRANCH  38  43
HETATM   43  O5  UNL     1      20.819  17.824  15.612  1.00  0.00    -0.385 OA
ATOM     44  H5  UNL     1      20.427  17.420  14.847  1.00  0.00     0.210 HD
ENDBRANCH  38  43
BRANCH  40  45
HETATM   45  O6  UNL     1      23.643  19.946  12.727  1.00  0.00    -0.393 OA
ATOM     46  H6  UNL     1      23.601  20.736  12.201  1.00  0.00     0.210 HD
ENDBRANCH  40  45
BRANCH  41  47
HETATM   47  O7  UNL     1      21.451  21.062  12.426  1.00  0.00    -0.390 OA
ATOM     48  H7  UNL     1      20.871  21.806  12.309  1.00  0.00     0.210 HD
ENDBRANCH  41  47
BRANCH  42  49
HETATM   49  O8  UNL     1      20.197  19.091  13.292  1.00  0.00    -0.390 OA
ATOM     50  H8  UNL     1      20.712  19.234  12.507  1.00  0.00     0.210 HD
ENDBRANCH  42  49
ENDBRANCH  37  38
ENDBRANCH  35  37
ENDBRANCH   3  33
BRANCH   4  51
HETATM   51  O9  UNL     1      20.490  16.238  18.315  1.00  0.00    -0.390 OA
ATOM     52  H9  UNL     1      21.162  16.592  17.746  1.00  0.00     0.210 HD
ENDBRANCH   4  51
TORSDOF 15
ENDMDL
MODEL 4
REMARK VINA RESULT: -9.335248201      1.953      2.698
REMARK  15 active torsions:
REMARK  status: ('A' for Active; 'I' for Inactive)
REMARK    1  A    between atoms: N1_1  and  C1_4 
REMARK    2  A    between atoms: C2_7  and  O1_8 
REMARK    3  A    between atoms: O1_8  and  C3_9 
REMARK    4  A    between atoms: C3_9  and  C4_10 
REMARK       I    between atoms: C4_10  and  N3_12 
REMARK    5  A    between atoms: N3_12  and  N4_14 
REMARK    6  A    between atoms: N7_22  and  C6_23 
REMARK    7  A    between atoms: C7_25  and  C8_26 
REMARK       I    between atoms: C8_26  and  N8_28 
REMARK    8  A    between atoms: N8_28  and  C9_30 
REMARK    9  A    between atoms: C9_30  and  C10_31 
REMARK   10  A    between atoms: C10_31  and  O5_32 
REMARK   11  A    between atoms: C12_35  and  O6_36 
REMARK   12  A    between atoms: C13_38  and  O7_39 
REMARK   13  A    between atoms: C14_41  and  O8_42 
REMARK   14  A    between atoms: C15_44  and  O9_45 
REMARK   15  A    between atoms: C16_47  and  O10_48 
ROOT
HETATM    1  C6  UNL     1      22.826  15.955  20.901  1.00  0.00     0.279 C 
HETATM    2  O3  UNL     1      22.549  17.303  20.921  1.00  0.00    -0.345 OA
HETATM    3  C7  UNL     1      21.606  17.536  19.926  1.00  0.00     0.247 C 
HETATM    4  C15 UNL     1      20.751  16.313  19.847  1.00  0.00     0.189 C 
HETATM    5  C16 UNL     1      21.698  15.216  20.247  1.00  0.00     0.200 C 
ENDROOT
BRANCH   1   6
HETATM    6  N7  UNL     1      23.243  15.389  22.142  1.00  0.00    -0.227 N 
HETATM    7  N6  UNL     1      22.855  14.221  22.678  1.00  0.00    -0.236 N 
HETATM    8  N5  UNL     1      23.464  14.060  23.829  1.00  0.00    -0.279 N 
ATOM      9  H6  UNL     1      22.195  13.566  22.260  1.00  0.00     0.208 HD
HETATM   10  C5  UNL     1      24.271  15.113  24.088  1.00  0.00     0.147 A 
ATOM     11  H5  UNL     1      23.345  13.254  24.442  1.00  0.00     0.189 HD
HETATM   12  C2  UNL     1      25.117  15.493  25.078  1.00  0.00     0.190 A 
HETATM   13  C17 UNL     1      24.116  15.955  22.993  1.00  0.00     0.174 A 
HETATM   14  N2  UNL     1      25.779  16.662  24.986  1.00  0.00    -0.168 N 
HETATM   15  C1  UNL     1      25.642  17.488  23.939  1.00  0.00     0.679 A 
ATOM     16  H2  UNL     1      26.409  16.930  25.742  1.00  0.00     0.186 HD
HETATM   17  N9  UNL     1      24.803  17.108  22.957  1.00  0.00    -0.173 N 
ATOM     18  H9  UNL     1      24.685  17.722  22.152  1.00  0.00     0.186 HD
BRANCH  12  19
HETATM   19  O1  UNL     1      25.290  14.676  26.174  1.00  0.00    -0.324 OA
BRANCH  19  20
HETATM   20  C3  UNL     1      24.969  15.062  27.483  1.00  0.00     0.282 C 
BRANCH  20  21
HETATM   21  C4  UNL     1      23.549  15.443  27.536  1.00  0.00     0.259 C 
HETATM   22  O2  UNL     1      23.237  16.621  27.818  1.00  0.00    -0.269 OA
HETATM   23  N3  UNL     1      22.545  14.498  27.275  1.00  0.00    -0.275 N 
ATOM     24  H3  UNL     1      22.808  13.540  27.046  1.00  0.00     0.189 HD
BRANCH  23  25
HETATM   25  N4  UNL     1      21.198  14.841  27.322  1.00  0.00    -0.343 N 
ATOM     26  H42 UNL     1      20.952  15.807  27.542  1.00  0.00     0.176 HD
ATOM     27  H41 UNL     1      20.469  14.152  27.142  1.00  0.00     0.176 HD
ENDBRANCH  23  25
ENDBRANCH  20  21
ENDBRANCH  19  20
ENDBRANCH  12  19
BRANCH  15  28
HETATM   28  N1  UNL     1      26.269  18.612  23.833  1.00  0.00    -0.234 N 
ATOM     29  H12 UNL     1      26.158  19.316  24.563  1.00  0.00     0.174 HD
ATOM     30  H11 UNL     1      26.881  18.843  23.050  1.00  0.00     0.174 HD
ENDBRANCH  15  28
ENDBRANCH   1   6
BRANCH   5  31
HETATM   31  O10 UNL     1      21.138  14.365  21.203  1.00  0.00    -0.388 OA
ATOM     32  H10 UNL     1      21.830  13.801  21.529  1.00  0.00     0.210 HD
ENDBRANCH   5  31
BRANCH   3  33
HETATM   33  C8  UNL     1      22.195  17.972  18.651  1.00  0.00     0.249 C 
HETATM   34  O4  UNL     1      23.464  17.877  18.519  1.00  0.00    -0.271 OA
HETATM   35  N8  UNL     1      21.437  18.484  17.574  1.00  0.00    -0.356 N 
ATOM     36  H8  UNL     1      20.425  18.565  17.666  1.00  0.00     0.162 HD
BRANCH  35  37
HETATM   37  C9  UNL     1      22.074  18.894  16.349  1.00  0.00     0.163 C 
BRANCH  37  38
HETATM   38  C10 UNL     1      21.531  20.171  15.799  1.00  0.00     0.104 C 
HETATM   39  C11 UNL     1      20.115  19.905  15.312  1.00  0.00     0.076 C 
HETATM   40  C12 UNL     1      20.307  19.164  14.007  1.00  0.00     0.152 C 
HETATM   41  C13 UNL     1      21.676  19.562  13.486  1.00  0.00     0.178 C 
HETATM   42  C14 UNL     1      22.238  20.522  14.529  1.00  0.00     0.185 C 
BRANCH  38  43
HETATM   43  O5  UNL     1      21.497  21.196  16.718  1.00  0.00    -0.385 OA
ATOM     44  H5  UNL     1      21.526  22.060  16.325  1.00  0.00     0.210 HD
ENDBRANCH  38  43
BRANCH  40  45
HETATM   45  O6  UNL     1      19.346  19.520  13.062  1.00  0.00    -0.393 OA
ATOM     46  H6  UNL     1      19.680  20.158  12.442  1.00  0.00     0.210 HD
ENDBRANCH  40  45
BRANCH  41  47
HETATM   47  O7  UNL     1      21.586  20.195  12.242  1.00  0.00    -0.390 OA
ATOM     48  H7  UNL     1      22.024  21.038  12.249  1.00  0.00     0.210 HD
ENDBRANCH  41  47
BRANCH  42  49
HETATM   49  O8  UNL     1      21.907  21.818  14.106  1.00  0.00    -0.390 OA
ATOM     50  H8  UNL     1      22.687  22.333  13.936  1.00  0.00     0.210 HD
ENDBRANCH  42  49
ENDBRANCH  37  38
ENDBRANCH  35  37
ENDBRANCH   3  33
BRANCH   4  51
HETATM   51  O9  UNL     1      20.377  16.072  18.525  1.00  0.00    -0.390 OA
ATOM     52  H9  UNL     1      19.493  15.727  18.493  1.00  0.00     0.210 HD
ENDBRANCH   4  51
TORSDOF 15
ENDMDL
MODEL 5
REMARK VINA RESULT: -9.312161871      1.907      3.274
REMARK  15 active torsions:
REMARK  status: ('A' for Active; 'I' for Inactive)
REMARK    1  A    between atoms: N1_1  and  C1_4 
REMARK    2  A    between atoms: C2_7  and  O1_8 
REMARK    3  A    between atoms: O1_8  and  C3_9 
REMARK    4  A    between atoms: C3_9  and  C4_10 
REMARK       I    between atoms: C4_10  and  N3_12 
REMARK    5  A    between atoms: N3_12  and  N4_14 
REMARK    6  A    between atoms: N7_22  and  C6_23 
REMARK    7  A    between atoms: C7_25  and  C8_26 
REMARK       I    between atoms: C8_26  and  N8_28 
REMARK    8  A    between atoms: N8_28  and  C9_30 
REMARK    9  A    between atoms: C9_30  and  C10_31 
REMARK   10  A    between atoms: C10_31  and  O5_32 
REMARK   11  A    between atoms: C12_35  and  O6_36 
REMARK   12  A    between atoms: C13_38  and  O7_39 
REMARK   13  A    between atoms: C14_41  and  O8_42 
REMARK   14  A    between atoms: C15_44  and  O9_45 
REMARK   15  A    between atoms: C16_47  and  O10_48 
ROOT
HETATM    1  C6  UNL     1      23.894  18.574  20.357  1.00  0.00     0.279 C 
HETATM    2  O3  UNL     1      24.611  18.372  19.199  1.00  0.00    -0.345 OA
HETATM    3  C7  UNL     1      25.041  19.622  18.768  1.00  0.00     0.247 C 
HETATM    4  C15 UNL     1      25.281  20.442  19.994  1.00  0.00     0.189 C 
HETATM    5  C16 UNL     1      24.281  19.885  20.970  1.00  0.00     0.200 C 
ENDROOT
BRANCH   1   6
HETATM    6  N7  UNL     1      23.888  17.486  21.279  1.00  0.00    -0.227 N 
HETATM    7  N6  UNL     1      24.636  17.349  22.385  1.00  0.00    -0.236 N 
HETATM    8  N5  UNL     1      24.336  16.209  22.961  1.00  0.00    -0.279 N 
ATOM      9  H6  UNL     1      25.325  18.021  22.723  1.00  0.00     0.208 HD
HETATM   10  C5  UNL     1      23.382  15.560  22.256  1.00  0.00     0.147 A 
ATOM     11  H5  UNL     1      24.762  15.862  23.821  1.00  0.00     0.189 HD
HETATM   12  C2  UNL     1      22.700  14.391  22.355  1.00  0.00     0.190 A 
HETATM   13  C17 UNL     1      23.108  16.396  21.180  1.00  0.00     0.174 A 
HETATM   14  N2  UNL     1      21.785  14.066  21.423  1.00  0.00    -0.168 N 
HETATM   15  C1  UNL     1      21.506  14.858  20.378  1.00  0.00     0.679 A 
ATOM     16  H2  UNL     1      21.284  13.182  21.515  1.00  0.00     0.186 HD
HETATM   17  N9  UNL     1      22.184  16.017  20.282  1.00  0.00    -0.173 N 
ATOM     18  H9  UNL     1      21.987  16.634  19.495  1.00  0.00     0.186 HD
BRANCH  12  19
HETATM   19  O1  UNL     1      22.953  13.546  23.413  1.00  0.00    -0.324 OA
BRANCH  19  20
HETATM   20  C3  UNL     1      22.065  13.360  24.481  1.00  0.00     0.282 C 
BRANCH  20  21
HETATM   21  C4  UNL     1      22.590  14.054  25.667  1.00  0.00     0.259 C 
HETATM   22  O2  UNL     1      23.761  14.491  25.658  1.00  0.00    -0.269 OA
HETATM   23  N3  UNL     1      21.788  14.230  26.807  1.00  0.00    -0.275 N 
ATOM     24  H3  UNL     1      20.833  13.871  26.805  1.00  0.00     0.189 HD
BRANCH  23  25
HETATM   25  N4  UNL     1      22.268  14.883  27.936  1.00  0.00    -0.343 N 
ATOM     26  H42 UNL     1      22.285  14.374  28.819  1.00  0.00     0.176 HD
ATOM     27  H41 UNL     1      22.598  15.847  27.890  1.00  0.00     0.176 HD
ENDBRANCH  23  25
ENDBRANCH  20  21
ENDBRANCH  19  20
ENDBRANCH  12  19
BRANCH  15  28
HETATM   28  N1  UNL     1      20.632  14.562  19.475  1.00  0.00    -0.234 N 
ATOM     29  H12 UNL     1      20.051  15.303  19.081  1.00  0.00     0.174 HD
ATOM     30  H11 UNL     1      20.484  13.616  19.124  1.00  0.00     0.174 HD
ENDBRANCH  15  28
ENDBRANCH   1   6
BRANCH   5  31
HETATM   31  O10 UNL     1      24.859  19.618  22.214  1.00  0.00    -0.388 OA
ATOM     32  H10 UNL     1      25.099  20.450  22.605  1.00  0.00     0.210 HD
ENDBRANCH   5  31
BRANCH   3  33
HETATM   33  C8  UNL     1      24.154  20.235  17.768  1.00  0.00     0.249 C 
HETATM   34  O4  UNL     1      24.640  21.159  17.028  1.00  0.00    -0.271 OA
HETATM   35  N8  UNL     1      22.804  19.860  17.585  1.00  0.00    -0.356 N 
ATOM     36  H8  UNL     1      22.404  19.125  18.168  1.00  0.00     0.162 HD
BRANCH  35  37
HETATM   37  C9  UNL     1      21.986  20.499  16.587  1.00  0.00     0.163 C 
BRANCH  37  38
HETATM   38  C10 UNL     1      21.277  19.534  15.697  1.00  0.00     0.104 C 
HETATM   39  C11 UNL     1      22.329  18.744  14.934  1.00  0.00     0.076 C 
HETATM   40  C12 UNL     1      22.818  19.708  13.874  1.00  0.00     0.152 C 
HETATM   41  C13 UNL     1      21.690  20.697  13.642  1.00  0.00     0.178 C 
HETATM   42  C14 UNL     1      20.580  20.269  14.597  1.00  0.00     0.185 C 
BRANCH  38  43
HETATM   43  O5  UNL     1      20.467  18.651  16.375  1.00  0.00    -0.385 OA
ATOM     44  H5  UNL     1      20.385  17.806  15.949  1.00  0.00     0.210 HD
ENDBRANCH  38  43
BRANCH  40  45
HETATM   45  O6  UNL     1      23.100  19.059  12.674  1.00  0.00    -0.393 OA
ATOM     46  H6  UNL     1      23.476  19.651  12.032  1.00  0.00     0.210 HD
ENDBRANCH  40  45
BRANCH  41  47
HETATM   47  O7  UNL     1      21.236  20.653  12.320  1.00  0.00    -0.390 OA
ATOM     48  H7  UNL     1      20.316  20.420  12.276  1.00  0.00     0.210 HD
ENDBRANCH  41  47
BRANCH  42  49
HETATM   49  O8  UNL     1      19.731  19.418  13.876  1.00  0.00    -0.390 OA
ATOM     50  H8  UNL     1      18.957  19.878  13.575  1.00  0.00     0.210 HD
ENDBRANCH  42  49
ENDBRANCH  37  38
ENDBRANCH  35  37
ENDBRANCH   3  33
BRANCH   4  51
HETATM   51  O9  UNL     1      24.931  21.772  19.760  1.00  0.00    -0.390 OA
ATOM     52  H9  UNL     1      24.109  21.975  20.191  1.00  0.00     0.210 HD
ENDBRANCH   4  51
TORSDOF 15
ENDMDL
