MODEL 1
REMARK VINA RESULT: -9.624964609      0.000      0.000
REMARK  6 active torsions:
REMARK  status: ('A' for Active; 'I' for Inactive)
REMARK    1  A    between atoms: C2_2  and  C3_3 
REMARK    2  A    between atoms: C3_3  and  C4_4 
REMARK    3  A    between atoms: C10_12  and  C11_13 
REMARK    4  A    between atoms: C11_13  and  C12_14 
REMARK    5  A    between atoms: C13_15  and  C14_16 
REMARK    6  A    between atoms: C13_15  and  C16_18 
ROOT
HETATM    1  C4  UNL     1      -0.035   4.535  19.977  1.00  0.00    -0.029 A 
HETATM    2  C5  UNL     1       0.706   5.644  20.453  1.00  0.00     0.096 A 
HETATM    3  N1  UNL     1      -0.014   6.742  20.235  1.00  0.00    -0.364 N 
ATOM      4  H1  UNL     1       0.282   7.686  20.481  1.00  0.00     0.165 HD
HETATM    5  C6  UNL     1      -1.202   6.433  19.636  1.00  0.00     0.054 A 
HETATM    6  C7  UNL     1      -2.154   7.447  19.302  1.00  0.00    -0.009 A 
HETATM    7  C8  UNL     1      -2.438   7.880  18.018  1.00  0.00     0.014 A 
HETATM    8  C9  UNL     1      -3.356   8.868  17.719  1.00  0.00     0.008 A 
HETATM    9  C10 UNL     1      -4.057   9.485  18.748  1.00  0.00    -0.055 A 
HETATM   10  C22 UNL     1      -3.796   9.075  20.025  1.00  0.00     0.008 A 
HETATM   11  C23 UNL     1      -2.870   8.079  20.327  1.00  0.00     0.014 A 
HETATM   12  C24 UNL     1      -1.185   5.072  19.493  1.00  0.00     0.011 A 
HETATM   13  C25 UNL     1      -2.302   4.345  18.947  1.00  0.00     0.001 A 
HETATM   14  C26 UNL     1      -3.026   3.383  19.671  1.00  0.00     0.039 A 
HETATM   15  C27 UNL     1      -4.004   2.929  18.836  1.00  0.00     0.142 A 
HETATM   16  O1  UNL     1      -3.876   3.563  17.707  1.00  0.00    -0.334 OA
HETATM   17  C28 UNL     1      -2.882   4.413  17.723  1.00  0.00     0.153 A 
ENDROOT
BRANCH   1  18
HETATM   18  C3  UNL     1       0.436   3.138  20.010  1.00  0.00     0.040 C 
BRANCH  18  19
HETATM   19  C2  UNL     1       0.462   2.466  21.318  1.00  0.00     0.000 C 
HETATM   20  C1  UNL     1      -0.620   2.737  22.293  1.00  0.00     0.005 C 
ENDBRANCH  18  19
ENDBRANCH   1  18
BRANCH   9  21
HETATM   21  C11 UNL     1      -5.054  10.570  18.466  1.00  0.00     0.066 C 
BRANCH  21  22
HETATM   22  C12 UNL     1      -4.400  11.884  18.617  1.00  0.00    -0.014 C 
HETATM   23  C13 UNL     1      -4.122  12.757  17.705  1.00  0.00    -0.052 C 
BRANCH  23  24
HETATM   24  C14 UNL     1      -4.461  12.504  16.289  1.00  0.00     0.034 C 
HETATM   25  C15 UNL     1      -3.366  11.625  15.658  1.00  0.00     0.010 C 
ENDBRANCH  23  24
BRANCH  23  26
HETATM   26  C16 UNL     1      -3.476  14.023  18.043  1.00  0.00    -0.030 A 
HETATM   27  C17 UNL     1      -2.340  14.147  18.814  1.00  0.00     0.012 A 
HETATM   28  C18 UNL     1      -1.724  15.349  19.106  1.00  0.00     0.001 A 
HETATM   29  C19 UNL     1      -2.248  16.507  18.614  1.00  0.00     0.000 A 
HETATM   30  C20 UNL     1      -3.377  16.434  17.843  1.00  0.00     0.001 A 
HETATM   31  C21 UNL     1      -3.988  15.232  17.555  1.00  0.00     0.012 A 
ENDBRANCH  23  26
ENDBRANCH  21  22
ENDBRANCH   9  21
TORSDOF 6
ENDMDL
MODEL 2
REMARK VINA RESULT: -9.321364202      1.175      1.640
REMARK  6 active torsions:
REMARK  status: ('A' for Active; 'I' for Inactive)
REMARK    1  A    between atoms: C2_2  and  C3_3 
REMARK    2  A    between atoms: C3_3  and  C4_4 
REMARK    3  A    between atoms: C10_12  and  C11_13 
REMARK    4  A    between atoms: C11_13  and  C12_14 
REMARK    5  A    between atoms: C13_15  and  C14_16 
REMARK    6  A    between atoms: C13_15  and  C16_18 
ROOT
HETATM    1  C4  UNL     1      -0.206   4.387  20.869  1.00  0.00    -0.029 A 
HETATM    2  C5  UNL     1       0.820   5.326  20.604  1.00  0.00     0.096 A 
HETATM    3  N1  UNL     1       0.286   6.337  19.924  1.00  0.00    -0.364 N 
ATOM      4  H1  UNL     1       0.803   7.155  19.602  1.00  0.00     0.165 HD
HETATM    5  C6  UNL     1      -1.048   6.129  19.713  1.00  0.00     0.054 A 
HETATM    6  C7  UNL     1      -1.846   7.081  19.004  1.00  0.00    -0.009 A 
HETATM    7  C8  UNL     1      -2.346   6.905  17.725  1.00  0.00     0.014 A 
HETATM    8  C9  UNL     1      -3.110   7.841  17.055  1.00  0.00     0.008 A 
HETATM    9  C10 UNL     1      -3.414   9.046  17.676  1.00  0.00    -0.055 A 
HETATM   10  C22 UNL     1      -2.934   9.245  18.940  1.00  0.00     0.008 A 
HETATM   11  C23 UNL     1      -2.164   8.301  19.616  1.00  0.00     0.014 A 
HETATM   12  C24 UNL     1      -1.318   4.926  20.305  1.00  0.00     0.011 A 
HETATM   13  C25 UNL     1      -2.649   4.376  20.351  1.00  0.00     0.001 A 
HETATM   14  C26 UNL     1      -3.343   4.131  21.548  1.00  0.00     0.039 A 
HETATM   15  C27 UNL     1      -4.560   3.630  21.191  1.00  0.00     0.142 A 
HETATM   16  O1  UNL     1      -4.593   3.579  19.891  1.00  0.00    -0.334 OA
HETATM   17  C28 UNL     1      -3.484   4.010  19.348  1.00  0.00     0.153 A 
ENDROOT
BRANCH   1  18
HETATM   18  C3  UNL     1      -0.009   3.110  21.578  1.00  0.00     0.040 C 
BRANCH  18  19
HETATM   19  C2  UNL     1       0.076   1.890  20.761  1.00  0.00     0.000 C 
HETATM   20  C1  UNL     1      -1.112   1.013  20.643  1.00  0.00     0.005 C 
ENDBRANCH  18  19
ENDBRANCH   1  18
BRANCH   9  21
HETATM   21  C11 UNL     1      -4.231  10.094  16.978  1.00  0.00     0.066 C 
BRANCH  21  22
HETATM   22  C12 UNL     1      -3.687  11.427  17.297  1.00  0.00    -0.014 C 
HETATM   23  C13 UNL     1      -4.110  12.285  18.167  1.00  0.00    -0.052 C 
BRANCH  23  24
HETATM   24  C14 UNL     1      -5.291  11.990  19.004  1.00  0.00     0.034 C 
HETATM   25  C15 UNL     1      -4.820  11.552  20.403  1.00  0.00     0.010 C 
ENDBRANCH  23  24
BRANCH  23  26
HETATM   26  C16 UNL     1      -3.433  13.565  18.357  1.00  0.00    -0.030 A 
HETATM   27  C17 UNL     1      -2.254  13.737  19.050  1.00  0.00     0.012 A 
HETATM   28  C18 UNL     1      -1.609  14.949  19.202  1.00  0.00     0.001 A 
HETATM   29  C19 UNL     1      -2.148  16.069  18.641  1.00  0.00     0.000 A 
HETATM   30  C20 UNL     1      -3.320  15.948  17.944  1.00  0.00     0.001 A 
HETATM   31  C21 UNL     1      -3.959  14.735  17.795  1.00  0.00     0.012 A 
ENDBRANCH  23  26
ENDBRANCH  21  22
ENDBRANCH   9  21
TORSDOF 6
ENDMDL
MODEL 3
REMARK VINA RESULT: -9.294022878      2.257      3.761
REMARK  6 active torsions:
REMARK  status: ('A' for Active; 'I' for Inactive)
REMARK    1  A    between atoms: C2_2  and  C3_3 
REMARK    2  A    between atoms: C3_3  and  C4_4 
REMARK    3  A    between atoms: C10_12  and  C11_13 
REMARK    4  A    between atoms: C11_13  and  C12_14 
REMARK    5  A    between atoms: C13_15  and  C14_16 
REMARK    6  A    between atoms: C13_15  and  C16_18 
ROOT
HETATM    1  C4  UNL     1      -2.185   3.985  16.030  1.00  0.00    -0.029 A 
HETATM    2  C5  UNL     1      -3.025   4.702  15.143  1.00  0.00     0.096 A 
HETATM    3  N1  UNL     1      -3.448   5.795  15.772  1.00  0.00    -0.364 N 
ATOM      4  H1  UNL     1      -4.069   6.493  15.365  1.00  0.00     0.165 HD
HETATM    5  C6  UNL     1      -2.938   5.855  17.039  1.00  0.00     0.054 A 
HETATM    6  C7  UNL     1      -3.247   6.942  17.915  1.00  0.00    -0.009 A 
HETATM    7  C8  UNL     1      -4.077   6.863  19.021  1.00  0.00     0.014 A 
HETATM    8  C9  UNL     1      -4.368   7.929  19.850  1.00  0.00     0.008 A 
HETATM    9  C10 UNL     1      -3.808   9.173  19.586  1.00  0.00    -0.055 A 
HETATM   10  C22 UNL     1      -2.984   9.278  18.500  1.00  0.00     0.008 A 
HETATM   11  C23 UNL     1      -2.691   8.204  17.665  1.00  0.00     0.014 A 
HETATM   12  C24 UNL     1      -2.168   4.731  17.166  1.00  0.00     0.011 A 
HETATM   13  C25 UNL     1      -1.404   4.456  18.355  1.00  0.00     0.001 A 
HETATM   14  C26 UNL     1      -0.002   4.358  18.368  1.00  0.00     0.039 A 
HETATM   15  C27 UNL     1       0.354   4.106  19.660  1.00  0.00     0.142 A 
HETATM   16  O1  UNL     1      -0.741   4.057  20.362  1.00  0.00    -0.334 OA
HETATM   17  C28 UNL     1      -1.809   4.258  19.634  1.00  0.00     0.153 A 
ENDROOT
BRANCH   1  18
HETATM   18  C3  UNL     1      -1.540   2.697  15.715  1.00  0.00     0.040 C 
BRANCH  18  19
HETATM   19  C2  UNL     1      -0.549   2.687  14.628  1.00  0.00     0.000 C 
HETATM   20  C1  UNL     1       0.464   3.766  14.561  1.00  0.00     0.005 C 
ENDBRANCH  18  19
ENDBRANCH   1  18
BRANCH   9  21
HETATM   21  C11 UNL     1      -4.109  10.359  20.455  1.00  0.00     0.066 C 
BRANCH  21  22
HETATM   22  C12 UNL     1      -4.063  11.586  19.638  1.00  0.00    -0.014 C 
HETATM   23  C13 UNL     1      -3.101  12.441  19.518  1.00  0.00    -0.052 C 
BRANCH  23  24
HETATM   24  C14 UNL     1      -1.835  12.260  20.258  1.00  0.00     0.034 C 
HETATM   25  C15 UNL     1      -2.060  12.618  21.738  1.00  0.00     0.010 C 
ENDBRANCH  23  24
BRANCH  23  26
HETATM   26  C16 UNL     1      -3.228  13.604  18.645  1.00  0.00    -0.030 A 
HETATM   27  C17 UNL     1      -4.048  13.674  17.539  1.00  0.00     0.012 A 
HETATM   28  C18 UNL     1      -4.179  14.789  16.734  1.00  0.00     0.001 A 
HETATM   29  C19 UNL     1      -3.465  15.913  17.026  1.00  0.00     0.000 A 
HETATM   30  C20 UNL     1      -2.635  15.891  18.116  1.00  0.00     0.001 A 
HETATM   31  C21 UNL     1      -2.508  14.775  18.915  1.00  0.00     0.012 A 
ENDBRANCH  23  26
ENDBRANCH  21  22
ENDBRANCH   9  21
TORSDOF 6
ENDMDL
MODEL 4
REMARK VINA RESULT: -9.136571078      2.174      3.743
REMARK  6 active torsions:
REMARK  status: ('A' for Active; 'I' for Inactive)
REMARK    1  A    between atoms: C2_2  and  C3_3 
REMARK    2  A    between atoms: C3_3  and  C4_4 
REMARK    3  A    between atoms: C10_12  and  C11_13 
REMARK    4  A    between atoms: C11_13  and  C12_14 
REMARK    5  A    between atoms: C13_15  and  C14_16 
REMARK    6  A    between atoms: C13_15  and  C16_18 
ROOT
HETATM    1  C4  UNL     1      -2.357   4.006  15.767  1.00  0.00    -0.029 A 
HETATM    2  C5  UNL     1      -3.164   4.790  14.907  1.00  0.00     0.096 A 
HETATM    3  N1  UNL     1      -3.552   5.871  15.579  1.00  0.00    -0.364 N 
ATOM      4  H1  UNL     1      -4.144   6.608  15.198  1.00  0.00     0.165 HD
HETATM    5  C6  UNL     1      -3.049   5.859  16.850  1.00  0.00     0.054 A 
HETATM    6  C7  UNL     1      -3.324   6.919  17.769  1.00  0.00    -0.009 A 
HETATM    7  C8  UNL     1      -4.164   6.824  18.866  1.00  0.00     0.014 A 
HETATM    8  C9  UNL     1      -4.421   7.865  19.738  1.00  0.00     0.008 A 
HETATM    9  C10 UNL     1      -3.815   9.098  19.529  1.00  0.00    -0.055 A 
HETATM   10  C22 UNL     1      -2.980   9.218  18.454  1.00  0.00     0.008 A 
HETATM   11  C23 UNL     1      -2.720   8.169  17.575  1.00  0.00     0.014 A 
HETATM   12  C24 UNL     1      -2.321   4.703  16.933  1.00  0.00     0.011 A 
HETATM   13  C25 UNL     1      -1.576   4.351  18.114  1.00  0.00     0.001 A 
HETATM   14  C26 UNL     1      -0.179   4.201  18.131  1.00  0.00     0.039 A 
HETATM   15  C27 UNL     1       0.158   3.882  19.413  1.00  0.00     0.142 A 
HETATM   16  O1  UNL     1      -0.942   3.844  20.106  1.00  0.00    -0.334 OA
HETATM   17  C28 UNL     1      -1.997   4.114  19.381  1.00  0.00     0.153 A 
ENDROOT
BRANCH   1  18
HETATM   18  C3  UNL     1      -1.758   2.710  15.402  1.00  0.00     0.040 C 
BRANCH  18  19
HETATM   19  C2  UNL     1      -2.669   1.568  15.239  1.00  0.00     0.000 C 
HETATM   20  C1  UNL     1      -3.533   1.162  16.372  1.00  0.00     0.005 C 
ENDBRANCH  18  19
ENDBRANCH   1  18
BRANCH   9  21
HETATM   21  C11 UNL     1      -4.078  10.256  20.446  1.00  0.00     0.066 C 
BRANCH  21  22
HETATM   22  C12 UNL     1      -4.035  11.510  19.670  1.00  0.00    -0.014 C 
HETATM   23  C13 UNL     1      -3.070  12.363  19.567  1.00  0.00    -0.052 C 
BRANCH  23  24
HETATM   24  C14 UNL     1      -1.795  12.150  20.283  1.00  0.00     0.034 C 
HETATM   25  C15 UNL     1      -1.954  12.611  21.744  1.00  0.00     0.010 C 
ENDBRANCH  23  24
BRANCH  23  26
HETATM   26  C16 UNL     1      -3.201  13.556  18.735  1.00  0.00    -0.030 A 
HETATM   27  C17 UNL     1      -4.082  13.691  17.683  1.00  0.00     0.012 A 
HETATM   28  C18 UNL     1      -4.215  14.834  16.920  1.00  0.00     0.001 A 
HETATM   29  C19 UNL     1      -3.439  15.920  17.199  1.00  0.00     0.000 A 
HETATM   30  C20 UNL     1      -2.549  15.834  18.236  1.00  0.00     0.001 A 
HETATM   31  C21 UNL     1      -2.420  14.690  18.995  1.00  0.00     0.012 A 
ENDBRANCH  23  26
ENDBRANCH  21  22
ENDBRANCH   9  21
TORSDOF 6
ENDMDL
MODEL 5
REMARK VINA RESULT: -8.522728358      2.264      3.966
REMARK  6 active torsions:
REMARK  status: ('A' for Active; 'I' for Inactive)
REMARK    1  A    between atoms: C2_2  and  C3_3 
REMARK    2  A    between atoms: C3_3  and  C4_4 
REMARK    3  A    between atoms: C10_12  and  C11_13 
REMARK    4  A    between atoms: C11_13  and  C12_14 
REMARK    5  A    between atoms: C13_15  and  C14_16 
REMARK    6  A    between atoms: C13_15  and  C16_18 
ROOT
HETATM    1  C4  UNL     1      -3.030   2.620  15.914  1.00  0.00    -0.029 A 
HETATM    2  C5  UNL     1      -1.706   3.016  15.609  1.00  0.00     0.096 A 
HETATM    3  N1  UNL     1      -1.448   4.136  16.278  1.00  0.00    -0.364 N 
ATOM      4  H1  UNL     1      -0.563   4.642  16.242  1.00  0.00     0.165 HD
HETATM    5  C6  UNL     1      -2.530   4.520  17.020  1.00  0.00     0.054 A 
HETATM    6  C7  UNL     1      -2.498   5.697  17.831  1.00  0.00    -0.009 A 
HETATM    7  C8  UNL     1      -3.171   6.874  17.552  1.00  0.00     0.014 A 
HETATM    8  C9  UNL     1      -3.119   8.004  18.346  1.00  0.00     0.008 A 
HETATM    9  C10 UNL     1      -2.353   7.990  19.506  1.00  0.00    -0.055 A 
HETATM   10  C22 UNL     1      -1.679   6.839  19.805  1.00  0.00     0.008 A 
HETATM   11  C23 UNL     1      -1.731   5.700  19.004  1.00  0.00     0.014 A 
HETATM   12  C24 UNL     1      -3.483   3.568  16.775  1.00  0.00     0.011 A 
HETATM   13  C25 UNL     1      -4.767   3.586  17.427  1.00  0.00     0.001 A 
HETATM   14  C26 UNL     1      -5.215   2.563  18.279  1.00  0.00     0.039 A 
HETATM   15  C27 UNL     1      -6.454   2.935  18.710  1.00  0.00     0.142 A 
HETATM   16  O1  UNL     1      -6.726   4.084  18.162  1.00  0.00    -0.334 OA
HETATM   17  C28 UNL     1      -5.758   4.511  17.393  1.00  0.00     0.153 A 
ENDROOT
BRANCH   1  18
HETATM   18  C3  UNL     1      -3.702   1.438  15.346  1.00  0.00     0.040 C 
BRANCH  18  19
HETATM   19  C2  UNL     1      -3.560   0.166  16.071  1.00  0.00     0.000 C 
HETATM   20  C1  UNL     1      -4.776  -0.552  16.520  1.00  0.00     0.005 C 
ENDBRANCH  18  19
ENDBRANCH   1  18
BRANCH   9  21
HETATM   21  C11 UNL     1      -2.261   9.199  20.389  1.00  0.00     0.066 C 
BRANCH  21  22
HETATM   22  C12 UNL     1      -2.522  10.409  19.587  1.00  0.00    -0.014 C 
HETATM   23  C13 UNL     1      -3.016  11.541  19.970  1.00  0.00    -0.052 C 
BRANCH  23  24
HETATM   24  C14 UNL     1      -3.405  11.756  21.379  1.00  0.00     0.034 C 
HETATM   25  C15 UNL     1      -4.850  11.265  21.582  1.00  0.00     0.010 C 
ENDBRANCH  23  24
BRANCH  23  26
HETATM   26  C16 UNL     1      -3.194  12.644  19.029  1.00  0.00    -0.030 A 
HETATM   27  C17 UNL     1      -4.045  12.626  17.945  1.00  0.00     0.012 A 
HETATM   28  C18 UNL     1      -4.224  13.686  17.077  1.00  0.00     0.001 A 
HETATM   29  C19 UNL     1      -3.529  14.841  17.278  1.00  0.00     0.000 A 
HETATM   30  C20 UNL     1      -2.671  14.906  18.343  1.00  0.00     0.001 A 
HETATM   31  C21 UNL     1      -2.496  13.845  19.206  1.00  0.00     0.012 A 
ENDBRANCH  23  26
ENDBRANCH  21  22
ENDBRANCH   9  21
TORSDOF 6
ENDMDL
