MODEL 1
REMARK VINA RESULT: -4.823344492      0.000      0.000
REMARK  3 active torsions:
REMARK  status: ('A' for Active; 'I' for Inactive)
REMARK    1  A    between atoms: S1_2  and  C2_3 
REMARK    2  A    between atoms: C2_3  and  C3_4 
REMARK    3  A    between atoms: C3_4  and  N1_5 
ROOT
HETATM    1  C3  UNL     1      14.758  47.937  70.077  1.00  0.00     0.135 C 
HETATM    2  C4  UNL     1      15.469  47.025  69.118  1.00  0.00     0.067 C 
HETATM    3  C5  UNL     1      16.911  46.783  69.491  1.00  0.00     0.235 C 
HETATM    4  N2  UNL     1      16.929  46.523  70.934  1.00  0.00    -0.075 N 
ATOM      5  H21 UNL     1      17.753  46.007  71.242  1.00  0.00     0.277 HD
ATOM      6  H22 UNL     1      16.233  45.838  71.231  1.00  0.00     0.277 HD
HETATM    7  C6  UNL     1      16.782  47.802  71.578  1.00  0.00     0.235 C 
HETATM    8  C7  UNL     1      15.687  48.639  71.034  1.00  0.00     0.067 C 
ENDROOT
BRANCH   1   9
HETATM    9  C2  UNL     1      14.037  49.032  69.322  1.00  0.00     0.112 C 
BRANCH   9  10
HETATM   10  S1  UNL     1      14.964  49.743  67.980  1.00  0.00    -0.171 SA
HETATM   11  C1  UNL     1      15.220  51.501  68.150  1.00  0.00     0.089 C 
ENDBRANCH   9  10
ENDBRANCH   1   9
BRANCH   1  12
HETATM   12  N1  UNL     1      13.840  47.121  70.836  1.00  0.00    -0.070 N 
ATOM     13  H13 UNL     1      12.926  47.071  70.385  1.00  0.00     0.275 HD
ATOM     14  H12 UNL     1      14.093  46.135  70.790  1.00  0.00     0.275 HD
ATOM     15  H11 UNL     1      13.762  47.442  71.801  1.00  0.00     0.275 HD
ENDBRANCH   1  12
TORSDOF 3
ENDMDL
MODEL 2
REMARK VINA RESULT: -4.675318145      2.162      3.885
REMARK  3 active torsions:
REMARK  status: ('A' for Active; 'I' for Inactive)
REMARK    1  A    between atoms: S1_2  and  C2_3 
REMARK    2  A    between atoms: C2_3  and  C3_4 
REMARK    3  A    between atoms: C3_4  and  N1_5 
ROOT
HETATM    1  C3  UNL     1      16.472  48.488  69.696  1.00  0.00     0.135 C 
HETATM    2  C4  UNL     1      15.722  49.642  69.093  1.00  0.00     0.067 C 
HETATM    3  C5  UNL     1      14.243  49.377  68.955  1.00  0.00     0.235 C 
HETATM    4  N2  UNL     1      13.809  48.772  70.218  1.00  0.00    -0.075 N 
ATOM      5  H21 UNL     1      12.809  48.873  70.392  1.00  0.00     0.277 HD
ATOM      6  H22 UNL     1      14.132  49.280  71.042  1.00  0.00     0.277 HD
HETATM    7  C6  UNL     1      14.247  47.401  70.182  1.00  0.00     0.235 C 
HETATM    8  C7  UNL     1      15.659  47.222  69.772  1.00  0.00     0.067 C 
ENDROOT
BRANCH   1   9
HETATM    9  C2  UNL     1      17.683  48.152  68.853  1.00  0.00     0.112 C 
BRANCH   9  10
HETATM   10  S1  UNL     1      18.046  46.415  68.735  1.00  0.00    -0.171 SA
HETATM   11  C1  UNL     1      19.386  45.898  69.795  1.00  0.00     0.089 C 
ENDBRANCH   9  10
ENDBRANCH   1   9
BRANCH   1  12
HETATM   12  N1  UNL     1      16.847  48.880  71.034  1.00  0.00    -0.070 N 
ATOM     13  H13 UNL     1      16.261  49.640  71.378  1.00  0.00     0.275 HD
ATOM     14  H12 UNL     1      16.595  48.164  71.716  1.00  0.00     0.275 HD
ATOM     15  H11 UNL     1      17.837  49.117  71.092  1.00  0.00     0.275 HD
ENDBRANCH   1  12
TORSDOF 3
ENDMDL
MODEL 3
REMARK VINA RESULT: -4.631043849      2.053      3.429
REMARK  3 active torsions:
REMARK  status: ('A' for Active; 'I' for Inactive)
REMARK    1  A    between atoms: S1_2  and  C2_3 
REMARK    2  A    between atoms: C2_3  and  C3_4 
REMARK    3  A    between atoms: C3_4  and  N1_5 
ROOT
HETATM    1  C3  UNL     1      16.365  48.308  70.494  1.00  0.00     0.135 C 
HETATM    2  C4  UNL     1      15.806  49.397  69.624  1.00  0.00     0.067 C 
HETATM    3  C5  UNL     1      14.337  49.220  69.325  1.00  0.00     0.235 C 
HETATM    4  N2  UNL     1      13.695  48.863  70.594  1.00  0.00    -0.075 N 
ATOM      5  H21 UNL     1      12.695  49.062  70.611  1.00  0.00     0.277 HD
ATOM      6  H22 UNL     1      13.959  49.474  71.367  1.00  0.00     0.277 HD
HETATM    7  C6  UNL     1      14.006  47.477  70.830  1.00  0.00     0.235 C 
HETATM    8  C7  UNL     1      15.436  47.132  70.650  1.00  0.00     0.067 C 
ENDROOT
BRANCH   1   9
HETATM    9  C2  UNL     1      17.635  47.753  69.887  1.00  0.00     0.112 C 
BRANCH   9  10
HETATM   10  S1  UNL     1      17.391  46.389  68.771  1.00  0.00    -0.171 SA
HETATM   11  C1  UNL     1      16.826  46.889  67.155  1.00  0.00     0.089 C 
ENDBRANCH   9  10
ENDBRANCH   1   9
BRANCH   1  12
HETATM   12  N1  UNL     1      16.605  48.886  71.794  1.00  0.00    -0.070 N 
ATOM     13  H13 UNL     1      15.800  49.422  72.118  1.00  0.00     0.275 HD
ATOM     14  H12 UNL     1      16.622  48.171  72.522  1.00  0.00     0.275 HD
ATOM     15  H11 UNL     1      17.456  49.449  71.805  1.00  0.00     0.275 HD
ENDBRANCH   1  12
TORSDOF 3
ENDMDL
MODEL 4
REMARK VINA RESULT: -4.574092223      2.287      3.990
REMARK  3 active torsions:
REMARK  status: ('A' for Active; 'I' for Inactive)
REMARK    1  A    between atoms: S1_2  and  C2_3 
REMARK    2  A    between atoms: C2_3  and  C3_4 
REMARK    3  A    between atoms: C3_4  and  N1_5 
ROOT
HETATM    1  C3  UNL     1      16.125  47.499  69.643  1.00  0.00     0.135 C 
HETATM    2  C4  UNL     1      15.252  47.251  70.840  1.00  0.00     0.067 C 
HETATM    3  C5  UNL     1      14.177  48.296  71.013  1.00  0.00     0.235 C 
HETATM    4  N2  UNL     1      13.594  48.517  69.686  1.00  0.00    -0.075 N 
ATOM      5  H21 UNL     1      12.654  48.913  69.718  1.00  0.00     0.277 HD
ATOM      6  H22 UNL     1      13.351  47.653  69.201  1.00  0.00     0.277 HD
HETATM    7  C6  UNL     1      14.533  49.334  68.962  1.00  0.00     0.235 C 
HETATM    8  C7  UNL     1      15.936  48.866  69.038  1.00  0.00     0.067 C 
ENDROOT
BRANCH   1   9
HETATM    9  C2  UNL     1      17.585  47.417  70.033  1.00  0.00     0.112 C 
BRANCH   9  10
HETATM   10  S1  UNL     1      18.638  46.660  68.814  1.00  0.00    -0.171 SA
HETATM   11  C1  UNL     1      19.881  45.592  69.520  1.00  0.00     0.089 C 
ENDBRANCH   9  10
ENDBRANCH   1   9
BRANCH   1  12
HETATM   12  N1  UNL     1      15.782  46.503  68.655  1.00  0.00    -0.070 N 
ATOM     13  H13 UNL     1      15.209  46.899  67.910  1.00  0.00     0.275 HD
ATOM     14  H12 UNL     1      16.595  46.232  68.102  1.00  0.00     0.275 HD
ATOM     15  H11 UNL     1      15.333  45.692  69.080  1.00  0.00     0.275 HD
ENDBRANCH   1  12
TORSDOF 3
ENDMDL
MODEL 5
REMARK VINA RESULT: -4.456143844      2.507      3.928
REMARK  3 active torsions:
REMARK  status: ('A' for Active; 'I' for Inactive)
REMARK    1  A    between atoms: S1_2  and  C2_3 
REMARK    2  A    between atoms: C2_3  and  C3_4 
REMARK    3  A    between atoms: C3_4  and  N1_5 
ROOT
HETATM    1  C3  UNL     1      16.292  48.204  68.851  1.00  0.00     0.135 C 
HETATM    2  C4  UNL     1      15.515  47.058  69.435  1.00  0.00     0.067 C 
HETATM    3  C5  UNL     1      14.378  47.507  70.320  1.00  0.00     0.235 C 
HETATM    4  N2  UNL     1      13.700  48.594  69.608  1.00  0.00    -0.075 N 
ATOM      5  H21 UNL     1      12.737  48.738  69.912  1.00  0.00     0.277 HD
ATOM      6  H22 UNL     1      13.493  48.372  68.633  1.00  0.00     0.277 HD
HETATM    7  C6  UNL     1      14.529  49.760  69.764  1.00  0.00     0.235 C 
HETATM    8  C7  UNL     1      15.965  49.532  69.483  1.00  0.00     0.067 C 
ENDROOT
BRANCH   1   9
HETATM    9  C2  UNL     1      17.775  47.996  69.069  1.00  0.00     0.112 C 
BRANCH   9  10
HETATM   10  S1  UNL     1      18.365  46.368  68.657  1.00  0.00    -0.171 SA
HETATM   11  C1  UNL     1      19.591  45.751  69.797  1.00  0.00     0.089 C 
ENDBRANCH   9  10
ENDBRANCH   1   9
BRANCH   1  12
HETATM   12  N1  UNL     1      15.965  48.265  67.447  1.00  0.00    -0.070 N 
ATOM     13  H13 UNL     1      15.063  47.828  67.255  1.00  0.00     0.275 HD
ATOM     14  H12 UNL     1      15.744  49.218  67.157  1.00  0.00     0.275 HD
ATOM     15  H11 UNL     1      16.704  47.862  66.870  1.00  0.00     0.275 HD
ENDBRANCH   1  12
TORSDOF 3
ENDMDL
