MODEL 1
REMARK VINA RESULT: -5.779474794      0.000      0.000
REMARK  3 active torsions:
REMARK  status: ('A' for Active; 'I' for Inactive)
REMARK    1  A    between atoms: O1_2  and  C2_3 
REMARK    2  A    between atoms: C6_7  and  C7_8 
REMARK    3  A    between atoms: C7_8  and  N1_9 
ROOT
HETATM    1  C2  UNL     1      18.282  46.473  67.912  1.00  0.00     0.143 C 
HETATM    2  C3  UNL     1      18.697  47.896  67.989  1.00  0.00     0.038 C 
HETATM    3  C4  UNL     1      17.383  48.651  68.052  1.00  0.00    -0.008 C 
HETATM    4  C5  UNL     1      16.751  48.594  69.406  1.00  0.00     0.031 C 
HETATM    5  C6  UNL     1      15.622  47.605  69.389  1.00  0.00     0.102 C 
HETATM    6  N2  UNL     1      16.084  46.371  68.860  1.00  0.00    -0.409 N 
ATOM      7  H2  UNL     1      15.923  45.484  69.338  1.00  0.00     0.154 HD
HETATM    8  C8  UNL     1      16.784  46.445  67.625  1.00  0.00     0.106 C 
HETATM    9  C9  UNL     1      16.595  47.838  67.016  1.00  0.00     0.032 C 
ENDROOT
BRANCH   5  10
HETATM   10  C7  UNL     1      15.077  47.351  70.793  1.00  0.00     0.254 C 
BRANCH  10  11
HETATM   11  N1  UNL     1      13.664  47.078  70.776  1.00  0.00    -0.077 N 
ATOM     12  H13 UNL     1      13.321  46.960  69.823  1.00  0.00     0.274 HD
ATOM     13  H12 UNL     1      13.462  46.144  71.135  1.00  0.00     0.274 HD
ATOM     14  H11 UNL     1      13.135  47.791  71.276  1.00  0.00     0.274 HD
ENDBRANCH  10  11
ENDBRANCH   5  10
BRANCH   1  15
HETATM   15  O1  UNL     1      18.994  45.693  67.031  1.00  0.00    -0.389 OA
HETATM   16  C1  UNL     1      20.316  46.045  66.874  1.00  0.00     0.202 C 
ENDBRANCH   1  15
TORSDOF 3
ENDMDL
MODEL 2
REMARK VINA RESULT: -5.693013273      2.729      3.734
REMARK  3 active torsions:
REMARK  status: ('A' for Active; 'I' for Inactive)
REMARK    1  A    between atoms: O1_2  and  C2_3 
REMARK    2  A    between atoms: C6_7  and  C7_8 
REMARK    3  A    between atoms: C7_8  and  N1_9 
ROOT
HETATM    1  C2  UNL     1      16.165  47.225  69.110  1.00  0.00     0.143 C 
HETATM    2  C3  UNL     1      14.949  47.235  69.961  1.00  0.00     0.038 C 
HETATM    3  C4  UNL     1      14.842  48.678  70.419  1.00  0.00    -0.008 C 
HETATM    4  C5  UNL     1      14.304  49.581  69.355  1.00  0.00     0.031 C 
HETATM    5  C6  UNL     1      15.430  50.367  68.749  1.00  0.00     0.102 C 
HETATM    6  N2  UNL     1      16.465  49.478  68.353  1.00  0.00    -0.409 N 
ATOM      7  H2  UNL     1      16.874  49.508  67.420  1.00  0.00     0.154 HD
HETATM    8  C8  UNL     1      16.896  48.545  69.336  1.00  0.00     0.106 C 
HETATM    9  C9  UNL     1      16.327  48.944  70.701  1.00  0.00     0.032 C 
ENDROOT
BRANCH   5  10
HETATM   10  C7  UNL     1      14.972  51.148  67.520  1.00  0.00     0.254 C 
BRANCH  10  11
HETATM   11  N1  UNL     1      14.937  52.564  67.770  1.00  0.00    -0.077 N 
ATOM     12  H13 UNL     1      14.105  52.992  67.366  1.00  0.00     0.274 HD
ATOM     13  H12 UNL     1      14.758  52.764  68.755  1.00  0.00     0.274 HD
ATOM     14  H11 UNL     1      15.787  53.026  67.447  1.00  0.00     0.274 HD
ENDBRANCH  10  11
ENDBRANCH   5  10
BRANCH   1  15
HETATM   15  O1  UNL     1      16.994  46.139  69.273  1.00  0.00    -0.389 OA
HETATM   16  C1  UNL     1      18.281  46.311  68.815  1.00  0.00     0.202 C 
ENDBRANCH   1  15
TORSDOF 3
ENDMDL
MODEL 3
REMARK VINA RESULT: -5.656750430      1.678      1.716
REMARK  3 active torsions:
REMARK  status: ('A' for Active; 'I' for Inactive)
REMARK    1  A    between atoms: O1_2  and  C2_3 
REMARK    2  A    between atoms: C6_7  and  C7_8 
REMARK    3  A    between atoms: C7_8  and  N1_9 
ROOT
HETATM    1  C2  UNL     1      17.880  46.743  69.212  1.00  0.00     0.143 C 
HETATM    2  C3  UNL     1      18.587  47.650  68.273  1.00  0.00     0.038 C 
HETATM    3  C4  UNL     1      17.481  48.167  67.372  1.00  0.00    -0.008 C 
HETATM    4  C5  UNL     1      16.653  49.226  68.027  1.00  0.00     0.031 C 
HETATM    5  C6  UNL     1      15.348  48.635  68.474  1.00  0.00     0.102 C 
HETATM    6  N2  UNL     1      15.597  47.469  69.243  1.00  0.00    -0.409 N 
ATOM      7  H2  UNL     1      15.171  47.324  70.158  1.00  0.00     0.154 HD
HETATM    8  C8  UNL     1      16.476  46.514  68.662  1.00  0.00     0.106 C 
HETATM    9  C9  UNL     1      16.699  46.860  67.186  1.00  0.00     0.032 C 
ENDROOT
BRANCH   5  10
HETATM   10  C7  UNL     1      14.553  49.616  69.332  1.00  0.00     0.254 C 
BRANCH  10  11
HETATM   11  N1  UNL     1      13.675  48.935  70.246  1.00  0.00    -0.077 N 
ATOM     12  H13 UNL     1      12.729  49.312  70.202  1.00  0.00     0.274 HD
ATOM     13  H12 UNL     1      13.482  47.982  69.937  1.00  0.00     0.274 HD
ATOM     14  H11 UNL     1      14.037  48.951  71.200  1.00  0.00     0.274 HD
ENDBRANCH  10  11
ENDBRANCH   5  10
BRANCH   1  15
HETATM   15  O1  UNL     1      18.526  45.562  69.496  1.00  0.00    -0.389 OA
HETATM   16  C1  UNL     1      19.900  45.618  69.439  1.00  0.00     0.202 C 
ENDBRANCH   1  15
TORSDOF 3
ENDMDL
MODEL 4
REMARK VINA RESULT: -5.598188917      2.792      3.723
REMARK  3 active torsions:
REMARK  status: ('A' for Active; 'I' for Inactive)
REMARK    1  A    between atoms: O1_2  and  C2_3 
REMARK    2  A    between atoms: C6_7  and  C7_8 
REMARK    3  A    between atoms: C7_8  and  N1_9 
ROOT
HETATM    1  C2  UNL     1      16.803  50.772  68.656  1.00  0.00     0.143 C 
HETATM    2  C3  UNL     1      15.438  51.190  68.250  1.00  0.00     0.038 C 
HETATM    3  C4  UNL     1      14.751  49.884  67.897  1.00  0.00    -0.008 C 
HETATM    4  C5  UNL     1      14.331  49.110  69.105  1.00  0.00     0.031 C 
HETATM    5  C6  UNL     1      15.292  47.980  69.335  1.00  0.00     0.102 C 
HETATM    6  N2  UNL     1      16.619  48.484  69.344  1.00  0.00    -0.409 N 
ATOM      7  H2  UNL     1      17.275  48.265  70.093  1.00  0.00     0.154 HD
HETATM    8  C8  UNL     1      16.978  49.313  68.246  1.00  0.00     0.106 C 
HETATM    9  C9  UNL     1      15.909  49.204  67.154  1.00  0.00     0.032 C 
ENDROOT
BRANCH   5  10
HETATM   10  C7  UNL     1      15.033  47.285  70.670  1.00  0.00     0.254 C 
BRANCH  10  11
HETATM   11  N1  UNL     1      13.626  47.147  70.936  1.00  0.00    -0.077 N 
ATOM     12  H13 UNL     1      13.213  48.035  71.221  1.00  0.00     0.274 HD
ATOM     13  H12 UNL     1      13.099  46.994  70.076  1.00  0.00     0.274 HD
ATOM     14  H11 UNL     1      13.441  46.414  71.620  1.00  0.00     0.274 HD
ENDBRANCH  10  11
ENDBRANCH   5  10
BRANCH   1  15
HETATM   15  O1  UNL     1      17.828  51.567  68.198  1.00  0.00    -0.389 OA
HETATM   16  C1  UNL     1      17.465  52.849  67.852  1.00  0.00     0.202 C 
ENDBRANCH   1  15
TORSDOF 3
ENDMDL
MODEL 5
REMARK VINA RESULT: -5.471317782      3.805      5.040
REMARK  3 active torsions:
REMARK  status: ('A' for Active; 'I' for Inactive)
REMARK    1  A    between atoms: O1_2  and  C2_3 
REMARK    2  A    between atoms: C6_7  and  C7_8 
REMARK    3  A    between atoms: C7_8  and  N1_9 
ROOT
HETATM    1  C2  UNL     1      14.626  49.514  69.562  1.00  0.00     0.143 C 
HETATM    2  C3  UNL     1      16.017  49.171  69.950  1.00  0.00     0.038 C 
HETATM    3  C4  UNL     1      16.813  49.405  68.681  1.00  0.00    -0.008 C 
HETATM    4  C5  UNL     1      17.071  50.855  68.422  1.00  0.00     0.031 C 
HETATM    5  C6  UNL     1      16.142  51.345  67.350  1.00  0.00     0.102 C 
HETATM    6  N2  UNL     1      14.808  50.996  67.687  1.00  0.00    -0.409 N 
ATOM      7  H2  UNL     1      14.051  51.679  67.676  1.00  0.00     0.154 HD
HETATM    8  C8  UNL     1      14.589  49.636  68.042  1.00  0.00     0.106 C 
HETATM    9  C9  UNL     1      15.824  48.809  67.670  1.00  0.00     0.032 C 
ENDROOT
BRANCH   5  10
HETATM   10  C7  UNL     1      16.216  52.862  67.193  1.00  0.00     0.254 C 
BRANCH  10  11
HETATM   11  N1  UNL     1      15.556  53.543  68.274  1.00  0.00    -0.077 N 
ATOM     12  H13 UNL     1      14.801  52.978  68.663  1.00  0.00     0.274 HD
ATOM     13  H12 UNL     1      16.155  53.599  69.099  1.00  0.00     0.274 HD
ATOM     14  H11 UNL     1      15.223  54.465  67.993  1.00  0.00     0.274 HD
ENDBRANCH  10  11
ENDBRANCH   5  10
BRANCH   1  15
HETATM   15  O1  UNL     1      13.650  48.670  70.038  1.00  0.00    -0.389 OA
HETATM   16  C1  UNL     1      14.104  47.637  70.827  1.00  0.00     0.202 C 
ENDBRANCH   1  15
TORSDOF 3
ENDMDL
