MODEL 1
REMARK VINA RESULT: -7.105573640      0.000      0.000
REMARK  5 active torsions:
REMARK  status: ('A' for Active; 'I' for Inactive)
REMARK    1  A    between atoms: C1_2  and  O2_4 
REMARK    2  A    between atoms: O2_4  and  C2_5 
REMARK       I    between atoms: C2_5  and  N2_7 
REMARK    3  A    between atoms: C3_8  and  O4_9 
REMARK    4  A    between atoms: C5_13  and  N4_14 
REMARK    5  A    between atoms: C6_17  and  C7_18 
ROOT
HETATM    1  C2  UNL     1      18.824  20.056  12.517  1.00  0.00     0.382 C 
HETATM    2  O3  UNL     1      19.275  20.826  13.457  1.00  0.00    -0.237 OA
HETATM    3  N2  UNL     1      17.450  20.188  12.184  1.00  0.00    -0.228 N 
HETATM    4  C3  UNL     1      16.594  21.082  12.793  1.00  0.00     0.179 A 
HETATM    5  C4  UNL     1      15.351  20.990  12.274  1.00  0.00     0.133 A 
HETATM    6  N3  UNL     1      14.162  21.705  12.587  1.00  0.00    -0.095 NA
HETATM    7  C5  UNL     1      15.419  20.011  11.309  1.00  0.00     0.163 A 
HETATM    8  C6  UNL     1      16.743  19.525  11.272  1.00  0.00     0.146 A 
ENDROOT
BRANCH   1   9
HETATM    9  O2  UNL     1      19.748  19.226  11.987  1.00  0.00    -0.211 OA
BRANCH   9  10
HETATM   10  C1  UNL     1      20.165  18.027  12.542  1.00  0.00     0.381 C 
HETATM   11  N1  UNL     1      19.395  17.319  13.491  1.00  0.00    -0.032 NA
HETATM   12  O1  UNL     1      21.297  17.601  12.136  1.00  0.00    -0.242 OA
ENDBRANCH   9  10
ENDBRANCH   1   9
BRANCH   4  13
HETATM   13  O4  UNL     1      16.959  21.948  13.792  1.00  0.00    -0.344 OA
ATOM     14  H4  UNL     1      16.904  22.894  13.730  1.00  0.00     0.219 HD
ENDBRANCH   4  13
BRANCH   8  15
HETATM   15  C7  UNL     1      17.159  18.474  10.362  1.00  0.00     0.284 C 
HETATM   16  N5  UNL     1      17.684  18.813   9.052  1.00  0.00    -0.056 NA
HETATM   17  O7  UNL     1      17.126  17.246  10.567  1.00  0.00    -0.269 OA
ENDBRANCH   8  15
BRANCH   7  18
HETATM   18  N4  UNL     1      14.324  19.577  10.517  1.00  0.00    -0.111 N 
HETATM   19  O5  UNL     1      14.184  19.934   9.313  1.00  0.00    -0.532 OA
HETATM   20  O6  UNL     1      13.332  18.745  10.995  1.00  0.00    -0.532 OA
ENDBRANCH   7  18
TORSDOF 5
ENDMDL
MODEL 2
REMARK VINA RESULT: -6.656902384      2.006      4.686
REMARK  5 active torsions:
REMARK  status: ('A' for Active; 'I' for Inactive)
REMARK    1  A    between atoms: C1_2  and  O2_4 
REMARK    2  A    between atoms: O2_4  and  C2_5 
REMARK       I    between atoms: C2_5  and  N2_7 
REMARK    3  A    between atoms: C3_8  and  O4_9 
REMARK    4  A    between atoms: C5_13  and  N4_14 
REMARK    5  A    between atoms: C6_17  and  C7_18 
ROOT
HETATM    1  C2  UNL     1      16.470  19.425  11.382  1.00  0.00     0.382 C 
HETATM    2  O3  UNL     1      15.439  20.091  10.967  1.00  0.00    -0.237 OA
HETATM    3  N2  UNL     1      17.125  19.915  12.542  1.00  0.00    -0.228 N 
HETATM    4  C3  UNL     1      16.720  21.035  13.238  1.00  0.00     0.179 A 
HETATM    5  C4  UNL     1      17.526  21.261  14.298  1.00  0.00     0.133 A 
HETATM    6  N3  UNL     1      17.492  22.286  15.284  1.00  0.00    -0.095 NA
HETATM    7  C5  UNL     1      18.467  20.257  14.275  1.00  0.00     0.163 A 
HETATM    8  C6  UNL     1      18.195  19.428  13.168  1.00  0.00     0.146 A 
ENDROOT
BRANCH   1   9
HETATM    9  O2  UNL     1      16.772  18.344  10.631  1.00  0.00    -0.211 OA
BRANCH   9  10
HETATM   10  C1  UNL     1      17.014  18.355   9.266  1.00  0.00     0.381 C 
HETATM   11  N1  UNL     1      18.293  18.605   8.722  1.00  0.00    -0.032 NA
HETATM   12  O1  UNL     1      15.999  18.121   8.530  1.00  0.00    -0.242 OA
ENDBRANCH   9  10
ENDBRANCH   1   9
BRANCH   4  13
HETATM   13  O4  UNL     1      15.644  21.814  12.897  1.00  0.00    -0.344 OA
ATOM     14  H4  UNL     1      15.364  22.584  13.378  1.00  0.00     0.219 HD
ENDBRANCH   4  13
BRANCH   8  15
HETATM   15  C7  UNL     1      19.007  18.269  12.847  1.00  0.00     0.284 C 
HETATM   16  N5  UNL     1      20.038  18.362  11.830  1.00  0.00    -0.056 NA
HETATM   17  O7  UNL     1      18.934  17.136  13.359  1.00  0.00    -0.269 OA
ENDBRANCH   8  15
BRANCH   7  18
HETATM   18  N4  UNL     1      19.527  20.119  15.210  1.00  0.00    -0.111 N 
HETATM   19  O5  UNL     1      19.395  19.461  16.280  1.00  0.00    -0.532 OA
HETATM   20  O6  UNL     1      20.770  20.692  15.030  1.00  0.00    -0.532 OA
ENDBRANCH   7  18
TORSDOF 5
ENDMDL
MODEL 3
REMARK VINA RESULT: -6.558688485      1.495      4.805
REMARK  5 active torsions:
REMARK  status: ('A' for Active; 'I' for Inactive)
REMARK    1  A    between atoms: C1_2  and  O2_4 
REMARK    2  A    between atoms: O2_4  and  C2_5 
REMARK       I    between atoms: C2_5  and  N2_7 
REMARK    3  A    between atoms: C3_8  and  O4_9 
REMARK    4  A    between atoms: C5_13  and  N4_14 
REMARK    5  A    between atoms: C6_17  and  C7_18 
ROOT
HETATM    1  C2  UNL     1      16.289  21.020  12.080  1.00  0.00     0.382 C 
HETATM    2  O3  UNL     1      15.846  22.034  12.755  1.00  0.00    -0.237 OA
HETATM    3  N2  UNL     1      17.361  20.287  12.653  1.00  0.00    -0.228 N 
HETATM    4  C3  UNL     1      17.934  20.589  13.871  1.00  0.00     0.179 A 
HETATM    5  C4  UNL     1      18.928  19.723  14.164  1.00  0.00     0.133 A 
HETATM    6  N3  UNL     1      19.785  19.648  15.297  1.00  0.00    -0.095 NA
HETATM    7  C5  UNL     1      18.986  18.846  13.105  1.00  0.00     0.163 A 
HETATM    8  C6  UNL     1      17.997  19.220  12.172  1.00  0.00     0.146 A 
ENDROOT
BRANCH   1   9
HETATM    9  O2  UNL     1      15.651  20.812  10.907  1.00  0.00    -0.211 OA
BRANCH   9  10
HETATM   10  C1  UNL     1      14.534  20.010  10.731  1.00  0.00     0.381 C 
HETATM   11  N1  UNL     1      14.374  19.162   9.613  1.00  0.00    -0.032 NA
HETATM   12  O1  UNL     1      13.655  20.089  11.651  1.00  0.00    -0.242 OA
ENDBRANCH   9  10
ENDBRANCH   1   9
BRANCH   4  13
HETATM   13  O4  UNL     1      17.546  21.631  14.674  1.00  0.00    -0.344 OA
ATOM     14  H4  UNL     1      17.760  22.542  14.512  1.00  0.00     0.219 HD
ENDBRANCH   4  13
BRANCH   8  15
HETATM   15  C7  UNL     1      17.790  18.502  10.928  1.00  0.00     0.284 C 
HETATM   16  N5  UNL     1      18.241  19.075   9.675  1.00  0.00    -0.056 NA
HETATM   17  O7  UNL     1      17.245  17.391  10.784  1.00  0.00    -0.269 OA
ENDBRANCH   8  15
BRANCH   7  18
HETATM   18  N4  UNL     1      19.908  17.772  12.993  1.00  0.00    -0.111 N 
HETATM   19  O5  UNL     1      19.752  16.687  13.620  1.00  0.00    -0.532 OA
HETATM   20  O6  UNL     1      21.040  17.830  12.204  1.00  0.00    -0.532 OA
ENDBRANCH   7  18
TORSDOF 5
ENDMDL
MODEL 4
REMARK VINA RESULT: -6.501733169      2.212      3.250
REMARK  5 active torsions:
REMARK  status: ('A' for Active; 'I' for Inactive)
REMARK    1  A    between atoms: C1_2  and  O2_4 
REMARK    2  A    between atoms: O2_4  and  C2_5 
REMARK       I    between atoms: C2_5  and  N2_7 
REMARK    3  A    between atoms: C3_8  and  O4_9 
REMARK    4  A    between atoms: C5_13  and  N4_14 
REMARK    5  A    between atoms: C6_17  and  C7_18 
ROOT
HETATM    1  C2  UNL     1      19.009  21.034  13.840  1.00  0.00     0.382 C 
HETATM    2  O3  UNL     1      18.742  22.244  14.218  1.00  0.00    -0.237 OA
HETATM    3  N2  UNL     1      18.440  20.605  12.612  1.00  0.00    -0.228 N 
HETATM    4  C3  UNL     1      17.643  21.400  11.816  1.00  0.00     0.179 A 
HETATM    5  C4  UNL     1      17.247  20.733  10.710  1.00  0.00     0.133 A 
HETATM    6  N3  UNL     1      16.428  21.147   9.623  1.00  0.00    -0.095 NA
HETATM    7  C5  UNL     1      17.809  19.481  10.807  1.00  0.00     0.163 A 
HETATM    8  C6  UNL     1      18.551  19.425  12.005  1.00  0.00     0.146 A 
ENDROOT
BRANCH   1   9
HETATM    9  O2  UNL     1      19.804  20.349  14.691  1.00  0.00    -0.211 OA
BRANCH   9  10
HETATM   10  C1  UNL     1      19.392  19.754  15.874  1.00  0.00     0.381 C 
HETATM   11  N1  UNL     1      18.990  20.503  17.002  1.00  0.00    -0.032 NA
HETATM   12  O1  UNL     1      19.399  18.479  15.875  1.00  0.00    -0.242 OA
ENDBRANCH   9  10
ENDBRANCH   1   9
BRANCH   4  13
HETATM   13  O4  UNL     1      17.298  22.695  12.110  1.00  0.00    -0.344 OA
ATOM     14  H4  UNL     1      16.481  23.105  11.852  1.00  0.00     0.219 HD
ENDBRANCH   4  13
BRANCH   8  15
HETATM   15  C7  UNL     1      19.272  18.236  12.418  1.00  0.00     0.284 C 
HETATM   16  N5  UNL     1      20.667  18.069  12.058  1.00  0.00    -0.056 NA
HETATM   17  O7  UNL     1      18.826  17.281  13.083  1.00  0.00    -0.269 OA
ENDBRANCH   8  15
BRANCH   7  18
HETATM   18  N4  UNL     1      17.638  18.441   9.855  1.00  0.00    -0.111 N 
HETATM   19  O5  UNL     1      16.895  17.444  10.079  1.00  0.00    -0.532 OA
HETATM   20  O6  UNL     1      18.268  18.432   8.627  1.00  0.00    -0.532 OA
ENDBRANCH   7  18
TORSDOF 5
ENDMDL
MODEL 5
REMARK VINA RESULT: -6.482813175      1.030      1.118
REMARK  5 active torsions:
REMARK  status: ('A' for Active; 'I' for Inactive)
REMARK    1  A    between atoms: C1_2  and  O2_4 
REMARK    2  A    between atoms: O2_4  and  C2_5 
REMARK       I    between atoms: C2_5  and  N2_7 
REMARK    3  A    between atoms: C3_8  and  O4_9 
REMARK    4  A    between atoms: C5_13  and  N4_14 
REMARK    5  A    between atoms: C6_17  and  C7_18 
ROOT
HETATM    1  C2  UNL     1      18.413  18.983  13.025  1.00  0.00     0.382 C 
HETATM    2  O3  UNL     1      18.741  19.408  14.204  1.00  0.00    -0.237 OA
HETATM    3  N2  UNL     1      17.387  19.696  12.349  1.00  0.00    -0.228 N 
HETATM    4  C3  UNL     1      16.745  20.799  12.872  1.00  0.00     0.179 A 
HETATM    5  C4  UNL     1      15.820  21.272  12.010  1.00  0.00     0.133 A 
HETATM    6  N3  UNL     1      14.931  22.377  12.121  1.00  0.00    -0.095 NA
HETATM    7  C5  UNL     1      15.877  20.449  10.909  1.00  0.00     0.163 A 
HETATM    8  C6  UNL     1      16.865  19.471  11.145  1.00  0.00     0.146 A 
ENDROOT
BRANCH   1   9
HETATM    9  O2  UNL     1      19.109  17.903  12.609  1.00  0.00    -0.211 OA
BRANCH   9  10
HETATM   10  C1  UNL     1      20.088  17.247  13.339  1.00  0.00     0.381 C 
HETATM   11  N1  UNL     1      19.783  16.365  14.399  1.00  0.00    -0.032 NA
HETATM   12  O1  UNL     1      21.288  17.494  12.988  1.00  0.00    -0.242 OA
ENDBRANCH   9  10
ENDBRANCH   1   9
BRANCH   4  13
HETATM   13  O4  UNL     1      17.011  21.340  14.104  1.00  0.00    -0.344 OA
ATOM     14  H4  UNL     1      16.348  21.634  14.717  1.00  0.00     0.219 HD
ENDBRANCH   4  13
BRANCH   8  15
HETATM   15  C7  UNL     1      17.179  18.434  10.179  1.00  0.00     0.284 C 
HETATM   16  N5  UNL     1      17.963  18.752   9.001  1.00  0.00    -0.056 NA
HETATM   17  O7  UNL     1      16.846  17.235  10.230  1.00  0.00    -0.269 OA
ENDBRANCH   8  15
BRANCH   7  18
HETATM   18  N4  UNL     1      15.057  20.578   9.757  1.00  0.00    -0.111 N 
HETATM   19  O5  UNL     1      15.245  21.486   8.899  1.00  0.00    -0.532 OA
HETATM   20  O6  UNL     1      13.996  19.737   9.490  1.00  0.00    -0.532 OA
ENDBRANCH   7  18
TORSDOF 5
ENDMDL
