MODEL 1
REMARK VINA RESULT: -6.760755178      0.000      0.000
REMARK  5 active torsions:
REMARK  status: ('A' for Active; 'I' for Inactive)
REMARK    1  A    between atoms: C3_7  and  N3_8 
REMARK    2  A    between atoms: C4_12  and  C5_13 
REMARK    3  A    between atoms: C5_13  and  O2_14 
REMARK    4  A    between atoms: C5_13  and  O3_16 
REMARK    5  A    between atoms: C6_18  and  N5_19 
ROOT
HETATM    1  C1  UNL     1      15.879  19.027  10.581  1.00  0.00     0.180 C 
HETATM    2  N1  UNL     1      16.342  19.782  11.755  1.00  0.00    -0.135 N 
HETATM    3  C2  UNL     1      15.665  20.834  12.182  1.00  0.00     0.354 A 
HETATM    4  O1  UNL     1      14.610  21.183  11.566  1.00  0.00    -0.245 OA
HETATM    5  N2  UNL     1      16.103  21.510  13.253  1.00  0.00    -0.140 N 
ATOM      6  H2  UNL     1      15.578  22.320  13.582  1.00  0.00     0.189 HD
HETATM    7  C3  UNL     1      17.234  21.136  13.913  1.00  0.00     0.701 A 
HETATM    8  N4  UNL     1      17.940  20.070  13.497  1.00  0.00     0.028 N 
HETATM    9  C4  UNL     1      19.078  19.457  13.940  1.00  0.00     0.157 A 
HETATM   10  C6  UNL     1      19.282  18.394  13.086  1.00  0.00     0.217 A 
HETATM   11  N6  UNL     1      18.279  18.396  12.164  1.00  0.00    -0.167 N 
ATOM     12  H6  UNL     1      18.170  17.726  11.403  1.00  0.00     0.186 HD
HETATM   13  C7  UNL     1      17.464  19.422  12.420  1.00  0.00     0.711 A 
ENDROOT
BRANCH   9  14
HETATM   14  C5  UNL     1      19.926  19.817  15.071  1.00  0.00     0.311 C 
BRANCH  14  15
HETATM   15  O2  UNL     1      20.545  21.055  15.019  1.00  0.00    -0.366 OA
ATOM     16  H2  UNL     1      21.407  21.119  15.413  1.00  0.00     0.213 HD
ENDBRANCH  14  15
BRANCH  14  17
HETATM   17  O3  UNL     1      19.294  19.604  16.310  1.00  0.00    -0.366 OA
ATOM     18  H3  UNL     1      19.709  18.919  16.819  1.00  0.00     0.213 HD
ENDBRANCH  14  17
ENDBRANCH   9  14
BRANCH  10  19
HETATM   19  N5  UNL     1      20.343  17.422  13.113  1.00  0.00    -0.095 N 
HETATM   20  O4  UNL     1      20.306  16.485  13.897  1.00  0.00    -0.530 OA
HETATM   21  O5  UNL     1      21.367  17.614  12.201  1.00  0.00    -0.530 OA
ENDBRANCH  10  19
BRANCH   7  22
HETATM   22  N3  UNL     1      17.585  21.801  14.932  1.00  0.00    -0.233 N 
ATOM     23  H32 UNL     1      17.005  22.556  15.297  1.00  0.00     0.174 HD
ATOM     24  H31 UNL     1      18.476  21.576  15.375  1.00  0.00     0.174 HD
ENDBRANCH   7  22
TORSDOF 5
ENDMDL
MODEL 2
REMARK VINA RESULT: -6.723155272      0.479      1.182
REMARK  5 active torsions:
REMARK  status: ('A' for Active; 'I' for Inactive)
REMARK    1  A    between atoms: C3_7  and  N3_8 
REMARK    2  A    between atoms: C4_12  and  C5_13 
REMARK    3  A    between atoms: C5_13  and  O2_14 
REMARK    4  A    between atoms: C5_13  and  O3_16 
REMARK    5  A    between atoms: C6_18  and  N5_19 
ROOT
HETATM    1  C1  UNL     1      16.314  19.049  10.126  1.00  0.00     0.180 C 
HETATM    2  N1  UNL     1      16.558  19.773  11.382  1.00  0.00    -0.135 N 
HETATM    3  C2  UNL     1      15.806  20.809  11.713  1.00  0.00     0.354 A 
HETATM    4  O1  UNL     1      14.870  21.169  10.933  1.00  0.00    -0.245 OA
HETATM    5  N2  UNL     1      16.044  21.456  12.863  1.00  0.00    -0.140 N 
ATOM      6  H2  UNL     1      15.461  22.253  13.117  1.00  0.00     0.189 HD
HETATM    7  C3  UNL     1      17.047  21.069  13.699  1.00  0.00     0.701 A 
HETATM    8  N4  UNL     1      17.826  20.020  13.384  1.00  0.00     0.028 N 
HETATM    9  C4  UNL     1      18.876  19.400  14.001  1.00  0.00     0.157 A 
HETATM   10  C6  UNL     1      19.236  18.363  13.167  1.00  0.00     0.217 A 
HETATM   11  N6  UNL     1      18.409  18.387  12.085  1.00  0.00    -0.167 N 
ATOM     12  H6  UNL     1      18.441  17.738  11.298  1.00  0.00     0.186 HD
HETATM   13  C7  UNL     1      17.551  19.401  12.223  1.00  0.00     0.711 A 
ENDROOT
BRANCH   9  14
HETATM   14  C5  UNL     1      19.510  19.732  15.272  1.00  0.00     0.311 C 
BRANCH  14  15
HETATM   15  O2  UNL     1      19.497  18.753  16.251  1.00  0.00    -0.366 OA
ATOM     16  H2  UNL     1      20.088  18.874  16.985  1.00  0.00     0.213 HD
ENDBRANCH  14  15
BRANCH  14  17
HETATM   17  O3  UNL     1      20.793  20.285  15.107  1.00  0.00    -0.366 OA
ATOM     18  H3  UNL     1      21.373  19.719  14.612  1.00  0.00     0.213 HD
ENDBRANCH  14  17
ENDBRANCH   9  14
BRANCH  10  19
HETATM   19  N5  UNL     1      20.286  17.397  13.352  1.00  0.00    -0.095 N 
HETATM   20  O4  UNL     1      21.359  17.533  12.783  1.00  0.00    -0.530 OA
HETATM   21  O5  UNL     1      20.003  16.348  14.209  1.00  0.00    -0.530 OA
ENDBRANCH  10  19
BRANCH   7  22
HETATM   22  N3  UNL     1      17.208  21.707  14.782  1.00  0.00    -0.233 N 
ATOM     23  H32 UNL     1      16.439  21.839  15.438  1.00  0.00     0.174 HD
ATOM     24  H31 UNL     1      18.127  22.105  14.978  1.00  0.00     0.174 HD
ENDBRANCH   7  22
TORSDOF 5
ENDMDL
MODEL 3
REMARK VINA RESULT: -6.547282721      3.637      4.582
REMARK  5 active torsions:
REMARK  status: ('A' for Active; 'I' for Inactive)
REMARK    1  A    between atoms: C3_7  and  N3_8 
REMARK    2  A    between atoms: C4_12  and  C5_13 
REMARK    3  A    between atoms: C5_13  and  O2_14 
REMARK    4  A    between atoms: C5_13  and  O3_16 
REMARK    5  A    between atoms: C6_18  and  N5_19 
ROOT
HETATM    1  C1  UNL     1      11.462  18.563  11.767  1.00  0.00     0.180 C 
HETATM    2  N1  UNL     1      12.340  19.696  12.093  1.00  0.00    -0.135 N 
HETATM    3  C2  UNL     1      11.906  20.676  12.868  1.00  0.00     0.354 A 
HETATM    4  O1  UNL     1      10.723  20.624  13.327  1.00  0.00    -0.245 OA
HETATM    5  N2  UNL     1      12.721  21.700  13.155  1.00  0.00    -0.140 N 
ATOM      6  H2  UNL     1      12.385  22.453  13.754  1.00  0.00     0.189 HD
HETATM    7  C3  UNL     1      13.991  21.754  12.663  1.00  0.00     0.701 A 
HETATM    8  N4  UNL     1      14.454  20.771  11.872  1.00  0.00     0.028 N 
HETATM    9  C4  UNL     1      15.647  20.541  11.248  1.00  0.00     0.157 A 
HETATM   10  C6  UNL     1      15.496  19.338  10.591  1.00  0.00     0.217 A 
HETATM   11  N6  UNL     1      14.233  18.885  10.829  1.00  0.00    -0.167 N 
ATOM     12  H6  UNL     1      13.835  18.017  10.470  1.00  0.00     0.186 HD
HETATM   13  C7  UNL     1      13.602  19.764  11.612  1.00  0.00     0.711 A 
ENDROOT
BRANCH   9  14
HETATM   14  C5  UNL     1      16.851  21.365  11.251  1.00  0.00     0.311 C 
BRANCH  14  15
HETATM   15  O2  UNL     1      16.750  22.622  10.678  1.00  0.00    -0.366 OA
ATOM     16  H2  UNL     1      17.375  23.275  10.966  1.00  0.00     0.213 HD
ENDBRANCH  14  15
BRANCH  14  17
HETATM   17  O3  UNL     1      17.465  21.419  12.516  1.00  0.00    -0.366 OA
ATOM     18  H3  UNL     1      17.367  20.611  13.004  1.00  0.00     0.213 HD
ENDBRANCH  14  17
ENDBRANCH   9  14
BRANCH  10  19
HETATM   19  N5  UNL     1      16.459  18.638   9.784  1.00  0.00    -0.095 N 
HETATM   20  O4  UNL     1      16.743  19.043   8.666  1.00  0.00    -0.530 OA
HETATM   21  O5  UNL     1      17.035  17.518  10.359  1.00  0.00    -0.530 OA
ENDBRANCH  10  19
BRANCH   7  22
HETATM   22  N3  UNL     1      14.721  22.737  12.987  1.00  0.00    -0.233 N 
ATOM     23  H32 UNL     1      14.356  23.690  12.989  1.00  0.00     0.174 HD
ATOM     24  H31 UNL     1      15.695  22.558  13.232  1.00  0.00     0.174 HD
ENDBRANCH   7  22
TORSDOF 5
ENDMDL
MODEL 4
REMARK VINA RESULT: -6.525908107      1.989      3.489
REMARK  5 active torsions:
REMARK  status: ('A' for Active; 'I' for Inactive)
REMARK    1  A    between atoms: C3_7  and  N3_8 
REMARK    2  A    between atoms: C4_12  and  C5_13 
REMARK    3  A    between atoms: C5_13  and  O2_14 
REMARK    4  A    between atoms: C5_13  and  O3_16 
REMARK    5  A    between atoms: C6_18  and  N5_19 
ROOT
HETATM    1  C1  UNL     1      17.796  21.498  16.232  1.00  0.00     0.180 C 
HETATM    2  N1  UNL     1      17.349  21.272  14.850  1.00  0.00    -0.135 N 
HETATM    3  C2  UNL     1      16.424  22.049  14.312  1.00  0.00     0.354 A 
HETATM    4  O1  UNL     1      15.928  22.992  15.003  1.00  0.00    -0.245 OA
HETATM    5  N2  UNL     1      16.030  21.827  13.050  1.00  0.00    -0.140 N 
ATOM      6  H2  UNL     1      15.317  22.429  12.637  1.00  0.00     0.189 HD
HETATM    7  C3  UNL     1      16.561  20.816  12.309  1.00  0.00     0.701 A 
HETATM    8  N4  UNL     1      17.502  20.012  12.834  1.00  0.00     0.028 N 
HETATM    9  C4  UNL     1      18.213  18.948  12.357  1.00  0.00     0.157 A 
HETATM   10  C6  UNL     1      19.042  18.562  13.389  1.00  0.00     0.217 A 
HETATM   11  N6  UNL     1      18.809  19.389  14.447  1.00  0.00    -0.167 N 
ATOM     12  H6  UNL     1      19.276  19.342  15.352  1.00  0.00     0.186 HD
HETATM   13  C7  UNL     1      17.867  20.271  14.102  1.00  0.00     0.711 A 
ENDROOT
BRANCH   9  14
HETATM   14  C5  UNL     1      18.143  18.322  11.040  1.00  0.00     0.311 C 
BRANCH  14  15
HETATM   15  O2  UNL     1      16.955  17.693  10.710  1.00  0.00    -0.366 OA
ATOM     16  H2  UNL     1      16.621  17.056  11.331  1.00  0.00     0.213 HD
ENDBRANCH  14  15
BRANCH  14  17
HETATM   17  O3  UNL     1      18.581  19.177  10.012  1.00  0.00    -0.366 OA
ATOM     18  H3  UNL     1      19.206  18.760   9.432  1.00  0.00     0.213 HD
ENDBRANCH  14  17
ENDBRANCH   9  14
BRANCH  10  19
HETATM   19  N5  UNL     1      20.001  17.490  13.407  1.00  0.00    -0.095 N 
HETATM   20  O4  UNL     1      19.770  16.463  14.028  1.00  0.00    -0.530 OA
HETATM   21  O5  UNL     1      21.158  17.696  12.675  1.00  0.00    -0.530 OA
ENDBRANCH  10  19
BRANCH   7  22
HETATM   22  N3  UNL     1      16.164  20.670  11.115  1.00  0.00    -0.233 N 
ATOM     23  H32 UNL     1      16.456  21.312  10.378  1.00  0.00     0.174 HD
ATOM     24  H31 UNL     1      15.526  19.902  10.906  1.00  0.00     0.174 HD
ENDBRANCH   7  22
TORSDOF 5
ENDMDL
MODEL 5
REMARK VINA RESULT: -6.447226509      2.399      3.979
REMARK  5 active torsions:
REMARK  status: ('A' for Active; 'I' for Inactive)
REMARK    1  A    between atoms: C3_7  and  N3_8 
REMARK    2  A    between atoms: C4_12  and  C5_13 
REMARK    3  A    between atoms: C5_13  and  O2_14 
REMARK    4  A    between atoms: C5_13  and  O3_16 
REMARK    5  A    between atoms: C6_18  and  N5_19 
ROOT
HETATM    1  C1  UNL     1      18.428  22.853  13.950  1.00  0.00     0.180 C 
HETATM    2  N1  UNL     1      17.868  22.239  12.737  1.00  0.00    -0.135 N 
HETATM    3  C2  UNL     1      16.993  22.899  11.998  1.00  0.00     0.354 A 
HETATM    4  O1  UNL     1      16.643  24.069  12.348  1.00  0.00    -0.245 OA
HETATM    5  N2  UNL     1      16.493  22.323  10.895  1.00  0.00    -0.140 N 
ATOM      6  H2  UNL     1      15.819  22.835  10.326  1.00  0.00     0.189 HD
HETATM    7  C3  UNL     1      16.868  21.068  10.520  1.00  0.00     0.701 A 
HETATM    8  N4  UNL     1      17.755  20.377  11.256  1.00  0.00     0.028 N 
HETATM    9  C4  UNL     1      18.321  19.139  11.141  1.00  0.00     0.157 A 
HETATM   10  C6  UNL     1      19.174  19.019  12.217  1.00  0.00     0.217 A 
HETATM   11  N6  UNL     1      19.098  20.170  12.944  1.00  0.00    -0.167 N 
ATOM     12  H6  UNL     1      19.618  20.368  13.799  1.00  0.00     0.186 HD
HETATM   13  C7  UNL     1      18.230  20.994  12.352  1.00  0.00     0.711 A 
ENDROOT
BRANCH   9  14
HETATM   14  C5  UNL     1      18.099  18.128  10.112  1.00  0.00     0.311 C 
BRANCH  14  15
HETATM   15  O2  UNL     1      16.846  17.538  10.077  1.00  0.00    -0.366 OA
ATOM     16  H2  UNL     1      16.102  18.120   9.980  1.00  0.00     0.213 HD
ENDBRANCH  14  15
BRANCH  14  17
HETATM   17  O3  UNL     1      18.507  18.556   8.836  1.00  0.00    -0.366 OA
ATOM     18  H3  UNL     1      18.683  19.489   8.804  1.00  0.00     0.213 HD
ENDBRANCH  14  17
ENDBRANCH   9  14
BRANCH  10  19
HETATM   19  N5  UNL     1      20.017  17.907  12.564  1.00  0.00    -0.095 N 
HETATM   20  O4  UNL     1      21.125  17.789  12.062  1.00  0.00    -0.530 OA
HETATM   21  O5  UNL     1      19.502  17.020  13.494  1.00  0.00    -0.530 OA
ENDBRANCH  10  19
BRANCH   7  22
HETATM   22  N3  UNL     1      16.378  20.586   9.456  1.00  0.00    -0.233 N 
ATOM     23  H32 UNL     1      15.729  19.800   9.481  1.00  0.00     0.174 HD
ATOM     24  H31 UNL     1      16.660  20.993   8.564  1.00  0.00     0.174 HD
ENDBRANCH   7  22
TORSDOF 5
ENDMDL
