MODEL 1
REMARK VINA RESULT: -5.698323564      0.000      0.000
REMARK  5 active torsions:
REMARK  status: ('A' for Active; 'I' for Inactive)
REMARK    1  A    between atoms: C2_2  and  C3_3 
REMARK    2  A    between atoms: C3_3  and  C4_4 
REMARK    3  A    between atoms: C4_4  and  N1_5 
REMARK    4  A    between atoms: N1_5  and  C5_7 
REMARK    5  A    between atoms: C7_13  and  N4_14 
ROOT
HETATM    1  C5  UNL     1      24.092   2.060  23.986  1.00  0.00     0.693 A 
HETATM    2  N2  UNL     1      24.313   0.886  24.602  1.00  0.00    -0.187 N 
ATOM      3  H2  UNL     1      23.585   0.172  24.614  1.00  0.00     0.185 HD
HETATM    4  C6  UNL     1      25.510   0.652  25.209  1.00  0.00     0.215 A 
HETATM    5  N3  UNL     1      26.464   1.603  25.185  1.00  0.00    -0.187 N 
ATOM      6  H3  UNL     1      27.356   1.416  25.641  1.00  0.00     0.185 HD
HETATM    7  C7  UNL     1      26.280   2.791  24.579  1.00  0.00     0.691 A 
HETATM    8  N5  UNL     1      25.091   2.992  23.991  1.00  0.00    -0.023 N 
ATOM      9  H5  UNL     1      24.925   3.883  23.524  1.00  0.00     0.203 HD
ENDROOT
BRANCH   1  10
HETATM   10  N1  UNL     1      22.976   2.329  23.399  1.00  0.00    -0.226 N 
ATOM     11  H1  UNL     1      22.118   1.968  23.816  1.00  0.00     0.177 HD
BRANCH  10  12
HETATM   12  C4  UNL     1      22.860   3.101  22.203  1.00  0.00     0.138 C 
BRANCH  12  13
HETATM   13  C3  UNL     1      21.430   3.411  21.817  1.00  0.00     0.020 C 
BRANCH  13  14
HETATM   14  C2  UNL     1      21.353   4.321  20.614  1.00  0.00    -0.003 C 
HETATM   15  C1  UNL     1      21.286   5.756  21.118  1.00  0.00     0.005 C 
ENDBRANCH  13  14
ENDBRANCH  12  13
ENDBRANCH  10  12
ENDBRANCH   1  10
BRANCH   7  16
HETATM   16  N4  UNL     1      27.220   3.677  24.579  1.00  0.00    -0.234 N 
ATOM     17  H42 UNL     1      28.103   3.547  25.073  1.00  0.00     0.174 HD
ATOM     18  H41 UNL     1      27.103   4.554  24.071  1.00  0.00     0.174 HD
ENDBRANCH   7  16
TORSDOF 5
ENDMDL
MODEL 2
REMARK VINA RESULT: -5.606677491      0.913      1.948
REMARK  5 active torsions:
REMARK  status: ('A' for Active; 'I' for Inactive)
REMARK    1  A    between atoms: C2_2  and  C3_3 
REMARK    2  A    between atoms: C3_3  and  C4_4 
REMARK    3  A    between atoms: C4_4  and  N1_5 
REMARK    4  A    between atoms: N1_5  and  C5_7 
REMARK    5  A    between atoms: C7_13  and  N4_14 
ROOT
HETATM    1  C5  UNL     1      24.489   2.632  23.403  1.00  0.00     0.693 A 
HETATM    2  N2  UNL     1      25.601   3.378  23.505  1.00  0.00    -0.187 N 
ATOM      3  H2  UNL     1      25.751   4.160  22.867  1.00  0.00     0.185 HD
HETATM    4  C6  UNL     1      26.529   3.090  24.461  1.00  0.00     0.215 A 
HETATM    5  N3  UNL     1      26.319   2.056  25.298  1.00  0.00    -0.187 N 
ATOM      6  H3  UNL     1      27.019   1.850  26.010  1.00  0.00     0.185 HD
HETATM    7  C7  UNL     1      25.218   1.285  25.228  1.00  0.00     0.691 A 
HETATM    8  N5  UNL     1      24.324   1.593  24.275  1.00  0.00    -0.023 N 
ATOM      9  H5  UNL     1      23.480   1.025  24.200  1.00  0.00     0.203 HD
ENDROOT
BRANCH   1  10
HETATM   10  N1  UNL     1      23.583   2.864  22.515  1.00  0.00    -0.226 N 
ATOM     11  H1  UNL     1      23.873   3.309  21.644  1.00  0.00     0.177 HD
BRANCH  10  12
HETATM   12  C4  UNL     1      22.201   2.539  22.668  1.00  0.00     0.138 C 
BRANCH  12  13
HETATM   13  C3  UNL     1      21.282   3.369  21.799  1.00  0.00     0.020 C 
BRANCH  13  14
HETATM   14  C2  UNL     1      22.018   4.495  21.112  1.00  0.00    -0.003 C 
HETATM   15  C1  UNL     1      21.111   5.717  21.117  1.00  0.00     0.005 C 
ENDBRANCH  13  14
ENDBRANCH  12  13
ENDBRANCH  10  12
ENDBRANCH   1  10
BRANCH   7  16
HETATM   16  N4  UNL     1      25.054   0.302  26.049  1.00  0.00    -0.234 N 
ATOM     17  H42 UNL     1      24.556   0.398  26.934  1.00  0.00     0.174 HD
ATOM     18  H41 UNL     1      25.428  -0.623  25.830  1.00  0.00     0.174 HD
ENDBRANCH   7  16
TORSDOF 5
ENDMDL
MODEL 3
REMARK VINA RESULT: -5.497097885      2.365      4.890
REMARK  5 active torsions:
REMARK  status: ('A' for Active; 'I' for Inactive)
REMARK    1  A    between atoms: C2_2  and  C3_3 
REMARK    2  A    between atoms: C3_3  and  C4_4 
REMARK    3  A    between atoms: C4_4  and  N1_5 
REMARK    4  A    between atoms: N1_5  and  C5_7 
REMARK    5  A    between atoms: C7_13  and  N4_14 
ROOT
HETATM    1  C5  UNL     1      25.133   1.313  25.365  1.00  0.00     0.693 A 
HETATM    2  N2  UNL     1      24.129   1.541  24.504  1.00  0.00    -0.187 N 
ATOM      3  H2  UNL     1      23.275   0.985  24.556  1.00  0.00     0.185 HD
HETATM    4  C6  UNL     1      24.251   2.517  23.560  1.00  0.00     0.215 A 
HETATM    5  N3  UNL     1      25.382   3.245  23.501  1.00  0.00    -0.187 N 
ATOM      6  H3  UNL     1      25.462   3.973  22.792  1.00  0.00     0.185 HD
HETATM    7  C7  UNL     1      26.411   3.046  24.346  1.00  0.00     0.691 A 
HETATM    8  N5  UNL     1      26.260   2.079  25.264  1.00  0.00    -0.023 N 
ATOM      9  H5  UNL     1      27.024   1.907  25.917  1.00  0.00     0.203 HD
ENDROOT
BRANCH   1  10
HETATM   10  N1  UNL     1      25.066   0.401  26.275  1.00  0.00    -0.226 N 
ATOM     11  H1  UNL     1      25.934   0.120  26.732  1.00  0.00     0.177 HD
BRANCH  10  12
HETATM   12  C4  UNL     1      23.858  -0.241  26.686  1.00  0.00     0.138 C 
BRANCH  12  13
HETATM   13  C3  UNL     1      23.523  -0.025  28.146  1.00  0.00     0.020 C 
BRANCH  13  14
HETATM   14  C2  UNL     1      22.802   1.282  28.373  1.00  0.00    -0.003 C 
HETATM   15  C1  UNL     1      23.573   2.063  29.428  1.00  0.00     0.005 C 
ENDBRANCH  13  14
ENDBRANCH  12  13
ENDBRANCH  10  12
ENDBRANCH   1  10
BRANCH   7  16
HETATM   16  N4  UNL     1      27.479   3.766  24.257  1.00  0.00    -0.234 N 
ATOM     17  H42 UNL     1      27.467   4.784  24.327  1.00  0.00     0.174 HD
ATOM     18  H41 UNL     1      28.388   3.327  24.111  1.00  0.00     0.174 HD
ENDBRANCH   7  16
TORSDOF 5
ENDMDL
MODEL 4
REMARK VINA RESULT: -5.447200003      2.478      5.305
REMARK  5 active torsions:
REMARK  status: ('A' for Active; 'I' for Inactive)
REMARK    1  A    between atoms: C2_2  and  C3_3 
REMARK    2  A    between atoms: C3_3  and  C4_4 
REMARK    3  A    between atoms: C4_4  and  N1_5 
REMARK    4  A    between atoms: N1_5  and  C5_7 
REMARK    5  A    between atoms: C7_13  and  N4_14 
ROOT
HETATM    1  C5  UNL     1      25.163   1.257  25.300  1.00  0.00     0.693 A 
HETATM    2  N2  UNL     1      24.175   1.473  24.416  1.00  0.00    -0.187 N 
ATOM      3  H2  UNL     1      23.337   0.890  24.436  1.00  0.00     0.185 HD
HETATM    4  C6  UNL     1      24.291   2.470  23.494  1.00  0.00     0.215 A 
HETATM    5  N3  UNL     1      25.401   3.233  23.480  1.00  0.00    -0.187 N 
ATOM      6  H3  UNL     1      25.477   3.977  22.787  1.00  0.00     0.185 HD
HETATM    7  C7  UNL     1      26.413   3.048  24.348  1.00  0.00     0.691 A 
HETATM    8  N5  UNL     1      26.269   2.058  25.243  1.00  0.00    -0.023 N 
ATOM      9  H5  UNL     1      27.021   1.896  25.912  1.00  0.00     0.203 HD
ENDROOT
BRANCH   1  10
HETATM   10  N1  UNL     1      25.100   0.326  26.190  1.00  0.00    -0.226 N 
ATOM     11  H1  UNL     1      25.978  -0.052  26.547  1.00  0.00     0.177 HD
BRANCH  10  12
HETATM   12  C4  UNL     1      23.884  -0.212  26.710  1.00  0.00     0.138 C 
BRANCH  12  13
HETATM   13  C3  UNL     1      23.382   0.505  27.944  1.00  0.00     0.020 C 
BRANCH  13  14
HETATM   14  C2  UNL     1      23.515  -0.346  29.185  1.00  0.00    -0.003 C 
HETATM   15  C1  UNL     1      22.399  -1.381  29.163  1.00  0.00     0.005 C 
ENDBRANCH  13  14
ENDBRANCH  12  13
ENDBRANCH  10  12
ENDBRANCH   1  10
BRANCH   7  16
HETATM   16  N4  UNL     1      27.461   3.801  24.301  1.00  0.00    -0.234 N 
ATOM     17  H42 UNL     1      28.153   3.739  23.553  1.00  0.00     0.174 HD
ATOM     18  H41 UNL     1      27.632   4.496  25.028  1.00  0.00     0.174 HD
ENDBRANCH   7  16
TORSDOF 5
ENDMDL
MODEL 5
REMARK VINA RESULT: -5.407287660      1.663      2.350
REMARK  5 active torsions:
REMARK  status: ('A' for Active; 'I' for Inactive)
REMARK    1  A    between atoms: C2_2  and  C3_3 
REMARK    2  A    between atoms: C3_3  and  C4_4 
REMARK    3  A    between atoms: C4_4  and  N1_5 
REMARK    4  A    between atoms: N1_5  and  C5_7 
REMARK    5  A    between atoms: C7_13  and  N4_14 
ROOT
HETATM    1  C5  UNL     1      24.171   2.145  23.852  1.00  0.00     0.693 A 
HETATM    2  N2  UNL     1      24.321   0.982  24.505  1.00  0.00    -0.187 N 
ATOM      3  H2  UNL     1      23.575   0.286  24.486  1.00  0.00     0.185 HD
HETATM    4  C6  UNL     1      25.471   0.732  25.194  1.00  0.00     0.215 A 
HETATM    5  N3  UNL     1      26.448   1.658  25.211  1.00  0.00    -0.187 N 
ATOM      6  H3  UNL     1      27.304   1.460  25.728  1.00  0.00     0.185 HD
HETATM    7  C7  UNL     1      26.336   2.835  24.569  1.00  0.00     0.691 A 
HETATM    8  N5  UNL     1      25.192   3.052  23.900  1.00  0.00    -0.023 N 
ATOM      9  H5  UNL     1      25.080   3.937  23.405  1.00  0.00     0.203 HD
ENDROOT
BRANCH   1  10
HETATM   10  N1  UNL     1      23.103   2.429  23.187  1.00  0.00    -0.226 N 
ATOM     11  H1  UNL     1      23.203   2.985  22.338  1.00  0.00     0.177 HD
BRANCH  10  12
HETATM   12  C4  UNL     1      21.787   2.017  23.561  1.00  0.00     0.138 C 
BRANCH  12  13
HETATM   13  C3  UNL     1      20.830   1.909  22.394  1.00  0.00     0.020 C 
BRANCH  13  14
HETATM   14  C2  UNL     1      20.747   0.499  21.860  1.00  0.00    -0.003 C 
HETATM   15  C1  UNL     1      20.831  -0.454  23.044  1.00  0.00     0.005 C 
ENDBRANCH  13  14
ENDBRANCH  12  13
ENDBRANCH  10  12
ENDBRANCH   1  10
BRANCH   7  16
HETATM   16  N4  UNL     1      27.296   3.698  24.610  1.00  0.00    -0.234 N 
ATOM     17  H42 UNL     1      28.199   3.499  25.042  1.00  0.00     0.174 HD
ATOM     18  H41 UNL     1      27.177   4.625  24.201  1.00  0.00     0.174 HD
ENDBRANCH   7  16
TORSDOF 5
ENDMDL
