MODEL 1
REMARK VINA RESULT: -7.289127595      0.000      0.000
REMARK  14 active torsions:
REMARK  status: ('A' for Active; 'I' for Inactive)
REMARK       I    between atoms: C2_4  and  N3_6 
REMARK    1  A    between atoms: N3_6  and  C3_8 
REMARK    2  A    between atoms: C3_8  and  C4_9 
REMARK    3  A    between atoms: C4_9  and  O1_10 
REMARK    4  A    between atoms: O1_10  and  C5_11 
REMARK    5  A    between atoms: C5_11  and  C6_12 
REMARK    6  A    between atoms: C6_12  and  O2_13 
REMARK    7  A    between atoms: O2_13  and  C7_14 
REMARK    8  A    between atoms: C7_14  and  C8_15 
REMARK    9  A    between atoms: C8_15  and  N4_16 
REMARK   10  A    between atoms: N4_16  and  C9_18 
REMARK   11  A    between atoms: C10_21  and  N6_22 
REMARK   12  A    between atoms: N6_22  and  N7_24 
REMARK   13  A    between atoms: C12_28  and  N8_29 
REMARK   14  A    between atoms: N8_29  and  O3_31 
ROOT
HETATM    1  C9  UNL     1      51.803  16.406  23.408  1.00  0.00     0.681 A 
HETATM    2  N5  UNL     1      51.547  17.366  24.306  1.00  0.00    -0.175 N 
ATOM      3  H5  UNL     1      52.298  18.003  24.571  1.00  0.00     0.186 HD
HETATM    4  C10 UNL     1      50.319  17.522  24.879  1.00  0.00     0.138 A 
HETATM    5  C11 UNL     1      49.311  16.675  24.534  1.00  0.00     0.101 A 
HETATM    6  C12 UNL     1      49.566  15.693  23.617  1.00  0.00     0.144 A 
HETATM    7  N9  UNL     1      50.796  15.557  23.059  1.00  0.00    -0.175 N 
ATOM      8  H9  UNL     1      50.967  14.817  22.378  1.00  0.00     0.186 HD
ENDROOT
BRANCH   1   9
HETATM    9  N4  UNL     1      52.949  16.255  22.865  1.00  0.00    -0.224 N 
ATOM     10  H4  UNL     1      53.237  16.944  22.170  1.00  0.00     0.177 HD
BRANCH   9  11
HETATM   11  C8  UNL     1      53.872  15.179  23.163  1.00  0.00     0.164 C 
BRANCH  11  12
HETATM   12  C7  UNL     1      55.013  15.147  22.190  1.00  0.00     0.188 C 
BRANCH  12  13
HETATM   13  O2  UNL     1      56.157  14.544  22.640  1.00  0.00    -0.387 OA
BRANCH  13  14
HETATM   14  C6  UNL     1      57.240  14.586  21.783  1.00  0.00     0.193 C 
BRANCH  14  15
HETATM   15  C5  UNL     1      56.880  14.663  20.326  1.00  0.00     0.193 C 
BRANCH  15  16
HETATM   16  O1  UNL     1      57.280  15.789  19.679  1.00  0.00    -0.387 OA
BRANCH  16  17
HETATM   17  C4  UNL     1      57.665  16.832  20.495  1.00  0.00     0.187 C 
BRANCH  17  18
HETATM   18  C3  UNL     1      57.051  18.152  20.092  1.00  0.00     0.148 C 
BRANCH  18  19
HETATM   19  N3  UNL     1      58.001  19.235  20.125  1.00  0.00    -0.363 N 
HETATM   20  C2  UNL     1      58.063  20.194  21.173  1.00  0.00     0.183 C 
HETATM   21  N1  UNL     1      57.247  21.201  21.160  1.00  0.00    -0.369 N 
HETATM   22  N2  UNL     1      59.022  19.999  22.192  1.00  0.00    -0.064 NA
HETATM   23  C1  UNL     1      57.343  22.163  22.254  1.00  0.00     0.148 C 
ATOM     24  H1  UNL     1      56.563  21.317  20.413  1.00  0.00     0.161 HD
ATOM     25  H3  UNL     1      58.664  19.318  19.356  1.00  0.00     0.162 HD
ENDBRANCH  18  19
ENDBRANCH  17  18
ENDBRANCH  16  17
ENDBRANCH  15  16
ENDBRANCH  14  15
ENDBRANCH  13  14
ENDBRANCH  12  13
ENDBRANCH  11  12
ENDBRANCH   9  11
ENDBRANCH   1   9
BRANCH   4  26
HETATM   26  N6  UNL     1      50.103  18.556  25.823  1.00  0.00    -0.292 N 
ATOM     27  H6  UNL     1      50.885  18.959  26.340  1.00  0.00     0.188 HD
BRANCH  26  28
HETATM   28  N7  UNL     1      48.810  19.012  26.032  1.00  0.00    -0.344 N 
ATOM     29  H72 UNL     1      48.295  19.439  25.262  1.00  0.00     0.176 HD
ATOM     30  H71 UNL     1      48.397  18.911  26.959  1.00  0.00     0.176 HD
ENDBRANCH  26  28
ENDBRANCH   4  26
BRANCH   6  31
HETATM   31  N8  UNL     1      48.634  14.860  23.254  1.00  0.00    -0.250 N 
ATOM     32  H8  UNL     1      48.671  14.450  22.321  1.00  0.00     0.196 HD
BRANCH  31  33
HETATM   33  O3  UNL     1      47.613  14.522  24.087  1.00  0.00    -0.284 OA
HETATM   34  C13 UNL     1      46.629  13.603  23.663  1.00  0.00     0.237 C 
ENDBRANCH  31  33
ENDBRANCH   6  31
TORSDOF 14
ENDMDL
MODEL 2
REMARK VINA RESULT: -7.004125128      5.246      8.027
REMARK  14 active torsions:
REMARK  status: ('A' for Active; 'I' for Inactive)
REMARK       I    between atoms: C2_4  and  N3_6 
REMARK    1  A    between atoms: N3_6  and  C3_8 
REMARK    2  A    between atoms: C3_8  and  C4_9 
REMARK    3  A    between atoms: C4_9  and  O1_10 
REMARK    4  A    between atoms: O1_10  and  C5_11 
REMARK    5  A    between atoms: C5_11  and  C6_12 
REMARK    6  A    between atoms: C6_12  and  O2_13 
REMARK    7  A    between atoms: O2_13  and  C7_14 
REMARK    8  A    between atoms: C7_14  and  C8_15 
REMARK    9  A    between atoms: C8_15  and  N4_16 
REMARK   10  A    between atoms: N4_16  and  C9_18 
REMARK   11  A    between atoms: C10_21  and  N6_22 
REMARK   12  A    between atoms: N6_22  and  N7_24 
REMARK   13  A    between atoms: C12_28  and  N8_29 
REMARK   14  A    between atoms: N8_29  and  O3_31 
ROOT
HETATM    1  C9  UNL     1      55.355  16.511  20.179  1.00  0.00     0.681 A 
HETATM    2  N5  UNL     1      56.447  17.286  20.216  1.00  0.00    -0.175 N 
ATOM      3  H5  UNL     1      56.381  18.243  19.870  1.00  0.00     0.186 HD
HETATM    4  C10 UNL     1      57.643  16.842  20.698  1.00  0.00     0.138 A 
HETATM    5  C11 UNL     1      57.741  15.565  21.161  1.00  0.00     0.101 A 
HETATM    6  C12 UNL     1      56.630  14.769  21.127  1.00  0.00     0.144 A 
HETATM    7  N9  UNL     1      55.450  15.233  20.642  1.00  0.00    -0.175 N 
ATOM      8  H9  UNL     1      54.632  14.623  20.624  1.00  0.00     0.186 HD
ENDROOT
BRANCH   1   9
HETATM    9  N4  UNL     1      54.231  16.920  19.731  1.00  0.00    -0.224 N 
ATOM     10  H4  UNL     1      53.420  16.836  20.344  1.00  0.00     0.177 HD
BRANCH   9  11
HETATM   11  C8  UNL     1      54.022  17.495  18.418  1.00  0.00     0.164 C 
BRANCH  11  12
HETATM   12  C7  UNL     1      54.104  16.454  17.342  1.00  0.00     0.188 C 
BRANCH  12  13
HETATM   13  O2  UNL     1      55.218  16.511  16.547  1.00  0.00    -0.387 OA
BRANCH  13  14
HETATM   14  C6  UNL     1      55.046  17.094  15.307  1.00  0.00     0.193 C 
BRANCH  14  15
HETATM   15  C5  UNL     1      55.613  16.303  14.161  1.00  0.00     0.193 C 
BRANCH  15  16
HETATM   16  O1  UNL     1      56.910  15.920  14.295  1.00  0.00    -0.387 OA
BRANCH  16  17
HETATM   17  C4  UNL     1      57.448  15.272  13.203  1.00  0.00     0.187 C 
BRANCH  17  18
HETATM   18  C3  UNL     1      57.266  13.773  13.260  1.00  0.00     0.148 C 
BRANCH  18  19
HETATM   19  N3  UNL     1      57.676  13.216  14.524  1.00  0.00    -0.363 N 
HETATM   20  C2  UNL     1      56.766  12.709  15.492  1.00  0.00     0.183 C 
HETATM   21  N1  UNL     1      56.172  13.532  16.297  1.00  0.00    -0.369 N 
HETATM   22  N2  UNL     1      56.549  11.313  15.527  1.00  0.00    -0.064 NA
HETATM   23  C1  UNL     1      55.245  12.972  17.276  1.00  0.00     0.148 C 
ATOM     24  H1  UNL     1      56.346  14.536  16.248  1.00  0.00     0.161 HD
ATOM     25  H3  UNL     1      58.673  13.183  14.736  1.00  0.00     0.162 HD
ENDBRANCH  18  19
ENDBRANCH  17  18
ENDBRANCH  16  17
ENDBRANCH  15  16
ENDBRANCH  14  15
ENDBRANCH  13  14
ENDBRANCH  12  13
ENDBRANCH  11  12
ENDBRANCH   9  11
ENDBRANCH   1   9
BRANCH   4  26
HETATM   26  N6  UNL     1      58.766  17.705  20.715  1.00  0.00    -0.292 N 
ATOM     27  H6  UNL     1      59.282  17.901  19.857  1.00  0.00     0.188 HD
BRANCH  26  28
HETATM   28  N7  UNL     1      59.151  18.280  21.916  1.00  0.00    -0.344 N 
ATOM     29  H72 UNL     1      58.942  17.803  22.793  1.00  0.00     0.176 HD
ATOM     30  H71 UNL     1      59.640  19.174  21.900  1.00  0.00     0.176 HD
ENDBRANCH  26  28
ENDBRANCH   4  26
BRANCH   6  31
HETATM   31  N8  UNL     1      56.674  13.542  21.558  1.00  0.00    -0.250 N 
ATOM     32  H8  UNL     1      56.494  12.779  20.905  1.00  0.00     0.196 HD
BRANCH  31  33
HETATM   33  O3  UNL     1      56.954  13.250  22.857  1.00  0.00    -0.284 OA
HETATM   34  C13 UNL     1      55.916  13.205  23.812  1.00  0.00     0.237 C 
ENDBRANCH  31  33
ENDBRANCH   6  31
TORSDOF 14
ENDMDL
MODEL 3
REMARK VINA RESULT: -7.001926290      1.898      2.440
REMARK  14 active torsions:
REMARK  status: ('A' for Active; 'I' for Inactive)
REMARK       I    between atoms: C2_4  and  N3_6 
REMARK    1  A    between atoms: N3_6  and  C3_8 
REMARK    2  A    between atoms: C3_8  and  C4_9 
REMARK    3  A    between atoms: C4_9  and  O1_10 
REMARK    4  A    between atoms: O1_10  and  C5_11 
REMARK    5  A    between atoms: C5_11  and  C6_12 
REMARK    6  A    between atoms: C6_12  and  O2_13 
REMARK    7  A    between atoms: O2_13  and  C7_14 
REMARK    8  A    between atoms: C7_14  and  C8_15 
REMARK    9  A    between atoms: C8_15  and  N4_16 
REMARK   10  A    between atoms: N4_16  and  C9_18 
REMARK   11  A    between atoms: C10_21  and  N6_22 
REMARK   12  A    between atoms: N6_22  and  N7_24 
REMARK   13  A    between atoms: C12_28  and  N8_29 
REMARK   14  A    between atoms: N8_29  and  O3_31 
ROOT
HETATM    1  C9  UNL     1      52.035  16.381  23.336  1.00  0.00     0.681 A 
HETATM    2  N5  UNL     1      51.786  17.358  24.217  1.00  0.00    -0.175 N 
ATOM      3  H5  UNL     1      52.554  17.964  24.508  1.00  0.00     0.186 HD
HETATM    4  C10 UNL     1      50.545  17.572  24.741  1.00  0.00     0.138 A 
HETATM    5  C11 UNL     1      49.515  16.766  24.361  1.00  0.00     0.101 A 
HETATM    6  C12 UNL     1      49.763  15.767  23.460  1.00  0.00     0.144 A 
HETATM    7  N9  UNL     1      51.007  15.573  22.953  1.00  0.00    -0.175 N 
ATOM      8  H9  UNL     1      51.172  14.822  22.283  1.00  0.00     0.186 HD
ENDROOT
BRANCH   1   9
HETATM    9  N4  UNL     1      53.195  16.176  22.840  1.00  0.00    -0.224 N 
ATOM     10  H4  UNL     1      53.539  16.846  22.151  1.00  0.00     0.177 HD
BRANCH   9  11
HETATM   11  C8  UNL     1      54.058  15.064  23.181  1.00  0.00     0.164 C 
BRANCH  11  12
HETATM   12  C7  UNL     1      55.172  14.907  22.189  1.00  0.00     0.188 C 
BRANCH  12  13
HETATM   13  O2  UNL     1      56.408  14.659  22.723  1.00  0.00    -0.387 OA
BRANCH  13  14
HETATM   14  C6  UNL     1      57.286  13.960  21.917  1.00  0.00     0.193 C 
BRANCH  14  15
HETATM   15  C5  UNL     1      58.012  14.804  20.907  1.00  0.00     0.193 C 
BRANCH  15  16
HETATM   16  O1  UNL     1      58.252  16.089  21.277  1.00  0.00    -0.387 OA
BRANCH  16  17
HETATM   17  C4  UNL     1      58.092  17.029  20.281  1.00  0.00     0.187 C 
BRANCH  17  18
HETATM   18  C3  UNL     1      57.023  18.048  20.600  1.00  0.00     0.148 C 
BRANCH  18  19
HETATM   19  N3  UNL     1      55.738  17.689  20.055  1.00  0.00    -0.363 N 
HETATM   20  C2  UNL     1      55.357  17.945  18.709  1.00  0.00     0.183 C 
HETATM   21  N1  UNL     1      54.920  19.121  18.387  1.00  0.00    -0.369 N 
HETATM   22  N2  UNL     1      55.477  16.890  17.777  1.00  0.00    -0.064 NA
HETATM   23  C1  UNL     1      54.539  19.343  16.995  1.00  0.00     0.148 C 
ATOM     24  H1  UNL     1      54.845  19.866  19.081  1.00  0.00     0.161 HD
ATOM     25  H3  UNL     1      55.067  17.227  20.667  1.00  0.00     0.162 HD
ENDBRANCH  18  19
ENDBRANCH  17  18
ENDBRANCH  16  17
ENDBRANCH  15  16
ENDBRANCH  14  15
ENDBRANCH  13  14
ENDBRANCH  12  13
ENDBRANCH  11  12
ENDBRANCH   9  11
ENDBRANCH   1   9
BRANCH   4  26
HETATM   26  N6  UNL     1      50.338  18.621  25.669  1.00  0.00    -0.292 N 
ATOM     27  H6  UNL     1      51.128  19.061  26.140  1.00  0.00     0.188 HD
BRANCH  26  28
HETATM   28  N7  UNL     1      49.041  19.040  25.927  1.00  0.00    -0.344 N 
ATOM     29  H72 UNL     1      48.322  18.921  25.214  1.00  0.00     0.176 HD
ATOM     30  H71 UNL     1      48.831  19.463  26.831  1.00  0.00     0.176 HD
ENDBRANCH  26  28
ENDBRANCH   4  26
BRANCH   6  31
HETATM   31  N8  UNL     1      48.811  14.973  23.066  1.00  0.00    -0.250 N 
ATOM     32  H8  UNL     1      48.093  14.689  23.733  1.00  0.00     0.196 HD
BRANCH  31  33
HETATM   33  O3  UNL     1      48.747  14.511  21.788  1.00  0.00    -0.284 OA
HETATM   34  C13 UNL     1      47.956  13.383  21.482  1.00  0.00     0.237 C 
ENDBRANCH  31  33
ENDBRANCH   6  31
TORSDOF 14
ENDMDL
MODEL 4
REMARK VINA RESULT: -6.973542779      5.661      8.722
REMARK  14 active torsions:
REMARK  status: ('A' for Active; 'I' for Inactive)
REMARK       I    between atoms: C2_4  and  N3_6 
REMARK    1  A    between atoms: N3_6  and  C3_8 
REMARK    2  A    between atoms: C3_8  and  C4_9 
REMARK    3  A    between atoms: C4_9  and  O1_10 
REMARK    4  A    between atoms: O1_10  and  C5_11 
REMARK    5  A    between atoms: C5_11  and  C6_12 
REMARK    6  A    between atoms: C6_12  and  O2_13 
REMARK    7  A    between atoms: O2_13  and  C7_14 
REMARK    8  A    between atoms: C7_14  and  C8_15 
REMARK    9  A    between atoms: C8_15  and  N4_16 
REMARK   10  A    between atoms: N4_16  and  C9_18 
REMARK   11  A    between atoms: C10_21  and  N6_22 
REMARK   12  A    between atoms: N6_22  and  N7_24 
REMARK   13  A    between atoms: C12_28  and  N8_29 
REMARK   14  A    between atoms: N8_29  and  O3_31 
ROOT
HETATM    1  C9  UNL     1      55.358  16.479  20.080  1.00  0.00     0.681 A 
HETATM    2  N5  UNL     1      56.437  17.270  20.130  1.00  0.00    -0.175 N 
ATOM      3  H5  UNL     1      56.376  18.209  19.738  1.00  0.00     0.186 HD
HETATM    4  C10 UNL     1      57.615  16.865  20.686  1.00  0.00     0.138 A 
HETATM    5  C11 UNL     1      57.707  15.611  21.210  1.00  0.00     0.101 A 
HETATM    6  C12 UNL     1      56.608  14.799  21.163  1.00  0.00     0.144 A 
HETATM    7  N9  UNL     1      55.446  15.224  20.605  1.00  0.00    -0.175 N 
ATOM      8  H9  UNL     1      54.637  14.604  20.578  1.00  0.00     0.186 HD
ENDROOT
BRANCH   1   9
HETATM    9  N4  UNL     1      54.250  16.852  19.564  1.00  0.00    -0.224 N 
ATOM     10  H4  UNL     1      53.414  16.792  20.146  1.00  0.00     0.177 HD
BRANCH   9  11
HETATM   11  C8  UNL     1      54.093  17.355  18.215  1.00  0.00     0.164 C 
BRANCH  11  12
HETATM   12  C7  UNL     1      54.269  16.267  17.198  1.00  0.00     0.188 C 
BRANCH  12  13
HETATM   13  O2  UNL     1      55.373  16.381  16.395  1.00  0.00    -0.387 OA
BRANCH  13  14
HETATM   14  C6  UNL     1      55.125  16.520  15.043  1.00  0.00     0.193 C 
BRANCH  14  15
HETATM   15  C5  UNL     1      56.208  15.980  14.152  1.00  0.00     0.193 C 
BRANCH  15  16
HETATM   16  O1  UNL     1      57.241  16.826  13.900  1.00  0.00    -0.387 OA
BRANCH  16  17
HETATM   17  C4  UNL     1      58.303  16.274  13.216  1.00  0.00     0.187 C 
BRANCH  17  18
HETATM   18  C3  UNL     1      57.900  15.103  12.351  1.00  0.00     0.148 C 
BRANCH  18  19
HETATM   19  N3  UNL     1      58.683  13.924  12.620  1.00  0.00    -0.363 N 
HETATM   20  C2  UNL     1      58.208  12.600  12.410  1.00  0.00     0.183 C 
HETATM   21  N1  UNL     1      57.463  12.044  13.313  1.00  0.00    -0.369 N 
HETATM   22  N2  UNL     1      58.575  11.948  11.212  1.00  0.00    -0.064 NA
HETATM   23  C1  UNL     1      56.996  10.684  13.060  1.00  0.00     0.148 C 
ATOM     24  H1  UNL     1      57.212  12.538  14.169  1.00  0.00     0.161 HD
ATOM     25  H3  UNL     1      59.630  14.045  12.980  1.00  0.00     0.162 HD
ENDBRANCH  18  19
ENDBRANCH  17  18
ENDBRANCH  16  17
ENDBRANCH  15  16
ENDBRANCH  14  15
ENDBRANCH  13  14
ENDBRANCH  12  13
ENDBRANCH  11  12
ENDBRANCH   9  11
ENDBRANCH   1   9
BRANCH   4  26
HETATM   26  N6  UNL     1      58.726  17.743  20.713  1.00  0.00    -0.292 N 
ATOM     27  H6  UNL     1      59.196  18.012  19.848  1.00  0.00     0.188 HD
BRANCH  26  28
HETATM   28  N7  UNL     1      59.163  18.232  21.934  1.00  0.00    -0.344 N 
ATOM     29  H72 UNL     1      59.021  17.678  22.779  1.00  0.00     0.176 HD
ATOM     30  H71 UNL     1      59.622  19.142  21.964  1.00  0.00     0.176 HD
ENDBRANCH  26  28
ENDBRANCH   4  26
BRANCH   6  31
HETATM   31  N8  UNL     1      56.647  13.594  21.652  1.00  0.00    -0.250 N 
ATOM     32  H8  UNL     1      56.489  12.801  21.030  1.00  0.00     0.196 HD
BRANCH  31  33
HETATM   33  O3  UNL     1      56.894  13.364  22.970  1.00  0.00    -0.284 OA
HETATM   34  C13 UNL     1      55.843  13.436  23.909  1.00  0.00     0.237 C 
ENDBRANCH  31  33
ENDBRANCH   6  31
TORSDOF 14
ENDMDL
MODEL 5
REMARK VINA RESULT: -6.949284989      5.900      8.746
REMARK  14 active torsions:
REMARK  status: ('A' for Active; 'I' for Inactive)
REMARK       I    between atoms: C2_4  and  N3_6 
REMARK    1  A    between atoms: N3_6  and  C3_8 
REMARK    2  A    between atoms: C3_8  and  C4_9 
REMARK    3  A    between atoms: C4_9  and  O1_10 
REMARK    4  A    between atoms: O1_10  and  C5_11 
REMARK    5  A    between atoms: C5_11  and  C6_12 
REMARK    6  A    between atoms: C6_12  and  O2_13 
REMARK    7  A    between atoms: O2_13  and  C7_14 
REMARK    8  A    between atoms: C7_14  and  C8_15 
REMARK    9  A    between atoms: C8_15  and  N4_16 
REMARK   10  A    between atoms: N4_16  and  C9_18 
REMARK   11  A    between atoms: C10_21  and  N6_22 
REMARK   12  A    between atoms: N6_22  and  N7_24 
REMARK   13  A    between atoms: C12_28  and  N8_29 
REMARK   14  A    between atoms: N8_29  and  O3_31 
ROOT
HETATM    1  C9  UNL     1      55.754  14.539  19.027  1.00  0.00     0.681 A 
HETATM    2  N5  UNL     1      55.744  15.876  19.096  1.00  0.00    -0.175 N 
ATOM      3  H5  UNL     1      55.326  16.404  18.330  1.00  0.00     0.186 HD
HETATM    4  C10 UNL     1      56.272  16.557  20.153  1.00  0.00     0.138 A 
HETATM    5  C11 UNL     1      56.834  15.861  21.180  1.00  0.00     0.101 A 
HETATM    6  C12 UNL     1      56.847  14.495  21.115  1.00  0.00     0.144 A 
HETATM    7  N9  UNL     1      56.314  13.838  20.053  1.00  0.00    -0.175 N 
ATOM      8  H9  UNL     1      56.334  12.819  20.022  1.00  0.00     0.186 HD
ENDROOT
BRANCH   1   9
HETATM    9  N4  UNL     1      55.259  13.894  18.041  1.00  0.00    -0.224 N 
ATOM     10  H4  UNL     1      54.261  13.679  18.071  1.00  0.00     0.177 HD
BRANCH   9  11
HETATM   11  C8  UNL     1      56.007  13.444  16.885  1.00  0.00     0.164 C 
BRANCH  11  12
HETATM   12  C7  UNL     1      55.659  14.239  15.661  1.00  0.00     0.188 C 
BRANCH  12  13
HETATM   13  O2  UNL     1      55.508  15.586  15.855  1.00  0.00    -0.387 OA
BRANCH  13  14
HETATM   14  C6  UNL     1      55.467  16.360  14.711  1.00  0.00     0.193 C 
BRANCH  14  15
HETATM   15  C5  UNL     1      56.557  16.066  13.719  1.00  0.00     0.193 C 
BRANCH  15  16
HETATM   16  O1  UNL     1      57.643  16.880  13.779  1.00  0.00    -0.387 OA
BRANCH  16  17
HETATM   17  C4  UNL     1      58.716  16.490  13.005  1.00  0.00     0.187 C 
BRANCH  17  18
HETATM   18  C3  UNL     1      58.371  15.381  12.038  1.00  0.00     0.148 C 
BRANCH  18  19
HETATM   19  N3  UNL     1      59.027  14.141  12.366  1.00  0.00    -0.363 N 
HETATM   20  C2  UNL     1      58.387  12.873  12.300  1.00  0.00     0.183 C 
HETATM   21  N1  UNL     1      57.643  12.487  13.288  1.00  0.00    -0.369 N 
HETATM   22  N2  UNL     1      58.596  12.086  11.146  1.00  0.00    -0.064 NA
HETATM   23  C1  UNL     1      57.004  11.178  13.182  1.00  0.00     0.148 C 
ATOM     24  H1  UNL     1      57.508  13.075  14.110  1.00  0.00     0.161 HD
ATOM     25  H3  UNL     1      60.002  14.174  12.661  1.00  0.00     0.162 HD
ENDBRANCH  18  19
ENDBRANCH  17  18
ENDBRANCH  16  17
ENDBRANCH  15  16
ENDBRANCH  14  15
ENDBRANCH  13  14
ENDBRANCH  12  13
ENDBRANCH  11  12
ENDBRANCH   9  11
ENDBRANCH   1   9
BRANCH   4  26
HETATM   26  N6  UNL     1      56.234  17.973  20.176  1.00  0.00    -0.292 N 
ATOM     27  H6  UNL     1      55.670  18.487  19.498  1.00  0.00     0.188 HD
BRANCH  26  28
HETATM   28  N7  UNL     1      56.976  18.648  21.133  1.00  0.00    -0.344 N 
ATOM     29  H72 UNL     1      56.520  19.337  21.730  1.00  0.00     0.176 HD
ATOM     30  H71 UNL     1      57.970  18.439  21.223  1.00  0.00     0.176 HD
ENDBRANCH  26  28
ENDBRANCH   4  26
BRANCH   6  31
HETATM   31  N8  UNL     1      57.371  13.786  22.072  1.00  0.00    -0.250 N 
ATOM     32  H8  UNL     1      58.368  13.879  22.269  1.00  0.00     0.196 HD
BRANCH  31  33
HETATM   33  O3  UNL     1      56.626  12.925  22.816  1.00  0.00    -0.284 OA
HETATM   34  C13 UNL     1      55.779  13.418  23.831  1.00  0.00     0.237 C 
ENDBRANCH  31  33
ENDBRANCH   6  31
TORSDOF 14
ENDMDL
