MODEL 1
REMARK VINA RESULT: -7.234096099      0.000      0.000
REMARK  12 active torsions:
REMARK  status: ('A' for Active; 'I' for Inactive)
REMARK    1  A    between atoms: C2_2  and  C4_4 
REMARK    2  A    between atoms: C4_4  and  C5_5 
REMARK    3  A    between atoms: C5_5  and  O1_6 
REMARK    4  A    between atoms: C5_5  and  C17_22 
REMARK    5  A    between atoms: O1_6  and  C6_7 
REMARK       I    between atoms: C6_7  and  N1_9 
REMARK    6  A    between atoms: N1_9  and  C7_11 
REMARK    7  A    between atoms: C7_11  and  C8_12 
REMARK    8  A    between atoms: C7_11  and  C11_15 
REMARK    9  A    between atoms: C11_15  and  C14_18 
REMARK   10  A    between atoms: C14_18  and  S1_19 
REMARK   11  A    between atoms: C17_22  and  O3_23 
REMARK   12  A    between atoms: C17_22  and  N2_25 
ROOT
HETATM    1  C6  UNL     1       7.637  -3.450  48.029  1.00  0.00     0.361 C 
HETATM    2  O2  UNL     1       7.537  -2.462  47.241  1.00  0.00    -0.238 OA
HETATM    3  N1  UNL     1       7.081  -3.523  49.295  1.00  0.00    -0.331 N 
ATOM      4  H1  UNL     1       7.241  -4.382  49.820  1.00  0.00     0.165 HD
ENDROOT
BRANCH   1   5
HETATM    5  O1  UNL     1       8.371  -4.514  47.530  1.00  0.00    -0.290 OA
BRANCH   5   6
HETATM    6  C5  UNL     1       9.463  -4.281  46.564  1.00  0.00     0.208 C 
BRANCH   6   7
HETATM    7  C4  UNL     1      10.645  -3.880  47.426  1.00  0.00     0.045 C 
BRANCH   7   8
HETATM    8  C2  UNL     1      11.128  -2.490  47.348  1.00  0.00    -0.020 C 
HETATM    9  C1  UNL     1      10.888  -1.703  48.631  1.00  0.00     0.009 C 
HETATM   10  C3  UNL     1      12.650  -2.427  47.137  1.00  0.00     0.009 C 
ENDBRANCH   7   8
ENDBRANCH   6   7
BRANCH   6  11
HETATM   11  C17 UNL     1       9.662  -5.537  45.828  1.00  0.00     0.144 C 
BRANCH  11  12
HETATM   12  O3  UNL     1       8.866  -6.487  46.236  1.00  0.00    -0.347 OA
ATOM     13  H3  UNL     1       8.547  -7.026  45.521  1.00  0.00     0.219 HD
ENDBRANCH  11  12
BRANCH  11  14
HETATM   14  N2  UNL     1      10.511  -5.905  44.802  1.00  0.00    -0.363 N 
HETATM   15  C18 UNL     1      10.029  -6.216  43.418  1.00  0.00     0.124 C 
HETATM   16  C19 UNL     1      10.871  -7.436  43.052  1.00  0.00     0.021 C 
HETATM   17  C20 UNL     1      12.034  -7.444  44.022  1.00  0.00     0.021 C 
HETATM   18  C21 UNL     1      11.936  -6.049  44.633  1.00  0.00     0.124 C 
ENDBRANCH  11  14
ENDBRANCH   6  11
ENDBRANCH   5   6
ENDBRANCH   1   5
BRANCH   3  19
HETATM   19  C7  UNL     1       6.281  -2.477  49.956  1.00  0.00     0.102 C 
BRANCH  19  20
HETATM   20  C8  UNL     1       4.831  -2.812  49.900  1.00  0.00     0.001 C 
HETATM   21  C9  UNL     1       3.975  -1.688  49.406  1.00  0.00     0.011 C 
HETATM   22  C10 UNL     1       4.528  -3.999  49.008  1.00  0.00     0.011 C 
ENDBRANCH  19  20
BRANCH  19  23
HETATM   23  C11 UNL     1       6.917  -2.320  51.279  1.00  0.00    -0.004 C 
HETATM   24  C12 UNL     1       5.942  -2.740  52.402  1.00  0.00     0.021 C 
HETATM   25  C13 UNL     1       7.951  -3.492  51.386  1.00  0.00     0.021 C 
BRANCH  23  26
HETATM   26  C14 UNL     1       7.605  -1.112  51.692  1.00  0.00     0.018 C 
BRANCH  26  27
HETATM   27  S1  UNL     1       7.225   0.405  50.871  1.00  0.00    -0.208 SA
HETATM   28  C15 UNL     1       5.592   0.928  51.442  1.00  0.00     0.082 C 
HETATM   29  C16 UNL     1       8.315   1.737  51.250  1.00  0.00     0.082 C 
ENDBRANCH  26  27
ENDBRANCH  23  26
ENDBRANCH  19  23
ENDBRANCH   3  19
TORSDOF 12
ENDMDL
MODEL 2
REMARK VINA RESULT: -7.228518055      1.138      1.833
REMARK  12 active torsions:
REMARK  status: ('A' for Active; 'I' for Inactive)
REMARK    1  A    between atoms: C2_2  and  C4_4 
REMARK    2  A    between atoms: C4_4  and  C5_5 
REMARK    3  A    between atoms: C5_5  and  O1_6 
REMARK    4  A    between atoms: C5_5  and  C17_22 
REMARK    5  A    between atoms: O1_6  and  C6_7 
REMARK       I    between atoms: C6_7  and  N1_9 
REMARK    6  A    between atoms: N1_9  and  C7_11 
REMARK    7  A    between atoms: C7_11  and  C8_12 
REMARK    8  A    between atoms: C7_11  and  C11_15 
REMARK    9  A    between atoms: C11_15  and  C14_18 
REMARK   10  A    between atoms: C14_18  and  S1_19 
REMARK   11  A    between atoms: C17_22  and  O3_23 
REMARK   12  A    between atoms: C17_22  and  N2_25 
ROOT
HETATM    1  C6  UNL     1       7.812  -3.379  47.956  1.00  0.00     0.361 C 
HETATM    2  O2  UNL     1       7.638  -2.498  47.061  1.00  0.00    -0.238 OA
HETATM    3  N1  UNL     1       7.239  -3.365  49.215  1.00  0.00    -0.331 N 
ATOM      4  H1  UNL     1       7.467  -4.143  49.835  1.00  0.00     0.165 HD
ENDROOT
BRANCH   1   5
HETATM    5  O1  UNL     1       8.654  -4.416  47.586  1.00  0.00    -0.290 OA
BRANCH   5   6
HETATM    6  C5  UNL     1       9.659  -4.222  46.523  1.00  0.00     0.208 C 
BRANCH   6   7
HETATM    7  C4  UNL     1      10.915  -3.808  47.267  1.00  0.00     0.045 C 
BRANCH   7   8
HETATM    8  C2  UNL     1      11.257  -2.376  47.320  1.00  0.00    -0.020 C 
HETATM    9  C1  UNL     1      11.074  -1.769  48.706  1.00  0.00     0.009 C 
HETATM   10  C3  UNL     1      12.739  -2.132  46.986  1.00  0.00     0.009 C 
ENDBRANCH   7   8
ENDBRANCH   6   7
BRANCH   6  11
HETATM   11  C17 UNL     1       9.784  -5.499  45.809  1.00  0.00     0.144 C 
BRANCH  11  12
HETATM   12  O3  UNL     1       8.973  -6.411  46.269  1.00  0.00    -0.347 OA
ATOM     13  H3  UNL     1       8.231  -6.561  45.695  1.00  0.00     0.219 HD
ENDBRANCH  11  12
BRANCH  11  14
HETATM   14  N2  UNL     1      10.578  -5.920  44.759  1.00  0.00    -0.363 N 
HETATM   15  C18 UNL     1      10.029  -6.255  43.406  1.00  0.00     0.124 C 
HETATM   16  C19 UNL     1      10.820  -7.508  43.039  1.00  0.00     0.021 C 
HETATM   17  C20 UNL     1      12.023  -7.524  43.960  1.00  0.00     0.021 C 
HETATM   18  C21 UNL     1      11.990  -6.110  44.534  1.00  0.00     0.124 C 
ENDBRANCH  11  14
ENDBRANCH   6  11
ENDBRANCH   5   6
ENDBRANCH   1   5
BRANCH   3  19
HETATM   19  C7  UNL     1       6.330  -2.334  49.746  1.00  0.00     0.102 C 
BRANCH  19  20
HETATM   20  C8  UNL     1       4.943  -2.864  49.856  1.00  0.00     0.001 C 
HETATM   21  C9  UNL     1       3.889  -1.869  49.484  1.00  0.00     0.011 C 
HETATM   22  C10 UNL     1       4.700  -4.084  48.990  1.00  0.00     0.011 C 
ENDBRANCH  19  20
BRANCH  19  23
HETATM   23  C11 UNL     1       7.002  -1.859  50.971  1.00  0.00    -0.004 C 
HETATM   24  C12 UNL     1       8.083  -2.867  51.422  1.00  0.00     0.021 C 
HETATM   25  C13 UNL     1       7.927  -0.682  50.509  1.00  0.00     0.021 C 
BRANCH  23  26
HETATM   26  C14 UNL     1       6.285  -1.396  52.143  1.00  0.00     0.018 C 
BRANCH  26  27
HETATM   27  S1  UNL     1       6.603  -2.174  53.696  1.00  0.00    -0.208 SA
HETATM   28  C15 UNL     1       7.423  -0.954  54.748  1.00  0.00     0.082 C 
HETATM   29  C16 UNL     1       5.160  -2.673  54.576  1.00  0.00     0.082 C 
ENDBRANCH  26  27
ENDBRANCH  23  26
ENDBRANCH  19  23
ENDBRANCH   3  19
TORSDOF 12
ENDMDL
MODEL 3
REMARK VINA RESULT: -7.163502095      1.528      2.200
REMARK  12 active torsions:
REMARK  status: ('A' for Active; 'I' for Inactive)
REMARK    1  A    between atoms: C2_2  and  C4_4 
REMARK    2  A    between atoms: C4_4  and  C5_5 
REMARK    3  A    between atoms: C5_5  and  O1_6 
REMARK    4  A    between atoms: C5_5  and  C17_22 
REMARK    5  A    between atoms: O1_6  and  C6_7 
REMARK       I    between atoms: C6_7  and  N1_9 
REMARK    6  A    between atoms: N1_9  and  C7_11 
REMARK    7  A    between atoms: C7_11  and  C8_12 
REMARK    8  A    between atoms: C7_11  and  C11_15 
REMARK    9  A    between atoms: C11_15  and  C14_18 
REMARK   10  A    between atoms: C14_18  and  S1_19 
REMARK   11  A    between atoms: C17_22  and  O3_23 
REMARK   12  A    between atoms: C17_22  and  N2_25 
ROOT
HETATM    1  C6  UNL     1       8.140  -2.654  48.704  1.00  0.00     0.361 C 
HETATM    2  O2  UNL     1       8.146  -1.460  48.277  1.00  0.00    -0.238 OA
HETATM    3  N1  UNL     1       7.287  -3.151  49.675  1.00  0.00    -0.331 N 
ATOM      4  H1  UNL     1       7.394  -4.135  49.922  1.00  0.00     0.165 HD
ENDROOT
BRANCH   1   5
HETATM    5  O1  UNL     1       9.084  -3.480  48.117  1.00  0.00    -0.290 OA
BRANCH   5   6
HETATM    6  C5  UNL     1       9.901  -2.999  46.987  1.00  0.00     0.208 C 
BRANCH   6   7
HETATM    7  C4  UNL     1      11.329  -3.100  47.488  1.00  0.00     0.045 C 
BRANCH   7   8
HETATM    8  C2  UNL     1      11.996  -1.871  47.953  1.00  0.00    -0.020 C 
HETATM    9  C1  UNL     1      11.687  -1.539  49.408  1.00  0.00     0.009 C 
HETATM   10  C3  UNL     1      13.528  -2.001  47.906  1.00  0.00     0.009 C 
ENDBRANCH   7   8
ENDBRANCH   6   7
BRANCH   6  11
HETATM   11  C17 UNL     1       9.610  -3.872  45.842  1.00  0.00     0.144 C 
BRANCH  11  12
HETATM   12  O3  UNL     1       8.921  -3.266  44.914  1.00  0.00    -0.347 OA
ATOM     13  H3  UNL     1       9.471  -2.922  44.220  1.00  0.00     0.219 HD
ENDBRANCH  11  12
BRANCH  11  14
HETATM   14  N2  UNL     1       9.919  -5.188  45.555  1.00  0.00    -0.363 N 
HETATM   15  C18 UNL     1      11.218  -5.604  44.936  1.00  0.00     0.124 C 
HETATM   16  C19 UNL     1      10.770  -6.660  43.928  1.00  0.00     0.021 C 
HETATM   17  C20 UNL     1       9.377  -7.075  44.353  1.00  0.00     0.021 C 
HETATM   18  C21 UNL     1       9.289  -6.470  45.752  1.00  0.00     0.124 C 
ENDBRANCH  11  14
ENDBRANCH   6  11
ENDBRANCH   5   6
ENDBRANCH   1   5
BRANCH   3  19
HETATM   19  C7  UNL     1       6.240  -2.395  50.384  1.00  0.00     0.102 C 
BRANCH  19  20
HETATM   20  C8  UNL     1       4.891  -2.929  50.051  1.00  0.00     0.001 C 
HETATM   21  C9  UNL     1       3.969  -1.906  49.467  1.00  0.00     0.011 C 
HETATM   22  C10 UNL     1       4.932  -4.077  49.063  1.00  0.00     0.011 C 
ENDBRANCH  19  20
BRANCH  19  23
HETATM   23  C11 UNL     1       6.677  -2.414  51.794  1.00  0.00    -0.004 C 
HETATM   24  C12 UNL     1       7.831  -3.423  51.991  1.00  0.00     0.021 C 
HETATM   25  C13 UNL     1       7.468  -1.078  52.003  1.00  0.00     0.021 C 
BRANCH  23  26
HETATM   26  C14 UNL     1       5.759  -2.539  52.909  1.00  0.00     0.018 C 
BRANCH  26  27
HETATM   27  S1  UNL     1       5.296  -1.084  53.796  1.00  0.00    -0.208 SA
HETATM   28  C15 UNL     1       3.881  -0.360  52.935  1.00  0.00     0.082 C 
HETATM   29  C16 UNL     1       4.755  -1.373  55.448  1.00  0.00     0.082 C 
ENDBRANCH  26  27
ENDBRANCH  23  26
ENDBRANCH  19  23
ENDBRANCH   3  19
TORSDOF 12
ENDMDL
MODEL 4
REMARK VINA RESULT: -7.157298107      1.168      1.846
REMARK  12 active torsions:
REMARK  status: ('A' for Active; 'I' for Inactive)
REMARK    1  A    between atoms: C2_2  and  C4_4 
REMARK    2  A    between atoms: C4_4  and  C5_5 
REMARK    3  A    between atoms: C5_5  and  O1_6 
REMARK    4  A    between atoms: C5_5  and  C17_22 
REMARK    5  A    between atoms: O1_6  and  C6_7 
REMARK       I    between atoms: C6_7  and  N1_9 
REMARK    6  A    between atoms: N1_9  and  C7_11 
REMARK    7  A    between atoms: C7_11  and  C8_12 
REMARK    8  A    between atoms: C7_11  and  C11_15 
REMARK    9  A    between atoms: C11_15  and  C14_18 
REMARK   10  A    between atoms: C14_18  and  S1_19 
REMARK   11  A    between atoms: C17_22  and  O3_23 
REMARK   12  A    between atoms: C17_22  and  N2_25 
ROOT
HETATM    1  C6  UNL     1       7.648  -3.525  47.825  1.00  0.00     0.361 C 
HETATM    2  O2  UNL     1       7.554  -2.512  47.068  1.00  0.00    -0.238 OA
HETATM    3  N1  UNL     1       7.140  -3.613  49.110  1.00  0.00    -0.331 N 
ATOM      4  H1  UNL     1       7.289  -4.492  49.605  1.00  0.00     0.165 HD
ENDROOT
BRANCH   1   5
HETATM    5  O1  UNL     1       8.324  -4.599  47.269  1.00  0.00    -0.290 OA
BRANCH   5   6
HETATM    6  C5  UNL     1       9.451  -4.375  46.342  1.00  0.00     0.208 C 
BRANCH   6   7
HETATM    7  C4  UNL     1      10.594  -3.945  47.242  1.00  0.00     0.045 C 
BRANCH   7   8
HETATM    8  C2  UNL     1      11.108  -2.570  47.111  1.00  0.00    -0.020 C 
HETATM    9  C1  UNL     1      10.801  -1.701  48.325  1.00  0.00     0.009 C 
HETATM   10  C3  UNL     1      12.642  -2.545  46.998  1.00  0.00     0.009 C 
ENDBRANCH   7   8
ENDBRANCH   6   7
BRANCH   6  11
HETATM   11  C17 UNL     1       9.690  -5.643  45.641  1.00  0.00     0.144 C 
BRANCH  11  12
HETATM   12  O3  UNL     1       8.885  -6.592  46.033  1.00  0.00    -0.347 OA
ATOM     13  H3  UNL     1       8.151  -6.261  46.538  1.00  0.00     0.219 HD
ENDBRANCH  11  12
BRANCH  11  14
HETATM   14  N2  UNL     1      10.586  -6.025  44.660  1.00  0.00    -0.363 N 
HETATM   15  C18 UNL     1      10.167  -6.362  43.262  1.00  0.00     0.124 C 
HETATM   16  C19 UNL     1      11.029  -7.584  42.954  1.00  0.00     0.021 C 
HETATM   17  C20 UNL     1      12.148  -7.571  43.975  1.00  0.00     0.021 C 
HETATM   18  C21 UNL     1      12.017  -6.166  44.557  1.00  0.00     0.124 C 
ENDBRANCH  11  14
ENDBRANCH   6  11
ENDBRANCH   5   6
ENDBRANCH   1   5
BRANCH   3  19
HETATM   19  C7  UNL     1       6.405  -2.558  49.829  1.00  0.00     0.102 C 
BRANCH  19  20
HETATM   20  C8  UNL     1       4.945  -2.854  49.846  1.00  0.00     0.001 C 
HETATM   21  C9  UNL     1       4.095  -1.698  49.424  1.00  0.00     0.011 C 
HETATM   22  C10 UNL     1       4.562  -4.013  48.947  1.00  0.00     0.011 C 
ENDBRANCH  19  20
BRANCH  19  23
HETATM   23  C11 UNL     1       7.114  -2.442  51.119  1.00  0.00    -0.004 C 
HETATM   24  C12 UNL     1       7.188  -0.963  51.565  1.00  0.00     0.021 C 
HETATM   25  C13 UNL     1       6.114  -2.984  52.195  1.00  0.00     0.021 C 
BRANCH  23  26
HETATM   26  C14 UNL     1       8.396  -3.067  51.380  1.00  0.00     0.018 C 
BRANCH  26  27
HETATM   27  S1  UNL     1       9.593  -2.185  52.333  1.00  0.00    -0.208 SA
HETATM   28  C15 UNL     1       9.496  -2.810  54.026  1.00  0.00     0.082 C 
HETATM   29  C16 UNL     1      11.262  -2.434  51.825  1.00  0.00     0.082 C 
ENDBRANCH  26  27
ENDBRANCH  23  26
ENDBRANCH  19  23
ENDBRANCH   3  19
TORSDOF 12
ENDMDL
MODEL 5
REMARK VINA RESULT: -7.154910999      1.114      1.408
REMARK  12 active torsions:
REMARK  status: ('A' for Active; 'I' for Inactive)
REMARK    1  A    between atoms: C2_2  and  C4_4 
REMARK    2  A    between atoms: C4_4  and  C5_5 
REMARK    3  A    between atoms: C5_5  and  O1_6 
REMARK    4  A    between atoms: C5_5  and  C17_22 
REMARK    5  A    between atoms: O1_6  and  C6_7 
REMARK       I    between atoms: C6_7  and  N1_9 
REMARK    6  A    between atoms: N1_9  and  C7_11 
REMARK    7  A    between atoms: C7_11  and  C8_12 
REMARK    8  A    between atoms: C7_11  and  C11_15 
REMARK    9  A    between atoms: C11_15  and  C14_18 
REMARK   10  A    between atoms: C14_18  and  S1_19 
REMARK   11  A    between atoms: C17_22  and  O3_23 
REMARK   12  A    between atoms: C17_22  and  N2_25 
ROOT
HETATM    1  C6  UNL     1       8.101  -2.594  48.659  1.00  0.00     0.361 C 
HETATM    2  O2  UNL     1       8.176  -1.390  48.266  1.00  0.00    -0.238 OA
HETATM    3  N1  UNL     1       7.180  -3.082  49.569  1.00  0.00    -0.331 N 
ATOM      4  H1  UNL     1       7.235  -4.075  49.794  1.00  0.00     0.165 HD
ENDROOT
BRANCH   1   5
HETATM    5  O1  UNL     1       9.043  -3.442  48.100  1.00  0.00    -0.290 OA
BRANCH   5   6
HETATM    6  C5  UNL     1       9.892  -2.985  46.982  1.00  0.00     0.208 C 
BRANCH   6   7
HETATM    7  C4  UNL     1      11.308  -3.111  47.512  1.00  0.00     0.045 C 
BRANCH   7   8
HETATM    8  C2  UNL     1      11.982  -1.897  48.005  1.00  0.00    -0.020 C 
HETATM    9  C1  UNL     1      11.753  -1.649  49.491  1.00  0.00     0.009 C 
HETATM   10  C3  UNL     1      13.510  -1.997  47.863  1.00  0.00     0.009 C 
ENDBRANCH   7   8
ENDBRANCH   6   7
BRANCH   6  11
HETATM   11  C17 UNL     1       9.605  -3.859  45.838  1.00  0.00     0.144 C 
BRANCH  11  12
HETATM   12  O3  UNL     1       8.926  -3.253  44.903  1.00  0.00    -0.347 OA
ATOM     13  H3  UNL     1       8.887  -3.756  44.098  1.00  0.00     0.219 HD
ENDBRANCH  11  12
BRANCH  11  14
HETATM   14  N2  UNL     1       9.911  -5.177  45.557  1.00  0.00    -0.363 N 
HETATM   15  C18 UNL     1      11.198  -5.597  44.916  1.00  0.00     0.124 C 
HETATM   16  C19 UNL     1      10.733  -6.662  43.926  1.00  0.00     0.021 C 
HETATM   17  C20 UNL     1       9.348  -7.075  44.382  1.00  0.00     0.021 C 
HETATM   18  C21 UNL     1       9.286  -6.459  45.776  1.00  0.00     0.124 C 
ENDBRANCH  11  14
ENDBRANCH   6  11
ENDBRANCH   5   6
ENDBRANCH   1   5
BRANCH   3  19
HETATM   19  C7  UNL     1       6.126  -2.304  50.243  1.00  0.00     0.102 C 
BRANCH  19  20
HETATM   20  C8  UNL     1       4.795  -2.942  50.047  1.00  0.00     0.001 C 
HETATM   21  C9  UNL     1       3.736  -1.991  49.588  1.00  0.00     0.011 C 
HETATM   22  C10 UNL     1       4.819  -4.071  49.036  1.00  0.00     0.011 C 
ENDBRANCH  19  20
BRANCH  19  23
HETATM   23  C11 UNL     1       6.630  -2.135  51.621  1.00  0.00    -0.004 C 
HETATM   24  C12 UNL     1       5.510  -2.422  52.647  1.00  0.00     0.021 C 
HETATM   25  C13 UNL     1       7.544  -3.379  51.885  1.00  0.00     0.021 C 
BRANCH  23  26
HETATM   26  C14 UNL     1       7.370  -0.968  52.059  1.00  0.00     0.018 C 
BRANCH  26  27
HETATM   27  S1  UNL     1       7.182   0.543  51.163  1.00  0.00    -0.208 SA
HETATM   28  C15 UNL     1       5.539   1.192  51.548  1.00  0.00     0.082 C 
HETATM   29  C16 UNL     1       8.317   1.811  51.618  1.00  0.00     0.082 C 
ENDBRANCH  26  27
ENDBRANCH  23  26
ENDBRANCH  19  23
ENDBRANCH   3  19
TORSDOF 12
ENDMDL
