MODEL 1
REMARK VINA RESULT: -7.852757089      0.000      0.000
REMARK  8 active torsions:
REMARK  status: ('A' for Active; 'I' for Inactive)
REMARK    1  A    between atoms: C3_3  and  N1_4 
REMARK    2  A    between atoms: N1_4  and  C4_5 
REMARK    3  A    between atoms: N1_4  and  C5_7 
REMARK    4  A    between atoms: N1_4  and  C7_9 
REMARK    5  A    between atoms: C7_9  and  C8_10 
REMARK    6  A    between atoms: C16_20  and  N3_21 
REMARK    7  A    between atoms: N3_21  and  C17_22 
REMARK    8  A    between atoms: N3_21  and  C19_24 
ROOT
HETATM    1  C1  UNL     1       7.242  -4.224  47.507  1.00  0.00     0.098 C 
HETATM    2  C2  UNL     1       8.395  -4.258  47.096  1.00  0.00    -0.160 C 
HETATM    3  C3  UNL     1       9.761  -4.318  46.584  1.00  0.00     0.326 C 
ENDROOT
BRANCH   3   4
HETATM    4  N1  UNL     1      10.521  -3.266  47.288  1.00  0.00    -0.004 N 
BRANCH   4   5
HETATM    5  C4  UNL     1      10.013  -2.048  46.787  1.00  0.00     0.460 C 
HETATM    6  O1  UNL     1       9.698  -1.858  45.612  1.00  0.00    -0.276 OA
ENDBRANCH   4   5
BRANCH   4   7
HETATM    7  C5  UNL     1      11.883  -3.407  46.819  1.00  0.00     0.243 C 
HETATM    8  C6  UNL     1      12.680  -2.136  46.865  1.00  0.00     0.035 C 
ENDBRANCH   4   7
BRANCH   4   9
HETATM    9  C7  UNL     1      10.335  -3.476  48.676  1.00  0.00     0.258 C 
BRANCH   9  10
HETATM   10  C8  UNL     1      10.306  -2.245  49.548  1.00  0.00     0.063 C 
HETATM   11  C9  UNL     1      11.615  -2.108  50.238  1.00  0.00     0.012 C 
HETATM   12  C10 UNL     1      11.403  -1.183  51.439  1.00  0.00     0.001 C 
HETATM   13  C11 UNL     1      11.332  -2.118  52.627  1.00  0.00     0.005 C 
HETATM   14  C12 UNL     1      10.055  -2.854  52.723  1.00  0.00     0.041 C 
HETATM   15  C13 UNL     1       9.029  -2.487  51.751  1.00  0.00    -0.022 A 
HETATM   16  C14 UNL     1       9.141  -2.234  50.435  1.00  0.00     0.022 A 
HETATM   17  C24 UNL     1       7.706  -2.344  52.122  1.00  0.00     0.004 A 
HETATM   18  N2  UNL     1       7.907  -1.933  49.965  1.00  0.00    -0.355 N 
HETATM   19  C15 UNL     1       6.987  -1.987  50.971  1.00  0.00     0.088 A 
ATOM     20  H2  UNL     1       7.695  -1.700  48.995  1.00  0.00     0.166 HD
HETATM   21  C16 UNL     1       5.630  -1.767  51.018  1.00  0.00     0.131 A 
HETATM   22  N4  UNL     1       5.021  -1.910  52.237  1.00  0.00    -0.345 N 
HETATM   23  C21 UNL     1       5.662  -2.247  53.357  1.00  0.00     0.007 A 
ATOM     24  H4  UNL     1       4.016  -1.750  52.291  1.00  0.00     0.167 HD
HETATM   25  C22 UNL     1       4.934  -2.388  54.667  1.00  0.00     0.068 C 
HETATM   26  C23 UNL     1       7.021  -2.468  53.311  1.00  0.00     0.039 A 
BRANCH  21  27
HETATM   27  N3  UNL     1       4.870  -1.428  49.889  1.00  0.00    -0.366 N 
BRANCH  27  28
HETATM   28  C17 UNL     1       5.160  -0.451  48.877  1.00  0.00     0.120 C 
HETATM   29  C18 UNL     1       5.674   0.864  49.370  1.00  0.00     0.026 C 
ENDBRANCH  27  28
BRANCH  27  30
HETATM   30  C19 UNL     1       3.625  -2.189  49.672  1.00  0.00     0.120 C 
HETATM   31  C20 UNL     1       3.893  -3.527  49.042  1.00  0.00     0.026 C 
ENDBRANCH  27  30
ENDBRANCH  21  27
ENDBRANCH   9  10
ENDBRANCH   4   9
ENDBRANCH   3   4
TORSDOF 8
ENDMDL
MODEL 2
REMARK VINA RESULT: -7.803516859      1.971      4.412
REMARK  8 active torsions:
REMARK  status: ('A' for Active; 'I' for Inactive)
REMARK    1  A    between atoms: C3_3  and  N1_4 
REMARK    2  A    between atoms: N1_4  and  C4_5 
REMARK    3  A    between atoms: N1_4  and  C5_7 
REMARK    4  A    between atoms: N1_4  and  C7_9 
REMARK    5  A    between atoms: C7_9  and  C8_10 
REMARK    6  A    between atoms: C16_20  and  N3_21 
REMARK    7  A    between atoms: N3_21  and  C17_22 
REMARK    8  A    between atoms: N3_21  and  C19_24 
ROOT
HETATM    1  C1  UNL     1       8.592  -6.290  46.432  1.00  0.00     0.098 C 
HETATM    2  C2  UNL     1       8.922  -5.132  46.210  1.00  0.00    -0.160 C 
HETATM    3  C3  UNL     1       9.316  -3.757  45.915  1.00  0.00     0.326 C 
ENDROOT
BRANCH   3   4
HETATM    4  N1  UNL     1       9.214  -3.009  47.183  1.00  0.00    -0.004 N 
BRANCH   4   5
HETATM    5  C4  UNL     1      10.083  -1.906  47.031  1.00  0.00     0.460 C 
HETATM    6  O1  UNL     1      10.399  -1.416  45.946  1.00  0.00    -0.276 OA
ENDBRANCH   4   5
BRANCH   4   7
HETATM    7  C5  UNL     1       9.781  -3.886  48.185  1.00  0.00     0.243 C 
HETATM    8  C6  UNL     1      10.817  -3.235  49.053  1.00  0.00     0.035 C 
ENDBRANCH   4   7
BRANCH   4   9
HETATM    9  C7  UNL     1       7.848  -2.684  47.366  1.00  0.00     0.258 C 
BRANCH   9  10
HETATM   10  C8  UNL     1       7.191  -3.208  48.619  1.00  0.00     0.063 C 
HETATM   11  C9  UNL     1       6.025  -4.050  48.241  1.00  0.00     0.012 C 
HETATM   12  C10 UNL     1       5.122  -4.157  49.472  1.00  0.00     0.001 C 
HETATM   13  C11 UNL     1       3.994  -3.185  49.196  1.00  0.00     0.005 C 
HETATM   14  C12 UNL     1       4.382  -1.769  49.364  1.00  0.00     0.041 C 
HETATM   15  C13 UNL     1       5.727  -1.530  49.878  1.00  0.00    -0.022 A 
HETATM   16  C14 UNL     1       6.889  -2.132  49.565  1.00  0.00     0.022 A 
HETATM   17  C24 UNL     1       5.969  -0.566  50.838  1.00  0.00     0.004 A 
HETATM   18  N2  UNL     1       7.864  -1.563  50.312  1.00  0.00    -0.355 N 
HETATM   19  C15 UNL     1       7.345  -0.589  51.115  1.00  0.00     0.088 A 
ATOM     20  H2  UNL     1       8.850  -1.825  50.279  1.00  0.00     0.166 HD
HETATM   21  C16 UNL     1       7.899   0.262  52.042  1.00  0.00     0.131 A 
HETATM   22  N4  UNL     1       7.047   1.125  52.678  1.00  0.00    -0.345 N 
HETATM   23  C21 UNL     1       5.735   1.184  52.448  1.00  0.00     0.007 A 
ATOM     24  H4  UNL     1       7.441   1.763  53.369  1.00  0.00     0.167 HD
HETATM   25  C22 UNL     1       4.853   2.158  53.182  1.00  0.00     0.068 C 
HETATM   26  C23 UNL     1       5.178   0.333  51.519  1.00  0.00     0.039 A 
BRANCH  21  27
HETATM   27  N3  UNL     1       9.271   0.285  52.336  1.00  0.00    -0.366 N 
BRANCH  27  28
HETATM   28  C17 UNL     1      10.336   0.887  51.583  1.00  0.00     0.120 C 
HETATM   29  C18 UNL     1      11.203  -0.057  50.813  1.00  0.00     0.026 C 
ENDBRANCH  27  28
BRANCH  27  30
HETATM   30  C19 UNL     1       9.693  -0.353  53.597  1.00  0.00     0.120 C 
HETATM   31  C20 UNL     1       9.533  -1.845  53.548  1.00  0.00     0.026 C 
ENDBRANCH  27  30
ENDBRANCH  21  27
ENDBRANCH   9  10
ENDBRANCH   4   9
ENDBRANCH   3   4
TORSDOF 8
ENDMDL
MODEL 3
REMARK VINA RESULT: -7.770791007      2.165      7.100
REMARK  8 active torsions:
REMARK  status: ('A' for Active; 'I' for Inactive)
REMARK    1  A    between atoms: C3_3  and  N1_4 
REMARK    2  A    between atoms: N1_4  and  C4_5 
REMARK    3  A    between atoms: N1_4  and  C5_7 
REMARK    4  A    between atoms: N1_4  and  C7_9 
REMARK    5  A    between atoms: C7_9  and  C8_10 
REMARK    6  A    between atoms: C16_20  and  N3_21 
REMARK    7  A    between atoms: N3_21  and  C17_22 
REMARK    8  A    between atoms: N3_21  and  C19_24 
ROOT
HETATM    1  C1  UNL     1       9.646  -2.862  52.949  1.00  0.00     0.098 C 
HETATM    2  C2  UNL     1       8.682  -2.511  53.617  1.00  0.00    -0.160 C 
HETATM    3  C3  UNL     1       7.548  -2.097  54.438  1.00  0.00     0.326 C 
ENDROOT
BRANCH   3   4
HETATM    4  N1  UNL     1       6.532  -1.557  53.512  1.00  0.00    -0.004 N 
BRANCH   4   5
HETATM    5  C4  UNL     1       7.018  -0.286  53.134  1.00  0.00     0.460 C 
HETATM    6  O1  UNL     1       6.489   0.781  53.448  1.00  0.00    -0.276 OA
ENDBRANCH   4   5
BRANCH   4   7
HETATM    7  C5  UNL     1       5.350  -1.359  54.323  1.00  0.00     0.243 C 
HETATM    8  C6  UNL     1       4.924  -2.575  55.092  1.00  0.00     0.035 C 
ENDBRANCH   4   7
BRANCH   4   9
HETATM    9  C7  UNL     1       6.392  -2.491  52.458  1.00  0.00     0.258 C 
BRANCH   9  10
HETATM   10  C8  UNL     1       6.029  -1.933  51.104  1.00  0.00     0.063 C 
HETATM   11  C9  UNL     1       4.552  -1.978  50.940  1.00  0.00     0.012 C 
HETATM   12  C10 UNL     1       4.256  -1.877  49.442  1.00  0.00     0.001 C 
HETATM   13  C11 UNL     1       3.939  -3.297  49.025  1.00  0.00     0.005 C 
HETATM   14  C12 UNL     1       5.132  -4.164  48.928  1.00  0.00     0.041 C 
HETATM   15  C13 UNL     1       6.420  -3.505  49.124  1.00  0.00    -0.022 A 
HETATM   16  C14 UNL     1       6.785  -2.579  50.029  1.00  0.00     0.022 A 
HETATM   17  C24 UNL     1       7.504  -3.792  48.318  1.00  0.00     0.004 A 
HETATM   18  N2  UNL     1       8.086  -2.275  49.808  1.00  0.00    -0.355 N 
HETATM   19  C15 UNL     1       8.574  -2.999  48.760  1.00  0.00     0.088 A 
ATOM     20  H2  UNL     1       8.625  -1.599  50.350  1.00  0.00     0.166 HD
HETATM   21  C16 UNL     1       9.804  -3.055  48.147  1.00  0.00     0.131 A 
HETATM   22  N4  UNL     1       9.930  -3.917  47.090  1.00  0.00    -0.345 N 
HETATM   23  C21 UNL     1       8.943  -4.690  46.634  1.00  0.00     0.007 A 
ATOM     24  H4  UNL     1      10.835  -3.972  46.623  1.00  0.00     0.167 HD
HETATM   25  C22 UNL     1       9.147  -5.617  45.466  1.00  0.00     0.068 C 
HETATM   26  C23 UNL     1       7.711  -4.635  47.247  1.00  0.00     0.039 A 
BRANCH  21  27
HETATM   27  N3  UNL     1      10.905  -2.295  48.568  1.00  0.00    -0.366 N 
BRANCH  27  28
HETATM   28  C17 UNL     1      11.347  -2.029  49.908  1.00  0.00     0.120 C 
HETATM   29  C18 UNL     1      11.236  -0.608  50.361  1.00  0.00     0.026 C 
ENDBRANCH  27  28
BRANCH  27  30
HETATM   30  C19 UNL     1      11.757  -1.716  47.513  1.00  0.00     0.120 C 
HETATM   31  C20 UNL     1      13.194  -2.124  47.672  1.00  0.00     0.026 C 
ENDBRANCH  27  30
ENDBRANCH  21  27
ENDBRANCH   9  10
ENDBRANCH   4   9
ENDBRANCH   3   4
TORSDOF 8
ENDMDL
MODEL 4
REMARK VINA RESULT: -7.743426790      3.011      6.413
REMARK  8 active torsions:
REMARK  status: ('A' for Active; 'I' for Inactive)
REMARK    1  A    between atoms: C3_3  and  N1_4 
REMARK    2  A    between atoms: N1_4  and  C4_5 
REMARK    3  A    between atoms: N1_4  and  C5_7 
REMARK    4  A    between atoms: N1_4  and  C7_9 
REMARK    5  A    between atoms: C7_9  and  C8_10 
REMARK    6  A    between atoms: C16_20  and  N3_21 
REMARK    7  A    between atoms: N3_21  and  C17_22 
REMARK    8  A    between atoms: N3_21  and  C19_24 
ROOT
HETATM    1  C1  UNL     1       4.987  -4.028  48.706  1.00  0.00     0.098 C 
HETATM    2  C2  UNL     1       5.528  -3.853  49.790  1.00  0.00    -0.160 C 
HETATM    3  C3  UNL     1       6.162  -3.670  51.093  1.00  0.00     0.326 C 
ENDROOT
BRANCH   3   4
HETATM    4  N1  UNL     1       7.111  -2.548  50.946  1.00  0.00    -0.004 N 
BRANCH   4   5
HETATM    5  C4  UNL     1       7.550  -2.264  52.258  1.00  0.00     0.460 C 
HETATM    6  O1  UNL     1       8.699  -2.450  52.660  1.00  0.00    -0.276 OA
ENDBRANCH   4   5
BRANCH   4   7
HETATM    7  C5  UNL     1       6.307  -1.432  50.495  1.00  0.00     0.243 C 
HETATM    8  C6  UNL     1       6.278  -0.274  51.449  1.00  0.00     0.035 C 
ENDBRANCH   4   7
BRANCH   4   9
HETATM    9  C7  UNL     1       8.119  -2.970  50.046  1.00  0.00     0.258 C 
BRANCH   9  10
HETATM   10  C8  UNL     1       8.651  -1.931  49.092  1.00  0.00     0.063 C 
HETATM   11  C9  UNL     1       8.651  -2.489  47.714  1.00  0.00     0.012 C 
HETATM   12  C10 UNL     1       9.613  -1.642  46.878  1.00  0.00     0.001 C 
HETATM   13  C11 UNL     1      10.868  -2.482  46.782  1.00  0.00     0.005 C 
HETATM   14  C12 UNL     1      11.662  -2.501  48.029  1.00  0.00     0.041 C 
HETATM   15  C13 UNL     1      11.192  -1.628  49.100  1.00  0.00    -0.022 A 
HETATM   16  C14 UNL     1       9.940  -1.395  49.535  1.00  0.00     0.022 A 
HETATM   17  C24 UNL     1      12.072  -0.873  49.851  1.00  0.00     0.004 A 
HETATM   18  N2  UNL     1      10.015  -0.504  50.552  1.00  0.00    -0.355 N 
HETATM   19  C15 UNL     1      11.312  -0.151  50.784  1.00  0.00     0.088 A 
ATOM     20  H2  UNL     1       9.213  -0.147  51.072  1.00  0.00     0.166 HD
HETATM   21  C16 UNL     1      11.910   0.704  51.681  1.00  0.00     0.131 A 
HETATM   22  N4  UNL     1      13.273   0.815  51.616  1.00  0.00    -0.345 N 
HETATM   23  C21 UNL     1      14.037   0.150  50.748  1.00  0.00     0.007 A 
ATOM     24  H4  UNL     1      13.733   1.445  52.273  1.00  0.00     0.167 HD
HETATM   25  C22 UNL     1      15.533   0.317  50.729  1.00  0.00     0.068 C 
HETATM   26  C23 UNL     1      13.440  -0.707  49.849  1.00  0.00     0.039 A 
BRANCH  21  27
HETATM   27  N3  UNL     1      11.191   1.429  52.642  1.00  0.00    -0.366 N 
BRANCH  27  28
HETATM   28  C17 UNL     1      10.548   2.706  52.500  1.00  0.00     0.120 C 
HETATM   29  C18 UNL     1       9.084   2.668  52.197  1.00  0.00     0.026 C 
ENDBRANCH  27  28
BRANCH  27  30
HETATM   30  C19 UNL     1      11.027   0.801  53.966  1.00  0.00     0.120 C 
HETATM   31  C20 UNL     1      11.613   1.648  55.060  1.00  0.00     0.026 C 
ENDBRANCH  27  30
ENDBRANCH  21  27
ENDBRANCH   9  10
ENDBRANCH   4   9
ENDBRANCH   3   4
TORSDOF 8
ENDMDL
MODEL 5
REMARK VINA RESULT: -7.733254667      1.358      2.150
REMARK  8 active torsions:
REMARK  status: ('A' for Active; 'I' for Inactive)
REMARK    1  A    between atoms: C3_3  and  N1_4 
REMARK    2  A    between atoms: N1_4  and  C4_5 
REMARK    3  A    between atoms: N1_4  and  C5_7 
REMARK    4  A    between atoms: N1_4  and  C7_9 
REMARK    5  A    between atoms: C7_9  and  C8_10 
REMARK    6  A    between atoms: C16_20  and  N3_21 
REMARK    7  A    between atoms: N3_21  and  C17_22 
REMARK    8  A    between atoms: N3_21  and  C19_24 
ROOT
HETATM    1  C1  UNL     1       6.205  -4.325  47.731  1.00  0.00     0.098 C 
HETATM    2  C2  UNL     1       7.248  -4.721  47.227  1.00  0.00    -0.160 C 
HETATM    3  C3  UNL     1       8.478  -5.218  46.616  1.00  0.00     0.326 C 
ENDROOT
BRANCH   3   4
HETATM    4  N1  UNL     1       9.467  -4.126  46.715  1.00  0.00    -0.004 N 
BRANCH   4   5
HETATM    5  C4  UNL     1       8.819  -2.993  46.177  1.00  0.00     0.460 C 
HETATM    6  O1  UNL     1       9.332  -2.217  45.369  1.00  0.00    -0.276 OA
ENDBRANCH   4   5
BRANCH   4   7
HETATM    7  C5  UNL     1      10.532  -4.501  45.809  1.00  0.00     0.243 C 
HETATM    8  C6  UNL     1      10.158  -5.580  44.836  1.00  0.00     0.035 C 
ENDBRANCH   4   7
BRANCH   4   9
HETATM    9  C7  UNL     1       9.840  -4.023  48.076  1.00  0.00     0.258 C 
BRANCH   9  10
HETATM   10  C8  UNL     1      10.145  -2.638  48.590  1.00  0.00     0.063 C 
HETATM   11  C9  UNL     1      11.617  -2.431  48.585  1.00  0.00     0.012 C 
HETATM   12  C10 UNL     1      11.917  -1.266  49.532  1.00  0.00     0.001 C 
HETATM   13  C11 UNL     1      12.422  -1.928  50.796  1.00  0.00     0.005 C 
HETATM   14  C12 UNL     1      11.354  -2.558  51.599  1.00  0.00     0.041 C 
HETATM   15  C13 UNL     1       9.989  -2.346  51.127  1.00  0.00    -0.022 A 
HETATM   16  C14 UNL     1       9.494  -2.380  49.877  1.00  0.00     0.022 A 
HETATM   17  C24 UNL     1       8.961  -2.058  52.005  1.00  0.00     0.004 A 
HETATM   18  N2  UNL     1       8.168  -2.117  49.949  1.00  0.00    -0.355 N 
HETATM   19  C15 UNL     1       7.792  -1.910  51.244  1.00  0.00     0.088 A 
ATOM     20  H2  UNL     1       7.538  -2.079  49.147  1.00  0.00     0.166 HD
HETATM   21  C16 UNL     1       6.588  -1.612  51.838  1.00  0.00     0.131 A 
HETATM   22  N4  UNL     1       6.589  -1.465  53.200  1.00  0.00    -0.345 N 
HETATM   23  C21 UNL     1       7.674  -1.595  53.965  1.00  0.00     0.007 A 
ATOM     24  H4  UNL     1       5.705  -1.243  53.658  1.00  0.00     0.167 HD
HETATM   25  C22 UNL     1       7.608  -1.421  55.458  1.00  0.00     0.068 C 
HETATM   26  C23 UNL     1       8.881  -1.895  53.371  1.00  0.00     0.039 A 
BRANCH  21  27
HETATM   27  N3  UNL     1       5.392  -1.475  51.119  1.00  0.00    -0.366 N 
BRANCH  27  28
HETATM   28  C17 UNL     1       4.642  -2.489  50.431  1.00  0.00     0.120 C 
HETATM   29  C18 UNL     1       3.297  -2.073  49.925  1.00  0.00     0.026 C 
ENDBRANCH  27  28
BRANCH  27  30
HETATM   30  C19 UNL     1       4.786  -0.131  51.083  1.00  0.00     0.120 C 
HETATM   31  C20 UNL     1       5.605   0.827  50.265  1.00  0.00     0.026 C 
ENDBRANCH  27  30
ENDBRANCH  21  27
ENDBRANCH   9  10
ENDBRANCH   4   9
ENDBRANCH   3   4
TORSDOF 8
ENDMDL
