MODEL 1
REMARK VINA RESULT: -7.587361800      0.000      0.000
REMARK  5 active torsions:
REMARK  status: ('A' for Active; 'I' for Inactive)
REMARK    1  A    between atoms: C5_5  and  C6_6 
REMARK    2  A    between atoms: C6_6  and  C7_7 
REMARK    3  A    between atoms: C7_7  and  C8_8 
REMARK    4  A    between atoms: C8_8  and  C9_9 
REMARK    5  A    between atoms: N2_16  and  O1_18 
ROOT
HETATM    1  C6  UNL     1      18.519   3.204  60.508  1.00  0.00     0.042 C 
HETATM    2  N2  UNL     1      17.491   2.538  60.107  1.00  0.00    -0.273 N 
ATOM      3  H2  UNL     1      17.434   2.257  59.128  1.00  0.00     0.194 HD
ENDROOT
BRANCH   1   4
HETATM    4  C5  UNL     1      19.556   3.531  59.553  1.00  0.00    -0.012 A 
HETATM    5  C4  UNL     1      19.660   4.841  59.063  1.00  0.00     0.014 A 
HETATM    6  C3  UNL     1      20.596   5.229  58.140  1.00  0.00     0.007 A 
HETATM    7  C2  UNL     1      21.502   4.321  57.639  1.00  0.00    -0.062 A 
HETATM    8  C1  UNL     1      22.535   4.724  56.629  1.00  0.00     0.048 C 
HETATM    9  C15 UNL     1      21.427   3.026  58.099  1.00  0.00     0.007 A 
HETATM   10  C14 UNL     1      20.470   2.638  59.039  1.00  0.00     0.014 A 
ENDBRANCH   1   4
BRANCH   1  11
HETATM   11  C7  UNL     1      18.562   3.640  61.908  1.00  0.00     0.064 C 
BRANCH  11  12
HETATM   12  C8  UNL     1      19.802   3.289  62.657  1.00  0.00     0.046 C 
BRANCH  12  13
HETATM   13  C9  UNL     1      19.737   1.853  63.096  1.00  0.00    -0.042 A 
HETATM   14  C10 UNL     1      18.715   1.380  63.896  1.00  0.00     0.010 A 
HETATM   15  C11 UNL     1      18.775   0.034  64.228  1.00  0.00     0.018 A 
HETATM   16  C12 UNL     1      19.797  -0.778  63.782  1.00  0.00     0.087 A 
HETATM   17  N1  UNL     1      20.775  -0.296  63.010  1.00  0.00    -0.375 N 
HETATM   18  C13 UNL     1      20.743   1.016  62.669  1.00  0.00     0.094 A 
ATOM     19  H1  UNL     1      21.529  -0.901  62.683  1.00  0.00     0.164 HD
ENDBRANCH  12  13
ENDBRANCH  11  12
ENDBRANCH   1  11
BRANCH   2  20
HETATM   20  O1  UNL     1      16.471   2.195  60.960  1.00  0.00    -0.290 OA
ATOM     21  H1  UNL     1      15.944   1.416  60.826  1.00  0.00     0.244 HD
ENDBRANCH   2  20
TORSDOF 5
ENDMDL
MODEL 2
REMARK VINA RESULT: -7.575873633      1.739      6.062
REMARK  5 active torsions:
REMARK  status: ('A' for Active; 'I' for Inactive)
REMARK    1  A    between atoms: C5_5  and  C6_6 
REMARK    2  A    between atoms: C6_6  and  C7_7 
REMARK    3  A    between atoms: C7_7  and  C8_8 
REMARK    4  A    between atoms: C8_8  and  C9_9 
REMARK    5  A    between atoms: N2_16  and  O1_18 
ROOT
HETATM    1  C6  UNL     1      18.533   2.816  62.019  1.00  0.00     0.042 C 
HETATM    2  N2  UNL     1      17.481   2.218  61.577  1.00  0.00    -0.273 N 
ATOM      3  H2  UNL     1      17.262   1.282  61.921  1.00  0.00     0.194 HD
ENDROOT
BRANCH   1   4
HETATM    4  C5  UNL     1      19.369   2.138  62.987  1.00  0.00    -0.012 A 
HETATM    5  C4  UNL     1      19.973   0.919  62.649  1.00  0.00     0.014 A 
HETATM    6  C3  UNL     1      20.758   0.200  63.513  1.00  0.00     0.007 A 
HETATM    7  C2  UNL     1      20.994   0.660  64.790  1.00  0.00    -0.062 A 
HETATM    8  C1  UNL     1      21.850  -0.109  65.752  1.00  0.00     0.048 C 
HETATM    9  C15 UNL     1      20.415   1.855  65.154  1.00  0.00     0.007 A 
HETATM   10  C14 UNL     1      19.616   2.580  64.268  1.00  0.00     0.014 A 
ENDBRANCH   1   4
BRANCH   1  11
HETATM   11  C7  UNL     1      18.858   4.140  61.478  1.00  0.00     0.064 C 
BRANCH  11  12
HETATM   12  C8  UNL     1      20.311   4.444  61.341  1.00  0.00     0.046 C 
BRANCH  12  13
HETATM   13  C9  UNL     1      20.635   4.720  59.899  1.00  0.00    -0.042 A 
HETATM   14  C10 UNL     1      21.933   4.718  59.429  1.00  0.00     0.010 A 
HETATM   15  C11 UNL     1      22.092   4.988  58.076  1.00  0.00     0.018 A 
HETATM   16  C12 UNL     1      21.012   5.242  57.257  1.00  0.00     0.087 A 
HETATM   17  N1  UNL     1      19.765   5.238  57.736  1.00  0.00    -0.375 N 
HETATM   18  C13 UNL     1      19.579   4.978  59.054  1.00  0.00     0.094 A 
ATOM     19  H1  UNL     1      18.970   5.427  57.125  1.00  0.00     0.164 HD
ENDBRANCH  12  13
ENDBRANCH  11  12
ENDBRANCH   1  11
BRANCH   2  20
HETATM   20  O1  UNL     1      16.645   2.803  60.657  1.00  0.00    -0.290 OA
ATOM     21  H1  UNL     1      15.732   2.979  60.849  1.00  0.00     0.244 HD
ENDBRANCH   2  20
TORSDOF 5
ENDMDL
MODEL 3
REMARK VINA RESULT: -7.561632689      1.945      5.986
REMARK  5 active torsions:
REMARK  status: ('A' for Active; 'I' for Inactive)
REMARK    1  A    between atoms: C5_5  and  C6_6 
REMARK    2  A    between atoms: C6_6  and  C7_7 
REMARK    3  A    between atoms: C7_7  and  C8_8 
REMARK    4  A    between atoms: C8_8  and  C9_9 
REMARK    5  A    between atoms: N2_16  and  O1_18 
ROOT
HETATM    1  C6  UNL     1      18.518   2.764  62.030  1.00  0.00     0.042 C 
HETATM    2  N2  UNL     1      17.484   2.150  61.568  1.00  0.00    -0.273 N 
ATOM      3  H2  UNL     1      17.277   1.208  61.903  1.00  0.00     0.194 HD
ENDROOT
BRANCH   1   4
HETATM    4  C5  UNL     1      19.352   2.096  63.006  1.00  0.00    -0.012 A 
HETATM    5  C4  UNL     1      19.965   0.879  62.677  1.00  0.00     0.014 A 
HETATM    6  C3  UNL     1      20.749   0.169  63.549  1.00  0.00     0.007 A 
HETATM    7  C2  UNL     1      20.974   0.636  64.825  1.00  0.00    -0.062 A 
HETATM    8  C1  UNL     1      21.829  -0.124  65.796  1.00  0.00     0.048 C 
HETATM    9  C15 UNL     1      20.386   1.828  65.180  1.00  0.00     0.007 A 
HETATM   10  C14 UNL     1      19.588   2.545  64.286  1.00  0.00     0.014 A 
ENDBRANCH   1   4
BRANCH   1  11
HETATM   11  C7  UNL     1      18.827   4.098  61.502  1.00  0.00     0.064 C 
BRANCH  11  12
HETATM   12  C8  UNL     1      20.276   4.416  61.356  1.00  0.00     0.046 C 
BRANCH  12  13
HETATM   13  C9  UNL     1      20.587   4.701  59.913  1.00  0.00    -0.042 A 
HETATM   14  C10 UNL     1      19.596   4.989  58.995  1.00  0.00     0.010 A 
HETATM   15  C11 UNL     1      20.020   5.233  57.697  1.00  0.00     0.018 A 
HETATM   16  C12 UNL     1      21.354   5.190  57.351  1.00  0.00     0.087 A 
HETATM   17  N1  UNL     1      22.295   4.909  58.257  1.00  0.00    -0.375 N 
HETATM   18  C13 UNL     1      21.910   4.666  59.535  1.00  0.00     0.094 A 
ATOM     19  H1  UNL     1      23.281   4.879  57.995  1.00  0.00     0.164 HD
ENDBRANCH  12  13
ENDBRANCH  11  12
ENDBRANCH   1  11
BRANCH   2  20
HETATM   20  O1  UNL     1      16.651   2.725  60.640  1.00  0.00    -0.290 OA
ATOM     21  H1  UNL     1      15.811   3.099  60.881  1.00  0.00     0.244 HD
ENDBRANCH   2  20
TORSDOF 5
ENDMDL
MODEL 4
REMARK VINA RESULT: -7.490890417      1.092      1.638
REMARK  5 active torsions:
REMARK  status: ('A' for Active; 'I' for Inactive)
REMARK    1  A    between atoms: C5_5  and  C6_6 
REMARK    2  A    between atoms: C6_6  and  C7_7 
REMARK    3  A    between atoms: C7_7  and  C8_8 
REMARK    4  A    between atoms: C8_8  and  C9_9 
REMARK    5  A    between atoms: N2_16  and  O1_18 
ROOT
HETATM    1  C6  UNL     1      18.729   2.578  60.273  1.00  0.00     0.042 C 
HETATM    2  N2  UNL     1      17.481   2.876  60.164  1.00  0.00    -0.273 N 
ATOM      3  H2  UNL     1      17.197   3.576  59.477  1.00  0.00     0.194 HD
ENDROOT
BRANCH   1   4
HETATM    4  C5  UNL     1      19.687   3.246  59.419  1.00  0.00    -0.012 A 
HETATM    5  C4  UNL     1      20.774   2.528  58.901  1.00  0.00     0.014 A 
HETATM    6  C3  UNL     1      21.739   3.089  58.105  1.00  0.00     0.007 A 
HETATM    7  C2  UNL     1      21.679   4.424  57.770  1.00  0.00    -0.062 A 
HETATM    8  C1  UNL     1      22.723   5.059  56.900  1.00  0.00     0.048 C 
HETATM    9  C15 UNL     1      20.623   5.158  58.263  1.00  0.00     0.007 A 
HETATM   10  C14 UNL     1      19.645   4.579  59.073  1.00  0.00     0.014 A 
ENDBRANCH   1   4
BRANCH   1  11
HETATM   11  C7  UNL     1      19.123   1.605  61.299  1.00  0.00     0.064 C 
BRANCH  11  12
HETATM   12  C8  UNL     1      19.608   2.182  62.585  1.00  0.00     0.046 C 
BRANCH  12  13
HETATM   13  C9  UNL     1      20.283   1.111  63.396  1.00  0.00    -0.042 A 
HETATM   14  C10 UNL     1      20.671   1.322  64.704  1.00  0.00     0.010 A 
HETATM   15  C11 UNL     1      21.283   0.249  65.339  1.00  0.00     0.018 A 
HETATM   16  C12 UNL     1      21.488  -0.952  64.694  1.00  0.00     0.087 A 
HETATM   17  N1  UNL     1      21.104  -1.131  63.426  1.00  0.00    -0.375 N 
HETATM   18  C13 UNL     1      20.503  -0.101  62.781  1.00  0.00     0.094 A 
ATOM     19  H1  UNL     1      21.259  -2.023  62.955  1.00  0.00     0.164 HD
ENDBRANCH  12  13
ENDBRANCH  11  12
ENDBRANCH   1  11
BRANCH   2  20
HETATM   20  O1  UNL     1      16.520   2.281  60.944  1.00  0.00    -0.290 OA
ATOM     21  H1  UNL     1      16.614   2.205  61.886  1.00  0.00     0.244 HD
ENDBRANCH   2  20
TORSDOF 5
ENDMDL
MODEL 5
REMARK VINA RESULT: -7.480266212      1.123      1.247
REMARK  5 active torsions:
REMARK  status: ('A' for Active; 'I' for Inactive)
REMARK    1  A    between atoms: C5_5  and  C6_6 
REMARK    2  A    between atoms: C6_6  and  C7_7 
REMARK    3  A    between atoms: C7_7  and  C8_8 
REMARK    4  A    between atoms: C8_8  and  C9_9 
REMARK    5  A    between atoms: N2_16  and  O1_18 
ROOT
HETATM    1  C6  UNL     1      18.781   2.509  60.306  1.00  0.00     0.042 C 
HETATM    2  N2  UNL     1      17.550   2.855  60.146  1.00  0.00    -0.273 N 
ATOM      3  H2  UNL     1      17.319   3.548  59.434  1.00  0.00     0.194 HD
ENDROOT
BRANCH   1   4
HETATM    4  C5  UNL     1      19.793   3.117  59.470  1.00  0.00    -0.012 A 
HETATM    5  C4  UNL     1      19.659   4.459  59.082  1.00  0.00     0.014 A 
HETATM    6  C3  UNL     1      20.558   5.103  58.273  1.00  0.00     0.007 A 
HETATM    7  C2  UNL     1      21.665   4.441  57.790  1.00  0.00    -0.062 A 
HETATM    8  C1  UNL     1      22.662   5.127  56.903  1.00  0.00     0.048 C 
HETATM    9  C15 UNL     1      21.826   3.122  58.151  1.00  0.00     0.007 A 
HETATM   10  C14 UNL     1      20.906   2.472  58.976  1.00  0.00     0.014 A 
ENDBRANCH   1   4
BRANCH   1  11
HETATM   11  C7  UNL     1      19.100   1.548  61.368  1.00  0.00     0.064 C 
BRANCH  11  12
HETATM   12  C8  UNL     1      19.599   2.135  62.643  1.00  0.00     0.046 C 
BRANCH  12  13
HETATM   13  C9  UNL     1      20.290   1.073  63.452  1.00  0.00    -0.042 A 
HETATM   14  C10 UNL     1      20.668   1.284  64.764  1.00  0.00     0.010 A 
HETATM   15  C11 UNL     1      21.297   0.220  65.395  1.00  0.00     0.018 A 
HETATM   16  C12 UNL     1      21.528  -0.975  64.745  1.00  0.00     0.087 A 
HETATM   17  N1  UNL     1      21.153  -1.154  63.475  1.00  0.00    -0.375 N 
HETATM   18  C13 UNL     1      20.536  -0.131  62.832  1.00  0.00     0.094 A 
ATOM     19  H1  UNL     1      21.327  -2.040  62.999  1.00  0.00     0.164 HD
ENDBRANCH  12  13
ENDBRANCH  11  12
ENDBRANCH   1  11
BRANCH   2  20
HETATM   20  O1  UNL     1      16.540   2.318  60.907  1.00  0.00    -0.290 OA
ATOM     21  H1  UNL     1      15.901   2.863  61.350  1.00  0.00     0.244 HD
ENDBRANCH   2  20
TORSDOF 5
ENDMDL
