MODEL 1
REMARK VINA RESULT: -5.462487561      0.000      0.000
REMARK  5 active torsions:
REMARK  status: ('A' for Active; 'I' for Inactive)
REMARK    1  A    between atoms: N1_1  and  O1_4 
REMARK    2  A    between atoms: O1_4  and  C1_5 
REMARK    3  A    between atoms: C1_5  and  C2_6 
REMARK    4  A    between atoms: C2_6  and  C3_7 
REMARK    5  A    between atoms: C4_10  and  N4_11 
ROOT
HETATM    1  C3  UNL     1      17.882   5.996 -10.637  1.00  0.00     0.236 C 
HETATM    2  N2  UNL     1      18.071   5.308  -9.375  1.00  0.00    -0.112 NA
HETATM    3  N3  UNL     1      17.382   6.131  -8.495  1.00  0.00    -0.086 NA
HETATM    4  C4  UNL     1      17.713   7.447  -8.948  1.00  0.00     0.433 C 
HETATM    5  O2  UNL     1      18.003   7.324 -10.306  1.00  0.00    -0.323 OA
ENDROOT
BRANCH   1   6
HETATM    6  C2  UNL     1      16.475   5.719 -11.146  1.00  0.00     0.079 C 
BRANCH   6   7
HETATM    7  C1  UNL     1      16.487   5.385 -12.615  1.00  0.00     0.204 C 
BRANCH   7   8
HETATM    8  O1  UNL     1      16.124   6.489 -13.344  1.00  0.00    -0.287 OA
BRANCH   8   9
HETATM    9  N1  UNL     1      17.132   7.035 -14.032  1.00  0.00    -0.311 N 
ATOM     10  H12 UNL     1      17.972   6.510 -14.277  1.00  0.00     0.184 HD
ATOM     11  H11 UNL     1      16.978   8.011 -14.282  1.00  0.00     0.184 HD
ENDBRANCH   8   9
ENDBRANCH   7   8
ENDBRANCH   6   7
ENDBRANCH   1   6
BRANCH   4  12
HETATM   12  N4  UNL     1      16.582   8.309  -8.710  1.00  0.00    -0.037 N 
ATOM     13  H43 UNL     1      15.758   8.031  -9.243  1.00  0.00     0.279 HD
ATOM     14  H42 UNL     1      16.189   8.192  -7.776  1.00  0.00     0.279 HD
ATOM     15  H41 UNL     1      16.865   9.271  -8.898  1.00  0.00     0.279 HD
ENDBRANCH   4  12
TORSDOF 5
ENDMDL
MODEL 2
REMARK VINA RESULT: -5.415261960      1.608      4.073
REMARK  5 active torsions:
REMARK  status: ('A' for Active; 'I' for Inactive)
REMARK    1  A    between atoms: N1_1  and  O1_4 
REMARK    2  A    between atoms: O1_4  and  C1_5 
REMARK    3  A    between atoms: C1_5  and  C2_6 
REMARK    4  A    between atoms: C2_6  and  C3_7 
REMARK    5  A    between atoms: C4_10  and  N4_11 
ROOT
HETATM    1  C3  UNL     1      17.077   5.819 -10.015  1.00  0.00     0.236 C 
HETATM    2  N2  UNL     1      18.381   5.276 -10.340  1.00  0.00    -0.112 NA
HETATM    3  N3  UNL     1      18.620   5.833 -11.588  1.00  0.00    -0.086 NA
HETATM    4  C4  UNL     1      17.344   5.757 -12.231  1.00  0.00     0.433 C 
HETATM    5  O2  UNL     1      16.397   5.771 -11.208  1.00  0.00    -0.323 OA
ENDROOT
BRANCH   1   6
HETATM    6  C2  UNL     1      17.239   7.267  -9.573  1.00  0.00     0.079 C 
BRANCH   6   7
HETATM    7  C1  UNL     1      17.992   7.355  -8.272  1.00  0.00     0.204 C 
BRANCH   7   8
HETATM    8  O1  UNL     1      17.538   8.426  -7.545  1.00  0.00    -0.287 OA
BRANCH   8   9
HETATM    9  N1  UNL     1      16.322   8.846  -7.910  1.00  0.00    -0.311 N 
ATOM     10  H12 UNL     1      15.932   8.652  -8.832  1.00  0.00     0.184 HD
ATOM     11  H11 UNL     1      15.834   9.370  -7.184  1.00  0.00     0.184 HD
ENDBRANCH   8   9
ENDBRANCH   7   8
ENDBRANCH   6   7
ENDBRANCH   1   6
BRANCH   4  12
HETATM   12  N4  UNL     1      17.209   6.892 -13.111  1.00  0.00    -0.037 N 
ATOM     13  H43 UNL     1      18.094   7.163 -13.538  1.00  0.00     0.279 HD
ATOM     14  H42 UNL     1      16.703   6.666 -13.968  1.00  0.00     0.279 HD
ATOM     15  H41 UNL     1      16.775   7.654 -12.589  1.00  0.00     0.279 HD
ENDBRANCH   4  12
TORSDOF 5
ENDMDL
MODEL 3
REMARK VINA RESULT: -5.050135948      1.611      1.727
REMARK  5 active torsions:
REMARK  status: ('A' for Active; 'I' for Inactive)
REMARK    1  A    between atoms: N1_1  and  O1_4 
REMARK    2  A    between atoms: O1_4  and  C1_5 
REMARK    3  A    between atoms: C1_5  and  C2_6 
REMARK    4  A    between atoms: C2_6  and  C3_7 
REMARK    5  A    between atoms: C4_10  and  N4_11 
ROOT
HETATM    1  C3  UNL     1      18.575   5.976 -11.882  1.00  0.00     0.236 C 
HETATM    2  N2  UNL     1      18.974   5.148 -10.761  1.00  0.00    -0.112 NA
HETATM    3  N3  UNL     1      18.047   5.511  -9.794  1.00  0.00    -0.086 NA
HETATM    4  C4  UNL     1      17.929   6.926  -9.968  1.00  0.00     0.433 C 
HETATM    5  O2  UNL     1      18.250   7.178 -11.301  1.00  0.00    -0.323 OA
ENDROOT
BRANCH   1   6
HETATM    6  C2  UNL     1      17.340   5.369 -12.533  1.00  0.00     0.079 C 
BRANCH   6   7
HETATM    7  C1  UNL     1      16.457   6.439 -13.120  1.00  0.00     0.204 C 
BRANCH   7   8
HETATM    8  O1  UNL     1      15.247   6.446 -12.474  1.00  0.00    -0.287 OA
BRANCH   8   9
HETATM    9  N1  UNL     1      14.999   5.327 -11.784  1.00  0.00    -0.311 N 
ATOM     10  H12 UNL     1      15.740   4.687 -11.500  1.00  0.00     0.184 HD
ATOM     11  H11 UNL     1      14.011   5.184 -11.576  1.00  0.00     0.184 HD
ENDBRANCH   8   9
ENDBRANCH   7   8
ENDBRANCH   6   7
ENDBRANCH   1   6
BRANCH   4  12
HETATM   12  N4  UNL     1      16.575   7.312  -9.653  1.00  0.00    -0.037 N 
ATOM     13  H43 UNL     1      15.890   6.872 -10.267  1.00  0.00     0.279 HD
ATOM     14  H42 UNL     1      16.249   6.916  -8.772  1.00  0.00     0.279 HD
ATOM     15  H41 UNL     1      16.520   8.331  -9.670  1.00  0.00     0.279 HD
ENDBRANCH   4  12
TORSDOF 5
ENDMDL
MODEL 4
REMARK VINA RESULT: -5.001715575      2.052      2.321
REMARK  5 active torsions:
REMARK  status: ('A' for Active; 'I' for Inactive)
REMARK    1  A    between atoms: N1_1  and  O1_4 
REMARK    2  A    between atoms: O1_4  and  C1_5 
REMARK    3  A    between atoms: C1_5  and  C2_6 
REMARK    4  A    between atoms: C2_6  and  C3_7 
REMARK    5  A    between atoms: C4_10  and  N4_11 
ROOT
HETATM    1  C3  UNL     1      18.100   5.451 -11.803  1.00  0.00     0.236 C 
HETATM    2  N2  UNL     1      16.716   5.338 -12.221  1.00  0.00    -0.112 NA
HETATM    3  N3  UNL     1      16.106   6.323 -11.456  1.00  0.00    -0.086 NA
HETATM    4  C4  UNL     1      16.754   6.200 -10.186  1.00  0.00     0.433 C 
HETATM    5  O2  UNL     1      18.014   5.667 -10.448  1.00  0.00    -0.323 OA
ENDROOT
BRANCH   1   6
HETATM    6  C2  UNL     1      18.725   6.663 -12.478  1.00  0.00     0.079 C 
BRANCH   6   7
HETATM    7  C1  UNL     1      18.897   6.430 -13.956  1.00  0.00     0.204 C 
BRANCH   7   8
HETATM    8  O1  UNL     1      18.166   7.354 -14.659  1.00  0.00    -0.287 OA
BRANCH   8   9
HETATM    9  N1  UNL     1      16.852   7.106 -14.667  1.00  0.00    -0.311 N 
ATOM     10  H12 UNL     1      16.232   7.426 -13.922  1.00  0.00     0.184 HD
ATOM     11  H11 UNL     1      16.539   6.576 -15.480  1.00  0.00     0.184 HD
ENDBRANCH   8   9
ENDBRANCH   7   8
ENDBRANCH   6   7
ENDBRANCH   1   6
BRANCH   4  12
HETATM   12  N4  UNL     1      16.833   7.510  -9.587  1.00  0.00    -0.037 N 
ATOM     13  H43 UNL     1      17.795   7.811  -9.429  1.00  0.00     0.279 HD
ATOM     14  H42 UNL     1      16.559   8.253 -10.231  1.00  0.00     0.279 HD
ATOM     15  H41 UNL     1      16.276   7.507  -8.733  1.00  0.00     0.279 HD
ENDBRANCH   4  12
TORSDOF 5
ENDMDL
MODEL 5
REMARK VINA RESULT: -4.916924384      1.710      1.872
REMARK  5 active torsions:
REMARK  status: ('A' for Active; 'I' for Inactive)
REMARK    1  A    between atoms: N1_1  and  O1_4 
REMARK    2  A    between atoms: O1_4  and  C1_5 
REMARK    3  A    between atoms: C1_5  and  C2_6 
REMARK    4  A    between atoms: C2_6  and  C3_7 
REMARK    5  A    between atoms: C4_10  and  N4_11 
ROOT
HETATM    1  C3  UNL     1      17.869   5.504 -10.816  1.00  0.00     0.236 C 
HETATM    2  N2  UNL     1      16.531   6.062 -10.785  1.00  0.00    -0.112 NA
HETATM    3  N3  UNL     1      16.652   7.039  -9.805  1.00  0.00    -0.086 NA
HETATM    4  C4  UNL     1      17.470   6.409  -8.814  1.00  0.00     0.433 C 
HETATM    5  O2  UNL     1      18.236   5.463  -9.492  1.00  0.00    -0.323 OA
ENDROOT
BRANCH   1   6
HETATM    6  C2  UNL     1      18.785   6.453 -11.575  1.00  0.00     0.079 C 
BRANCH   6   7
HETATM    7  C1  UNL     1      18.852   6.088 -13.035  1.00  0.00     0.204 C 
BRANCH   7   8
HETATM    8  O1  UNL     1      18.252   7.067 -13.785  1.00  0.00    -0.287 OA
BRANCH   8   9
HETATM    9  N1  UNL     1      16.926   6.924 -13.893  1.00  0.00    -0.311 N 
ATOM     10  H12 UNL     1      16.440   6.086 -13.573  1.00  0.00     0.184 HD
ATOM     11  H11 UNL     1      16.461   7.725 -14.319  1.00  0.00     0.184 HD
ENDBRANCH   8   9
ENDBRANCH   7   8
ENDBRANCH   6   7
ENDBRANCH   1   6
BRANCH   4  12
HETATM   12  N4  UNL     1      18.286   7.421  -8.188  1.00  0.00    -0.037 N 
ATOM     13  H43 UNL     1      18.025   7.588  -7.216  1.00  0.00     0.279 HD
ATOM     14  H42 UNL     1      19.243   7.107  -8.025  1.00  0.00     0.279 HD
ATOM     15  H41 UNL     1      18.242   8.266  -8.757  1.00  0.00     0.279 HD
ENDBRANCH   4  12
TORSDOF 5
ENDMDL
