MODEL 1
REMARK VINA RESULT: -6.502400799      0.000      0.000
REMARK  14 active torsions:
REMARK  status: ('A' for Active; 'I' for Inactive)
REMARK    1  A    between atoms: O1_2  and  C2_3 
REMARK    2  A    between atoms: C2_3  and  C3_4 
REMARK    3  A    between atoms: C2_3  and  C4_7 
REMARK    4  A    between atoms: C3_4  and  O2_5 
REMARK    5  A    between atoms: C4_7  and  O3_8 
REMARK    6  A    between atoms: O3_8  and  N1_9 
REMARK    7  A    between atoms: C5_10  and  N2_11 
REMARK    8  A    between atoms: N2_11  and  C6_13 
REMARK    9  A    between atoms: C7_15  and  C8_16 
REMARK   10  A    between atoms: C8_16  and  O4_17 
REMARK   11  A    between atoms: C8_16  and  O5_19 
REMARK   12  A    between atoms: N3_22  and  N4_23 
REMARK   13  A    between atoms: C10_26  and  N5_27 
REMARK   14  A    between atoms: N9_38  and  O6_39 
ROOT
HETATM    1  C6  UNL     1       0.656  13.489  52.695  1.00  0.00     0.188 A 
HETATM    2  S1  UNL     1       1.754  12.316  53.239  1.00  0.00    -0.047 SA
HETATM    3  C7  UNL     1       0.838  10.896  52.818  1.00  0.00     0.088 A 
HETATM    4  C9  UNL     1      -0.281  11.456  52.273  1.00  0.00     0.187 A 
HETATM    5  N3  UNL     1      -1.447  10.963  51.730  1.00  0.00    -0.072 N 
HETATM    6  C10 UNL     1      -2.230  11.997  51.343  1.00  0.00     0.713 A 
HETATM    7  N6  UNL     1      -1.548  13.092  51.650  1.00  0.00    -0.120 N 
ATOM      8  H6  UNL     1      -1.868  14.047  51.485  1.00  0.00     0.206 HD
HETATM    9  N7  UNL     1      -0.362  12.757  52.216  1.00  0.00    -0.198 N 
ENDROOT
BRANCH   1  10
HETATM   10  N2  UNL     1       0.777  14.809  52.735  1.00  0.00    -0.165 N 
ATOM     11  H2  UNL     1       0.196  15.395  53.333  1.00  0.00     0.186 HD
BRANCH  10  12
HETATM   12  C5  UNL     1       1.794  15.351  51.868  1.00  0.00     0.721 C 
HETATM   13  N1  UNL     1       2.174  16.714  51.743  1.00  0.00     0.023 N 
HETATM   14  N9  UNL     1       3.463  16.723  51.213  1.00  0.00    -0.035 NA
HETATM   15  C11 UNL     1       3.449  15.564  50.343  1.00  0.00     0.142 C 
HETATM   16  N8  UNL     1       2.539  14.685  51.052  1.00  0.00    -0.197 N 
HETATM   17  C12 UNL     1       2.943  15.982  49.001  1.00  0.00     0.061 C 
HETATM   18  C13 UNL     1       4.820  14.965  50.214  1.00  0.00     0.061 C 
ATOM     19  H8  UNL     1       2.493  13.675  50.923  1.00  0.00     0.180 HD
BRANCH  13  20
HETATM   20  O3  UNL     1       1.472  17.792  52.057  1.00  0.00    -0.244 OA
BRANCH  20  21
HETATM   21  C4  UNL     1       0.344  17.983  51.275  1.00  0.00     0.238 C 
BRANCH  21  22
HETATM   22  C2  UNL     1       0.423  19.201  50.410  1.00  0.00     0.170 C 
BRANCH  22  23
HETATM   23  O1  UNL     1       1.555  19.947  50.573  1.00  0.00    -0.386 OA
HETATM   24  C1  UNL     1       1.430  21.276  50.215  1.00  0.00     0.202 C 
ENDBRANCH  22  23
BRANCH  22  25
HETATM   25  C3  UNL     1      -0.842  20.023  50.543  1.00  0.00     0.198 C 
BRANCH  25  26
HETATM   26  O2  UNL     1      -1.517  19.746  51.723  1.00  0.00    -0.398 OA
ATOM     27  H2  UNL     1      -0.997  19.963  52.488  1.00  0.00     0.209 HD
ENDBRANCH  25  26
ENDBRANCH  22  25
ENDBRANCH  21  22
ENDBRANCH  20  21
ENDBRANCH  13  20
BRANCH  14  28
HETATM   28  O6  UNL     1       3.641  17.875  50.533  1.00  0.00    -0.289 OA
ATOM     29  H6  UNL     1       4.448  18.281  50.830  1.00  0.00     0.239 HD
ENDBRANCH  14  28
ENDBRANCH  10  12
ENDBRANCH   1  10
BRANCH   3  30
HETATM   30  C8  UNL     1       1.307   9.494  53.038  1.00  0.00     0.299 C 
BRANCH  30  31
HETATM   31  O4  UNL     1       0.944   8.766  51.880  1.00  0.00    -0.367 OA
ATOM     32  H4  UNL     1       0.002   8.648  51.923  1.00  0.00     0.213 HD
ENDBRANCH  30  31
BRANCH  30  33
HETATM   33  O5  UNL     1       0.690   8.947  54.123  1.00  0.00    -0.367 OA
ATOM     34  H5  UNL     1       1.281   8.921  54.866  1.00  0.00     0.213 HD
ENDBRANCH  30  33
ENDBRANCH   3  30
BRANCH   5  35
HETATM   35  N4  UNL     1      -1.862   9.646  51.567  1.00  0.00    -0.322 N 
ATOM     36  H42 UNL     1      -1.187   8.887  51.473  1.00  0.00     0.178 HD
ATOM     37  H41 UNL     1      -2.806   9.264  51.511  1.00  0.00     0.178 HD
ENDBRANCH   5  35
BRANCH   6  38
HETATM   38  N5  UNL     1      -3.406  11.924  50.788  1.00  0.00    -0.231 N 
ATOM     39  H52 UNL     1      -3.632  12.011  49.797  1.00  0.00     0.174 HD
ATOM     40  H51 UNL     1      -4.298  11.769  51.258  1.00  0.00     0.174 HD
ENDBRANCH   6  38
TORSDOF 14
ENDMDL
MODEL 2
REMARK VINA RESULT: -6.344730785      1.728      2.033
REMARK  14 active torsions:
REMARK  status: ('A' for Active; 'I' for Inactive)
REMARK    1  A    between atoms: O1_2  and  C2_3 
REMARK    2  A    between atoms: C2_3  and  C3_4 
REMARK    3  A    between atoms: C2_3  and  C4_7 
REMARK    4  A    between atoms: C3_4  and  O2_5 
REMARK    5  A    between atoms: C4_7  and  O3_8 
REMARK    6  A    between atoms: O3_8  and  N1_9 
REMARK    7  A    between atoms: C5_10  and  N2_11 
REMARK    8  A    between atoms: N2_11  and  C6_13 
REMARK    9  A    between atoms: C7_15  and  C8_16 
REMARK   10  A    between atoms: C8_16  and  O4_17 
REMARK   11  A    between atoms: C8_16  and  O5_19 
REMARK   12  A    between atoms: N3_22  and  N4_23 
REMARK   13  A    between atoms: C10_26  and  N5_27 
REMARK   14  A    between atoms: N9_38  and  O6_39 
ROOT
HETATM    1  C6  UNL     1      -0.152  14.042  51.317  1.00  0.00     0.188 A 
HETATM    2  S1  UNL     1       0.305  13.561  52.878  1.00  0.00    -0.047 SA
HETATM    3  C7  UNL     1      -0.911  12.341  53.135  1.00  0.00     0.088 A 
HETATM    4  C9  UNL     1      -1.598  12.402  51.957  1.00  0.00     0.187 A 
HETATM    5  N3  UNL     1      -2.691  11.745  51.436  1.00  0.00    -0.072 N 
HETATM    6  C10 UNL     1      -2.949  12.225  50.197  1.00  0.00     0.713 A 
HETATM    7  N6  UNL     1      -2.029  13.154  49.978  1.00  0.00    -0.120 N 
ATOM      8  H6  UNL     1      -1.950  13.709  49.126  1.00  0.00     0.206 HD
HETATM    9  N7  UNL     1      -1.209  13.258  51.053  1.00  0.00    -0.198 N 
ENDROOT
BRANCH   1  10
HETATM   10  N2  UNL     1       0.403  14.968  50.547  1.00  0.00    -0.165 N 
ATOM     11  H2  UNL     1      -0.137  15.716  50.112  1.00  0.00     0.186 HD
BRANCH  10  12
HETATM   12  C5  UNL     1       1.828  14.837  50.372  1.00  0.00     0.721 C 
HETATM   13  N1  UNL     1       2.816  15.826  50.627  1.00  0.00     0.023 N 
HETATM   14  N9  UNL     1       4.021  15.150  50.807  1.00  0.00    -0.035 NA
HETATM   15  C11 UNL     1       3.885  14.025  49.902  1.00  0.00     0.142 C 
HETATM   16  N8  UNL     1       2.454  13.791  49.951  1.00  0.00    -0.197 N 
HETATM   17  C12 UNL     1       4.371  14.439  48.552  1.00  0.00     0.061 C 
HETATM   18  C13 UNL     1       4.665  12.838  50.390  1.00  0.00     0.061 C 
ATOM     19  H8  UNL     1       2.003  12.915  49.688  1.00  0.00     0.180 HD
BRANCH  13  20
HETATM   20  O3  UNL     1       2.662  17.140  50.689  1.00  0.00    -0.244 OA
BRANCH  20  21
HETATM   21  C4  UNL     1       2.221  17.717  49.509  1.00  0.00     0.238 C 
BRANCH  21  22
HETATM   22  C2  UNL     1       1.317  18.889  49.726  1.00  0.00     0.170 C 
BRANCH  22  23
HETATM   23  O1  UNL     1       1.797  19.831  50.587  1.00  0.00    -0.386 OA
HETATM   24  C1  UNL     1       1.094  21.022  50.594  1.00  0.00     0.202 C 
ENDBRANCH  22  23
BRANCH  22  25
HETATM   25  C3  UNL     1      -0.075  18.417  50.092  1.00  0.00     0.198 C 
BRANCH  25  26
HETATM   26  O2  UNL     1      -0.099  17.787  51.329  1.00  0.00    -0.398 OA
ATOM     27  H2  UNL     1      -0.978  17.523  51.574  1.00  0.00     0.209 HD
ENDBRANCH  25  26
ENDBRANCH  22  25
ENDBRANCH  21  22
ENDBRANCH  20  21
ENDBRANCH  13  20
BRANCH  14  28
HETATM   28  O6  UNL     1       5.032  15.973  50.457  1.00  0.00    -0.289 OA
ATOM     29  H6  UNL     1       5.718  15.905  51.112  1.00  0.00     0.239 HD
ENDBRANCH  14  28
ENDBRANCH  10  12
ENDBRANCH   1  10
BRANCH   3  30
HETATM   30  C8  UNL     1      -1.023  11.509  54.372  1.00  0.00     0.299 C 
BRANCH  30  31
HETATM   31  O4  UNL     1      -0.509  10.233  54.041  1.00  0.00    -0.367 OA
ATOM     32  H4  UNL     1      -0.265   9.822  54.862  1.00  0.00     0.213 HD
ENDBRANCH  30  31
BRANCH  30  33
HETATM   33  O5  UNL     1      -2.326  11.383  54.748  1.00  0.00    -0.367 OA
ATOM     34  H5  UNL     1      -2.562  10.467  54.836  1.00  0.00     0.213 HD
ENDBRANCH  30  33
ENDBRANCH   3  30
BRANCH   5  35
HETATM   35  N4  UNL     1      -3.481  10.751  52.002  1.00  0.00    -0.322 N 
ATOM     36  H42 UNL     1      -3.094  10.086  52.671  1.00  0.00     0.178 HD
ATOM     37  H41 UNL     1      -4.467  10.539  51.851  1.00  0.00     0.178 HD
ENDBRANCH   5  35
BRANCH   6  38
HETATM   38  N5  UNL     1      -3.904  11.848  49.395  1.00  0.00    -0.231 N 
ATOM     39  H52 UNL     1      -3.954  11.979  48.384  1.00  0.00     0.174 HD
ATOM     40  H51 UNL     1      -4.761  11.358  49.650  1.00  0.00     0.174 HD
ENDBRANCH   6  38
TORSDOF 14
ENDMDL
MODEL 3
REMARK VINA RESULT: -6.343706400      2.718      3.838
REMARK  14 active torsions:
REMARK  status: ('A' for Active; 'I' for Inactive)
REMARK    1  A    between atoms: O1_2  and  C2_3 
REMARK    2  A    between atoms: C2_3  and  C3_4 
REMARK    3  A    between atoms: C2_3  and  C4_7 
REMARK    4  A    between atoms: C3_4  and  O2_5 
REMARK    5  A    between atoms: C4_7  and  O3_8 
REMARK    6  A    between atoms: O3_8  and  N1_9 
REMARK    7  A    between atoms: C5_10  and  N2_11 
REMARK    8  A    between atoms: N2_11  and  C6_13 
REMARK    9  A    between atoms: C7_15  and  C8_16 
REMARK   10  A    between atoms: C8_16  and  O4_17 
REMARK   11  A    between atoms: C8_16  and  O5_19 
REMARK   12  A    between atoms: N3_22  and  N4_23 
REMARK   13  A    between atoms: C10_26  and  N5_27 
REMARK   14  A    between atoms: N9_38  and  O6_39 
ROOT
HETATM    1  C6  UNL     1       3.994  11.881  51.195  1.00  0.00     0.188 A 
HETATM    2  S1  UNL     1       3.936  10.192  51.346  1.00  0.00    -0.047 SA
HETATM    3  C7  UNL     1       2.471  10.072  52.280  1.00  0.00     0.088 A 
HETATM    4  C9  UNL     1       2.129  11.387  52.407  1.00  0.00     0.187 A 
HETATM    5  N3  UNL     1       1.102  12.069  53.021  1.00  0.00    -0.072 N 
HETATM    6  C10 UNL     1       1.272  13.397  52.828  1.00  0.00     0.713 A 
HETATM    7  N6  UNL     1       2.382  13.513  52.113  1.00  0.00    -0.120 N 
ATOM      8  H6  UNL     1       2.787  14.395  51.799  1.00  0.00     0.206 HD
HETATM    9  N7  UNL     1       2.901  12.286  51.859  1.00  0.00    -0.198 N 
ENDROOT
BRANCH   1  10
HETATM   10  N2  UNL     1       4.903  12.618  50.571  1.00  0.00    -0.165 N 
ATOM     11  H2  UNL     1       5.815  12.824  50.977  1.00  0.00     0.186 HD
BRANCH  10  12
HETATM   12  C5  UNL     1       4.502  13.106  49.274  1.00  0.00     0.721 C 
HETATM   13  N1  UNL     1       3.987  14.393  48.966  1.00  0.00     0.023 N 
HETATM   14  N9  UNL     1       4.209  14.598  47.606  1.00  0.00    -0.035 NA
HETATM   15  C11 UNL     1       4.061  13.261  47.063  1.00  0.00     0.142 C 
HETATM   16  N8  UNL     1       4.544  12.450  48.164  1.00  0.00    -0.197 N 
HETATM   17  C12 UNL     1       2.619  13.033  46.747  1.00  0.00     0.061 C 
HETATM   18  C13 UNL     1       4.895  13.082  45.826  1.00  0.00     0.061 C 
ATOM     19  H8  UNL     1       4.874  11.490  48.073  1.00  0.00     0.180 HD
BRANCH  13  20
HETATM   20  O3  UNL     1       3.404  15.259  49.781  1.00  0.00    -0.244 OA
BRANCH  20  21
HETATM   21  C4  UNL     1       4.282  16.119  50.420  1.00  0.00     0.238 C 
BRANCH  21  22
HETATM   22  C2  UNL     1       3.709  17.481  50.656  1.00  0.00     0.170 C 
BRANCH  22  23
HETATM   23  O1  UNL     1       3.716  17.887  51.959  1.00  0.00    -0.386 OA
HETATM   24  C1  UNL     1       2.639  17.449  52.708  1.00  0.00     0.202 C 
ENDBRANCH  22  23
BRANCH  22  25
HETATM   25  C3  UNL     1       2.342  17.594  50.015  1.00  0.00     0.198 C 
BRANCH  25  26
HETATM   26  O2  UNL     1       2.427  17.758  48.639  1.00  0.00    -0.398 OA
ATOM     27  H2  UNL     1       2.665  18.647  48.403  1.00  0.00     0.209 HD
ENDBRANCH  25  26
ENDBRANCH  22  25
ENDBRANCH  21  22
ENDBRANCH  20  21
ENDBRANCH  13  20
BRANCH  14  28
HETATM   28  O6  UNL     1       3.271  15.449  47.140  1.00  0.00    -0.289 OA
ATOM     29  H6  UNL     1       3.620  15.896  46.377  1.00  0.00     0.239 HD
ENDBRANCH  14  28
ENDBRANCH  10  12
ENDBRANCH   1  10
BRANCH   3  30
HETATM   30  C8  UNL     1       1.858   8.783  52.727  1.00  0.00     0.299 C 
BRANCH  30  31
HETATM   31  O4  UNL     1       0.811   8.503  51.819  1.00  0.00    -0.367 OA
ATOM     32  H4  UNL     1       0.371   7.727  52.148  1.00  0.00     0.213 HD
ENDBRANCH  30  31
BRANCH  30  33
HETATM   33  O5  UNL     1       1.342   8.908  53.982  1.00  0.00    -0.367 OA
ATOM     34  H5  UNL     1       0.796   8.160  54.195  1.00  0.00     0.213 HD
ENDBRANCH  30  33
ENDBRANCH   3  30
BRANCH   5  35
HETATM   35  N4  UNL     1       0.027  11.580  53.754  1.00  0.00    -0.322 N 
ATOM     36  H42 UNL     1      -0.921  11.595  53.376  1.00  0.00     0.178 HD
ATOM     37  H41 UNL     1       0.007  11.177  54.691  1.00  0.00     0.178 HD
ENDBRANCH   5  35
BRANCH   6  38
HETATM   38  N5  UNL     1       0.502  14.356  53.260  1.00  0.00    -0.231 N 
ATOM     39  H52 UNL     1       0.239  15.211  52.768  1.00  0.00     0.174 HD
ATOM     40  H51 UNL     1       0.036  14.407  54.166  1.00  0.00     0.174 HD
ENDBRANCH   6  38
TORSDOF 14
ENDMDL
MODEL 4
REMARK VINA RESULT: -6.318342140      2.786      7.131
REMARK  14 active torsions:
REMARK  status: ('A' for Active; 'I' for Inactive)
REMARK    1  A    between atoms: O1_2  and  C2_3 
REMARK    2  A    between atoms: C2_3  and  C3_4 
REMARK    3  A    between atoms: C2_3  and  C4_7 
REMARK    4  A    between atoms: C3_4  and  O2_5 
REMARK    5  A    between atoms: C4_7  and  O3_8 
REMARK    6  A    between atoms: O3_8  and  N1_9 
REMARK    7  A    between atoms: C5_10  and  N2_11 
REMARK    8  A    between atoms: N2_11  and  C6_13 
REMARK    9  A    between atoms: C7_15  and  C8_16 
REMARK   10  A    between atoms: C8_16  and  O4_17 
REMARK   11  A    between atoms: C8_16  and  O5_19 
REMARK   12  A    between atoms: N3_22  and  N4_23 
REMARK   13  A    between atoms: C10_26  and  N5_27 
REMARK   14  A    between atoms: N9_38  and  O6_39 
ROOT
HETATM    1  C6  UNL     1       1.140  14.512  50.521  1.00  0.00     0.188 A 
HETATM    2  S1  UNL     1       1.491  15.181  52.040  1.00  0.00    -0.047 SA
HETATM    3  C7  UNL     1       2.081  16.730  51.506  1.00  0.00     0.088 A 
HETATM    4  C9  UNL     1       1.958  16.607  50.152  1.00  0.00     0.187 A 
HETATM    5  N3  UNL     1       2.233  17.419  49.074  1.00  0.00    -0.072 N 
HETATM    6  C10 UNL     1       1.913  16.766  47.932  1.00  0.00     0.713 A 
HETATM    7  N6  UNL     1       1.455  15.583  48.316  1.00  0.00    -0.120 N 
ATOM      8  H6  UNL     1       1.129  14.849  47.687  1.00  0.00     0.206 HD
HETATM    9  N7  UNL     1       1.485  15.490  49.669  1.00  0.00    -0.198 N 
ENDROOT
BRANCH   1  10
HETATM   10  N2  UNL     1       0.645  13.313  50.246  1.00  0.00    -0.165 N 
ATOM     11  H2  UNL     1      -0.290  13.181  49.861  1.00  0.00     0.186 HD
BRANCH  10  12
HETATM   12  C5  UNL     1       1.530  12.211  50.532  1.00  0.00     0.721 C 
HETATM   13  N1  UNL     1       1.176  10.951  51.083  1.00  0.00     0.023 N 
HETATM   14  N9  UNL     1       2.188  10.061  50.728  1.00  0.00    -0.035 NA
HETATM   15  C11 UNL     1       3.365  10.908  50.742  1.00  0.00     0.142 C 
HETATM   16  N8  UNL     1       2.804  12.182  50.335  1.00  0.00    -0.197 N 
HETATM   17  C12 UNL     1       3.924  10.923  52.127  1.00  0.00     0.061 C 
HETATM   18  C13 UNL     1       4.400  10.415  49.772  1.00  0.00     0.061 C 
ATOM     19  H8  UNL     1       3.346  12.953  49.944  1.00  0.00     0.180 HD
BRANCH  13  20
HETATM   20  O3  UNL     1       0.105  10.641  51.797  1.00  0.00    -0.244 OA
BRANCH  20  21
HETATM   21  C4  UNL     1       0.015  11.311  53.007  1.00  0.00     0.238 C 
BRANCH  21  22
HETATM   22  C2  UNL     1      -1.370  11.780  53.322  1.00  0.00     0.170 C 
BRANCH  22  23
HETATM   23  O1  UNL     1      -1.973  11.131  54.359  1.00  0.00    -0.386 OA
HETATM   24  C1  UNL     1      -3.354  11.204  54.365  1.00  0.00     0.202 C 
ENDBRANCH  22  23
BRANCH  22  25
HETATM   25  C3  UNL     1      -2.218  11.792  52.067  1.00  0.00     0.198 C 
BRANCH  25  26
HETATM   26  O2  UNL     1      -1.952  12.899  51.273  1.00  0.00    -0.398 OA
ATOM     27  H2  UNL     1      -1.523  12.657  50.461  1.00  0.00     0.209 HD
ENDBRANCH  25  26
ENDBRANCH  22  25
ENDBRANCH  21  22
ENDBRANCH  20  21
ENDBRANCH  13  20
BRANCH  14  28
HETATM   28  O6  UNL     1       2.247   9.084  51.658  1.00  0.00    -0.289 OA
ATOM     29  H6  UNL     1       3.126   9.059  52.016  1.00  0.00     0.239 HD
ENDBRANCH  14  28
ENDBRANCH  10  12
ENDBRANCH   1  10
BRANCH   3  30
HETATM   30  C8  UNL     1       2.543  17.818  52.420  1.00  0.00     0.299 C 
BRANCH  30  31
HETATM   31  O4  UNL     1       3.815  18.221  51.951  1.00  0.00    -0.367 OA
ATOM     32  H4  UNL     1       3.719  19.120  51.656  1.00  0.00     0.213 HD
ENDBRANCH  30  31
BRANCH  30  33
HETATM   33  O5  UNL     1       2.663  17.354  53.696  1.00  0.00    -0.367 OA
ATOM     34  H5  UNL     1       2.568  18.064  54.320  1.00  0.00     0.213 HD
ENDBRANCH  30  33
ENDBRANCH   3  30
BRANCH   5  35
HETATM   35  N4  UNL     1       2.764  18.704  49.044  1.00  0.00    -0.322 N 
ATOM     36  H42 UNL     1       3.653  18.919  49.495  1.00  0.00     0.178 HD
ATOM     37  H41 UNL     1       2.388  19.553  48.622  1.00  0.00     0.178 HD
ENDBRANCH   5  35
BRANCH   6  38
HETATM   38  N5  UNL     1       2.034  17.214  46.714  1.00  0.00    -0.231 N 
ATOM     39  H52 UNL     1       2.875  17.225  46.137  1.00  0.00     0.174 HD
ATOM     40  H51 UNL     1       1.302  17.629  46.138  1.00  0.00     0.174 HD
ENDBRANCH   6  38
TORSDOF 14
ENDMDL
MODEL 5
REMARK VINA RESULT: -6.304618539      2.847      7.700
REMARK  14 active torsions:
REMARK  status: ('A' for Active; 'I' for Inactive)
REMARK    1  A    between atoms: O1_2  and  C2_3 
REMARK    2  A    between atoms: C2_3  and  C3_4 
REMARK    3  A    between atoms: C2_3  and  C4_7 
REMARK    4  A    between atoms: C3_4  and  O2_5 
REMARK    5  A    between atoms: C4_7  and  O3_8 
REMARK    6  A    between atoms: O3_8  and  N1_9 
REMARK    7  A    between atoms: C5_10  and  N2_11 
REMARK    8  A    between atoms: N2_11  and  C6_13 
REMARK    9  A    between atoms: C7_15  and  C8_16 
REMARK   10  A    between atoms: C8_16  and  O4_17 
REMARK   11  A    between atoms: C8_16  and  O5_19 
REMARK   12  A    between atoms: N3_22  and  N4_23 
REMARK   13  A    between atoms: C10_26  and  N5_27 
REMARK   14  A    between atoms: N9_38  and  O6_39 
ROOT
HETATM    1  C6  UNL     1       1.517  15.451  51.692  1.00  0.00     0.188 A 
HETATM    2  S1  UNL     1       1.613  14.558  50.253  1.00  0.00    -0.047 SA
HETATM    3  C7  UNL     1       1.433  15.873  49.125  1.00  0.00     0.088 A 
HETATM    4  C9  UNL     1       1.308  16.934  49.974  1.00  0.00     0.187 A 
HETATM    5  N3  UNL     1       1.125  18.290  49.814  1.00  0.00    -0.072 N 
HETATM    6  C10 UNL     1       1.061  18.877  51.032  1.00  0.00     0.713 A 
HETATM    7  N6  UNL     1       1.202  17.893  51.909  1.00  0.00    -0.120 N 
ATOM      8  H6  UNL     1       1.197  18.007  52.922  1.00  0.00     0.206 HD
HETATM    9  N7  UNL     1       1.351  16.711  51.260  1.00  0.00    -0.198 N 
ENDROOT
BRANCH   1  10
HETATM   10  N2  UNL     1       1.587  15.009  52.940  1.00  0.00    -0.165 N 
ATOM     11  H2  UNL     1       2.003  15.556  53.693  1.00  0.00     0.186 HD
BRANCH  10  12
HETATM   12  C5  UNL     1       1.032  13.695  53.150  1.00  0.00     0.721 C 
HETATM   13  N1  UNL     1       1.746  12.494  53.403  1.00  0.00     0.023 N 
HETATM   14  N9  UNL     1       0.854  11.619  54.020  1.00  0.00    -0.035 NA
HETATM   15  C11 UNL     1      -0.406  11.967  53.391  1.00  0.00     0.142 C 
HETATM   16  N8  UNL     1      -0.221  13.384  53.144  1.00  0.00    -0.197 N 
HETATM   17  C12 UNL     1      -0.551  11.162  52.141  1.00  0.00     0.061 C 
HETATM   18  C13 UNL     1      -1.563  11.705  54.312  1.00  0.00     0.061 C 
ATOM     19  H8  UNL     1      -0.979  14.047  52.987  1.00  0.00     0.180 HD
BRANCH  13  20
HETATM   20  O3  UNL     1       3.011  12.220  53.124  1.00  0.00    -0.244 OA
BRANCH  20  21
HETATM   21  C4  UNL     1       3.251  11.939  51.788  1.00  0.00     0.238 C 
BRANCH  21  22
HETATM   22  C2  UNL     1       3.967  10.643  51.576  1.00  0.00     0.170 C 
BRANCH  22  23
HETATM   23  O1  UNL     1       3.210   9.528  51.789  1.00  0.00    -0.386 OA
HETATM   24  C1  UNL     1       3.869   8.493  52.426  1.00  0.00     0.202 C 
ENDBRANCH  22  23
BRANCH  22  25
HETATM   25  C3  UNL     1       5.266  10.626  52.355  1.00  0.00     0.198 C 
BRANCH  25  26
HETATM   26  O2  UNL     1       5.921  11.848  52.295  1.00  0.00    -0.398 OA
ATOM     27  H2  UNL     1       6.665  11.821  51.705  1.00  0.00     0.209 HD
ENDBRANCH  25  26
ENDBRANCH  22  25
ENDBRANCH  21  22
ENDBRANCH  20  21
ENDBRANCH  13  20
BRANCH  14  28
HETATM   28  O6  UNL     1       1.233  10.353  53.747  1.00  0.00    -0.289 OA
ATOM     29  H6  UNL     1       0.522   9.915  53.295  1.00  0.00     0.239 HD
ENDBRANCH  14  28
ENDBRANCH  10  12
ENDBRANCH   1  10
BRANCH   3  30
HETATM   30  C8  UNL     1       1.458  15.719  47.638  1.00  0.00     0.299 C 
BRANCH  30  31
HETATM   31  O4  UNL     1       2.531  16.515  47.173  1.00  0.00    -0.367 OA
ATOM     32  H4  UNL     1       3.299  15.955  47.171  1.00  0.00     0.213 HD
ENDBRANCH  30  31
BRANCH  30  33
HETATM   33  O5  UNL     1       0.295  16.170  47.090  1.00  0.00    -0.367 OA
ATOM     34  H5  UNL     1       0.466  16.874  46.476  1.00  0.00     0.213 HD
ENDBRANCH  30  33
ENDBRANCH   3  30
BRANCH   5  35
HETATM   35  N4  UNL     1       1.000  19.036  48.648  1.00  0.00    -0.322 N 
ATOM     36  H42 UNL     1       1.534  18.802  47.811  1.00  0.00     0.178 HD
ATOM     37  H41 UNL     1       0.425  19.857  48.459  1.00  0.00     0.178 HD
ENDBRANCH   5  35
BRANCH   6  38
HETATM   38  N5  UNL     1       0.895  20.145  51.282  1.00  0.00    -0.231 N 
ATOM     39  H52 UNL     1       0.013  20.650  51.376  1.00  0.00     0.174 HD
ATOM     40  H51 UNL     1       1.625  20.843  51.424  1.00  0.00     0.174 HD
ENDBRANCH   6  38
TORSDOF 14
ENDMDL
