MODEL 1
REMARK VINA RESULT: -7.498897962      0.000      0.000
REMARK  8 active torsions:
REMARK  status: ('A' for Active; 'I' for Inactive)
REMARK    1  A    between atoms: C4_8  and  N3_9 
REMARK    2  A    between atoms: N3_9  and  C5_11 
REMARK    3  A    between atoms: N8_24  and  C8_25 
REMARK    4  A    between atoms: C8_25  and  N9_26 
REMARK    5  A    between atoms: N9_26  and  C9_28 
REMARK    6  A    between atoms: C10_31  and  N11_32 
REMARK    7  A    between atoms: C11_37  and  C12_38 
REMARK    8  A    between atoms: C12_38  and  N13_39 
ROOT
HETATM    1  C1  UNL     1       2.863  17.880  51.067  1.00  0.00     0.090 C 
HETATM    2  C2  UNL     1       2.584  16.444  51.406  1.00  0.00     0.093 A 
HETATM    3  N1  UNL     1       1.713  16.175  52.406  1.00  0.00    -0.328 N 
ATOM      4  H1  UNL     1       1.252  16.924  52.923  1.00  0.00     0.169 HD
HETATM    5  C3  UNL     1       1.479  14.892  52.692  1.00  0.00     0.169 A 
HETATM    6  N2  UNL     1       0.695  14.234  53.596  1.00  0.00    -0.172 N 
ATOM      7  H2  UNL     1       0.083  14.666  54.289  1.00  0.00     0.186 HD
HETATM    8  C4  UNL     1       0.877  12.915  53.408  1.00  0.00     0.687 A 
HETATM    9  N7  UNL     1       1.766  12.698  52.394  1.00  0.00    -0.171 N 
ATOM     10  H7  UNL     1       2.070  11.784  52.059  1.00  0.00     0.186 HD
HETATM   11  C7  UNL     1       2.174  13.878  51.911  1.00  0.00     0.184 A 
HETATM   12  N8  UNL     1       3.047  14.196  50.909  1.00  0.00    -0.253 N 
HETATM   13  N18 UNL     1       3.206  15.482  50.709  1.00  0.00    -0.284 N 
ATOM     14  H18 UNL     1       3.849  15.770  49.971  1.00  0.00     0.188 HD
ENDROOT
BRANCH  12  15
HETATM   15  C8  UNL     1       3.669  13.121  50.182  1.00  0.00     0.290 C 
BRANCH  15  16
HETATM   16  N9  UNL     1       5.007  12.896  50.637  1.00  0.00    -0.208 N 
ATOM     17  H9  UNL     1       5.707  13.600  50.404  1.00  0.00     0.179 HD
BRANCH  16  18
HETATM   18  C9  UNL     1       5.434  11.780  51.382  1.00  0.00     0.695 A 
HETATM   19  N10 UNL     1       6.595  11.815  52.056  1.00  0.00    -0.023 N 
HETATM   20  C10 UNL     1       6.978  10.751  52.753  1.00  0.00     0.691 A 
ATOM     21  H10 UNL     1       7.178  12.652  52.034  1.00  0.00     0.203 HD
HETATM   22  N12 UNL     1       6.214   9.656  52.780  1.00  0.00    -0.178 N 
HETATM   23  C11 UNL     1       5.045   9.572  52.123  1.00  0.00     0.134 A 
ATOM     24  H12 UNL     1       6.530   8.851  53.320  1.00  0.00     0.185 HD
HETATM   25  N17 UNL     1       4.665  10.646  51.425  1.00  0.00    -0.178 N 
ATOM     26  H17 UNL     1       3.784  10.621  50.913  1.00  0.00     0.185 HD
BRANCH  20  27
HETATM   27  N11 UNL     1       8.104  10.793  53.403  1.00  0.00    -0.234 N 
ATOM     28 2H11 UNL     1       8.554  11.684  53.610  1.00  0.00     0.174 HD
ATOM     29 1H11 UNL     1       8.534   9.919  53.706  1.00  0.00     0.174 HD
ENDBRANCH  20  27
BRANCH  23  30
HETATM   30  C12 UNL     1       4.266   8.334  52.205  1.00  0.00     0.241 C 
BRANCH  30  31
HETATM   31  N13 UNL     1       2.943   8.538  52.767  1.00  0.00    -0.199 N 
HETATM   32  N14 UNL     1       1.943   7.742  53.135  1.00  0.00     0.005 NA
HETATM   33  N15 UNL     1       1.225   8.791  53.498  1.00  0.00     0.007 NA
HETATM   34  N16 UNL     1       2.223   9.587  53.133  1.00  0.00     0.005 NA
ENDBRANCH  30  31
ENDBRANCH  23  30
ENDBRANCH  16  18
ENDBRANCH  15  16
ENDBRANCH  12  15
BRANCH   8  35
HETATM   35  N3  UNL     1       0.286  11.825  54.101  1.00  0.00    -0.171 N 
ATOM     36  H3  UNL     1       0.859  11.274  54.739  1.00  0.00     0.186 HD
BRANCH  35  37
HETATM   37  C5  UNL     1      -0.976  11.509  53.942  1.00  0.00     0.188 A 
HETATM   38  N4  UNL     1      -1.985  11.848  54.764  1.00  0.00    -0.221 N 
HETATM   39  O1  UNL     1      -3.090  11.362  54.288  1.00  0.00    -0.153 OA
ATOM     40  H4  UNL     1      -1.896  12.396  55.620  1.00  0.00     0.198 HD
HETATM   41  N5  UNL     1      -2.878  10.715  53.189  1.00  0.00    -0.222 N 
HETATM   42  C6  UNL     1      -1.553  10.779  52.926  1.00  0.00     0.168 A 
ATOM     43  H5  UNL     1      -3.582  10.241  52.623  1.00  0.00     0.198 HD
HETATM   44  N6  UNL     1      -0.949  10.255  51.919  1.00  0.00    -0.381 N 
ATOM     45  H62 UNL     1       0.051  10.304  51.720  1.00  0.00     0.157 HD
ATOM     46  H61 UNL     1      -1.376   9.714  51.167  1.00  0.00     0.157 HD
ENDBRANCH  35  37
ENDBRANCH   8  35
TORSDOF 8
ENDMDL
MODEL 2
REMARK VINA RESULT: -7.428962246      4.454      7.416
REMARK  8 active torsions:
REMARK  status: ('A' for Active; 'I' for Inactive)
REMARK    1  A    between atoms: C4_8  and  N3_9 
REMARK    2  A    between atoms: N3_9  and  C5_11 
REMARK    3  A    between atoms: N8_24  and  C8_25 
REMARK    4  A    between atoms: C8_25  and  N9_26 
REMARK    5  A    between atoms: N9_26  and  C9_28 
REMARK    6  A    between atoms: C10_31  and  N11_32 
REMARK    7  A    between atoms: C11_37  and  C12_38 
REMARK    8  A    between atoms: C12_38  and  N13_39 
ROOT
HETATM    1  C1  UNL     1      -4.165  10.710  46.159  1.00  0.00     0.090 C 
HETATM    2  C2  UNL     1      -4.262  10.329  47.608  1.00  0.00     0.093 A 
HETATM    3  N1  UNL     1      -5.369  10.693  48.297  1.00  0.00    -0.328 N 
ATOM      4  H1  UNL     1      -6.124  11.212  47.850  1.00  0.00     0.169 HD
HETATM    5  C3  UNL     1      -5.435  10.345  49.585  1.00  0.00     0.169 A 
HETATM    6  N2  UNL     1      -6.351  10.518  50.582  1.00  0.00    -0.172 N 
ATOM      7  H2  UNL     1      -7.246  11.001  50.501  1.00  0.00     0.186 HD
HETATM    8  C4  UNL     1      -5.858   9.937  51.691  1.00  0.00     0.687 A 
HETATM    9  N7  UNL     1      -4.636   9.386  51.435  1.00  0.00    -0.171 N 
ATOM     10  H7  UNL     1      -4.057   8.888  52.112  1.00  0.00     0.186 HD
HETATM   11  C7  UNL     1      -4.318   9.604  50.153  1.00  0.00     0.184 A 
HETATM   12  N8  UNL     1      -3.219   9.258  49.419  1.00  0.00    -0.253 N 
HETATM   13  N18 UNL     1      -3.252   9.646  48.167  1.00  0.00    -0.284 N 
ATOM     14  H18 UNL     1      -2.453   9.412  47.577  1.00  0.00     0.188 HD
ENDROOT
BRANCH  12  15
HETATM   15  C8  UNL     1      -2.176   8.507  50.067  1.00  0.00     0.290 C 
BRANCH  15  16
HETATM   16  N9  UNL     1      -1.025   9.323  50.306  1.00  0.00    -0.208 N 
ATOM     17  H9  UNL     1      -0.523   9.677  49.492  1.00  0.00     0.179 HD
BRANCH  16  18
HETATM   18  C9  UNL     1      -0.530   9.677  51.576  1.00  0.00     0.695 A 
HETATM   19  N10 UNL     1       0.612   9.140  52.036  1.00  0.00    -0.023 N 
HETATM   20  C10 UNL     1       1.061   9.488  53.236  1.00  0.00     0.691 A 
ATOM     21  H10 UNL     1       1.131   8.471  51.467  1.00  0.00     0.203 HD
HETATM   22  N12 UNL     1       0.379  10.364  53.980  1.00  0.00    -0.178 N 
HETATM   23  C11 UNL     1      -0.767  10.928  53.565  1.00  0.00     0.134 A 
ATOM     24  H12 UNL     1       0.743  10.614  54.899  1.00  0.00     0.185 HD
HETATM   25  N17 UNL     1      -1.213  10.574  52.356  1.00  0.00    -0.178 N 
ATOM     26  H17 UNL     1      -2.079  10.981  52.006  1.00  0.00     0.185 HD
BRANCH  20  27
HETATM   27  N11 UNL     1       2.168   8.964  53.674  1.00  0.00    -0.234 N 
ATOM     28 2H11 UNL     1       3.069   9.257  53.296  1.00  0.00     0.174 HD
ATOM     29 1H11 UNL     1       2.125   8.253  54.403  1.00  0.00     0.174 HD
ENDBRANCH  20  27
BRANCH  23  30
HETATM   30  C12 UNL     1      -1.454  11.881  54.440  1.00  0.00     0.241 C 
BRANCH  30  31
HETATM   31  N13 UNL     1      -2.784  11.439  54.818  1.00  0.00    -0.199 N 
HETATM   32  N14 UNL     1      -3.614  11.704  55.823  1.00  0.00     0.005 NA
HETATM   33  N15 UNL     1      -4.510  10.874  55.318  1.00  0.00     0.007 NA
HETATM   34  N16 UNL     1      -3.683  10.610  54.313  1.00  0.00     0.005 NA
ENDBRANCH  30  31
ENDBRANCH  23  30
ENDBRANCH  16  18
ENDBRANCH  15  16
ENDBRANCH  12  15
BRANCH   8  35
HETATM   35  N3  UNL     1      -6.437   9.852  52.985  1.00  0.00    -0.171 N 
ATOM     36  H3  UNL     1      -6.395  10.663  53.602  1.00  0.00     0.186 HD
BRANCH  35  37
HETATM   37  C5  UNL     1      -7.022   8.758  53.408  1.00  0.00     0.188 A 
HETATM   38  N4  UNL     1      -8.013   8.100  52.780  1.00  0.00    -0.221 N 
HETATM   39  O1  UNL     1      -8.340   7.065  53.493  1.00  0.00    -0.153 OA
ATOM     40  H4  UNL     1      -8.436   8.368  51.892  1.00  0.00     0.198 HD
HETATM   41  N5  UNL     1      -7.623   6.993  54.566  1.00  0.00    -0.222 N 
HETATM   42  C6  UNL     1      -6.771   8.044  54.559  1.00  0.00     0.168 A 
ATOM     43  H5  UNL     1      -7.687   6.275  55.287  1.00  0.00     0.198 HD
HETATM   44  N6  UNL     1      -5.895   8.321  55.458  1.00  0.00    -0.381 N 
ATOM     45  H62 UNL     1      -5.252   9.113  55.453  1.00  0.00     0.157 HD
ATOM     46  H61 UNL     1      -5.709   7.793  56.310  1.00  0.00     0.157 HD
ENDBRANCH  35  37
ENDBRANCH   8  35
TORSDOF 8
ENDMDL
MODEL 3
REMARK VINA RESULT: -7.077543281      3.677      8.408
REMARK  8 active torsions:
REMARK  status: ('A' for Active; 'I' for Inactive)
REMARK    1  A    between atoms: C4_8  and  N3_9 
REMARK    2  A    between atoms: N3_9  and  C5_11 
REMARK    3  A    between atoms: N8_24  and  C8_25 
REMARK    4  A    between atoms: C8_25  and  N9_26 
REMARK    5  A    between atoms: N9_26  and  C9_28 
REMARK    6  A    between atoms: C10_31  and  N11_32 
REMARK    7  A    between atoms: C11_37  and  C12_38 
REMARK    8  A    between atoms: C12_38  and  N13_39 
ROOT
HETATM    1  C1  UNL     1       1.065   9.246  53.936  1.00  0.00     0.090 C 
HETATM    2  C2  UNL     1       0.667  10.537  53.281  1.00  0.00     0.093 A 
HETATM    3  N1  UNL     1       1.403  11.644  53.539  1.00  0.00    -0.328 N 
ATOM      4  H1  UNL     1       2.210  11.610  54.162  1.00  0.00     0.169 HD
HETATM    5  C3  UNL     1       1.032  12.782  52.947  1.00  0.00     0.169 A 
HETATM    6  N2  UNL     1       1.499  14.065  52.951  1.00  0.00    -0.172 N 
ATOM      7  H2  UNL     1       2.306  14.411  53.470  1.00  0.00     0.186 HD
HETATM    8  C4  UNL     1       0.701  14.790  52.147  1.00  0.00     0.687 A 
HETATM    9  N7  UNL     1      -0.280  14.003  51.615  1.00  0.00    -0.171 N 
ATOM     10  H7  UNL     1      -1.009  14.316  50.975  1.00  0.00     0.186 HD
HETATM   11  C7  UNL     1      -0.130  12.753  52.071  1.00  0.00     0.184 A 
HETATM   12  N8  UNL     1      -0.844  11.611  51.839  1.00  0.00    -0.253 N 
HETATM   13  N18 UNL     1      -0.399  10.549  52.467  1.00  0.00    -0.284 N 
ATOM     14  H18 UNL     1      -0.899   9.671  52.327  1.00  0.00     0.188 HD
ENDROOT
BRANCH  12  15
HETATM   15  C8  UNL     1      -1.966  11.680  50.940  1.00  0.00     0.290 C 
BRANCH  15  16
HETATM   16  N9  UNL     1      -3.182  11.934  51.652  1.00  0.00    -0.208 N 
ATOM     17  H9  UNL     1      -3.494  12.902  51.716  1.00  0.00     0.179 HD
BRANCH  16  18
HETATM   18  C9  UNL     1      -3.981  10.952  52.269  1.00  0.00     0.695 A 
HETATM   19  N10 UNL     1      -4.150  10.952  53.602  1.00  0.00    -0.023 N 
HETATM   20  C10 UNL     1      -4.908  10.017  54.164  1.00  0.00     0.691 A 
ATOM     21  H10 UNL     1      -3.699  11.663  54.178  1.00  0.00     0.203 HD
HETATM   22  N12 UNL     1      -5.496   9.086  53.407  1.00  0.00    -0.178 N 
HETATM   23  C11 UNL     1      -5.359   9.045  52.072  1.00  0.00     0.134 A 
ATOM     24  H12 UNL     1      -6.072   8.378  53.862  1.00  0.00     0.185 HD
HETATM   25  N17 UNL     1      -4.595   9.988  51.513  1.00  0.00    -0.178 N 
ATOM     26  H17 UNL     1      -4.466   9.990  50.502  1.00  0.00     0.185 HD
BRANCH  20  27
HETATM   27  N11 UNL     1      -5.066  10.023  55.454  1.00  0.00    -0.234 N 
ATOM     28 2H11 UNL     1      -4.260  10.038  56.079  1.00  0.00     0.174 HD
ATOM     29 1H11 UNL     1      -6.011  10.013  55.838  1.00  0.00     0.174 HD
ENDBRANCH  20  27
BRANCH  23  30
HETATM   30  C12 UNL     1      -6.038   7.990  51.315  1.00  0.00     0.241 C 
BRANCH  30  31
HETATM   31  N13 UNL     1      -7.442   7.865  51.660  1.00  0.00    -0.199 N 
HETATM   32  N14 UNL     1      -8.214   8.316  52.644  1.00  0.00     0.005 NA
HETATM   33  N15 UNL     1      -9.263   7.710  52.116  1.00  0.00     0.007 NA
HETATM   34  N16 UNL     1      -8.494   7.259  51.132  1.00  0.00     0.005 NA
ENDBRANCH  30  31
ENDBRANCH  23  30
ENDBRANCH  16  18
ENDBRANCH  15  16
ENDBRANCH  12  15
BRANCH   8  35
HETATM   35  N3  UNL     1       0.774  16.172  51.828  1.00  0.00    -0.171 N 
ATOM     36  H3  UNL     1      -0.090  16.698  51.697  1.00  0.00     0.186 HD
BRANCH  35  37
HETATM   37  C5  UNL     1       1.923  16.790  51.696  1.00  0.00     0.188 A 
HETATM   38  N4  UNL     1       2.572  17.463  52.662  1.00  0.00    -0.221 N 
HETATM   39  O1  UNL     1       3.674  17.940  52.167  1.00  0.00    -0.153 OA
ATOM     40  H4  UNL     1       2.253  17.580  53.623  1.00  0.00     0.198 HD
HETATM   41  N5  UNL     1       3.799  17.622  50.920  1.00  0.00    -0.222 N 
HETATM   42  C6  UNL     1       2.714  16.892  50.574  1.00  0.00     0.168 A 
ATOM     43  H5  UNL     1       4.575  17.876  50.308  1.00  0.00     0.198 HD
HETATM   44  N6  UNL     1       2.471  16.391  49.414  1.00  0.00    -0.381 N 
ATOM     45  H62 UNL     1       1.654  15.839  49.153  1.00  0.00     0.157 HD
ATOM     46  H61 UNL     1       3.057  16.466  48.584  1.00  0.00     0.157 HD
ENDBRANCH  35  37
ENDBRANCH   8  35
TORSDOF 8
ENDMDL
MODEL 4
REMARK VINA RESULT: -7.048775161      2.455      6.818
REMARK  8 active torsions:
REMARK  status: ('A' for Active; 'I' for Inactive)
REMARK    1  A    between atoms: C4_8  and  N3_9 
REMARK    2  A    between atoms: N3_9  and  C5_11 
REMARK    3  A    between atoms: N8_24  and  C8_25 
REMARK    4  A    between atoms: C8_25  and  N9_26 
REMARK    5  A    between atoms: N9_26  and  C9_28 
REMARK    6  A    between atoms: C10_31  and  N11_32 
REMARK    7  A    between atoms: C11_37  and  C12_38 
REMARK    8  A    between atoms: C12_38  and  N13_39 
ROOT
HETATM    1  C1  UNL     1       3.959  10.396  51.858  1.00  0.00     0.090 C 
HETATM    2  C2  UNL     1       2.679  10.959  52.402  1.00  0.00     0.093 A 
HETATM    3  N1  UNL     1       1.629  10.122  52.578  1.00  0.00    -0.328 N 
ATOM      4  H1  UNL     1       1.699   9.131  52.349  1.00  0.00     0.169 HD
HETATM    5  C3  UNL     1       0.499  10.644  53.062  1.00  0.00     0.169 A 
HETATM    6  N2  UNL     1      -0.735  10.147  53.371  1.00  0.00    -0.172 N 
ATOM      7  H2  UNL     1      -1.036   9.178  53.271  1.00  0.00     0.186 HD
HETATM    8  C4  UNL     1      -1.479  11.168  53.831  1.00  0.00     0.687 A 
HETATM    9  N7  UNL     1      -0.754  12.325  53.829  1.00  0.00    -0.171 N 
ATOM     10  H7  UNL     1      -1.093  13.237  54.132  1.00  0.00     0.186 HD
HETATM   11  C7  UNL     1       0.476  12.067  53.366  1.00  0.00     0.184 A 
HETATM   12  N8  UNL     1       1.560  12.876  53.172  1.00  0.00    -0.253 N 
HETATM   13  N18 UNL     1       2.619  12.268  52.693  1.00  0.00    -0.284 N 
ATOM     14  H18 UNL     1       3.455  12.829  52.531  1.00  0.00     0.188 HD
ENDROOT
BRANCH  12  15
HETATM   15  C8  UNL     1       1.444  14.267  53.522  1.00  0.00     0.290 C 
BRANCH  15  16
HETATM   16  N9  UNL     1       0.757  14.999  52.502  1.00  0.00    -0.208 N 
ATOM     17  H9  UNL     1      -0.262  14.972  52.510  1.00  0.00     0.179 HD
BRANCH  16  18
HETATM   18  C9  UNL     1       1.377  15.755  51.488  1.00  0.00     0.695 A 
HETATM   19  N10 UNL     1       2.130  15.152  50.554  1.00  0.00    -0.023 N 
HETATM   20  C10 UNL     1       2.705  15.884  49.606  1.00  0.00     0.691 A 
ATOM     21  H10 UNL     1       2.259  14.140  50.571  1.00  0.00     0.203 HD
HETATM   22  N12 UNL     1       2.535  17.209  49.586  1.00  0.00    -0.178 N 
HETATM   23  C11 UNL     1       1.792  17.858  50.497  1.00  0.00     0.134 A 
ATOM     24  H12 UNL     1       2.988  17.750  48.849  1.00  0.00     0.185 HD
HETATM   25  N17 UNL     1       1.216  17.116  51.447  1.00  0.00    -0.178 N 
ATOM     26  H17 UNL     1       0.643  17.572  52.157  1.00  0.00     0.185 HD
BRANCH  20  27
HETATM   27  N11 UNL     1       3.432  15.293  48.705  1.00  0.00    -0.234 N 
ATOM     28 2H11 UNL     1       4.302  14.825  48.961  1.00  0.00     0.174 HD
ATOM     29 1H11 UNL     1       3.122  15.301  47.733  1.00  0.00     0.174 HD
ENDBRANCH  20  27
BRANCH  23  30
HETATM   30  C12 UNL     1       1.655  19.313  50.404  1.00  0.00     0.241 C 
BRANCH  30  31
HETATM   31  N13 UNL     1       0.395  19.796  50.941  1.00  0.00    -0.199 N 
HETATM   32  N14 UNL     1      -0.756  19.231  51.294  1.00  0.00     0.005 NA
HETATM   33  N15 UNL     1      -1.243  20.410  51.639  1.00  0.00     0.007 NA
HETATM   34  N16 UNL     1      -0.094  20.975  51.288  1.00  0.00     0.005 NA
ENDBRANCH  30  31
ENDBRANCH  23  30
ENDBRANCH  16  18
ENDBRANCH  15  16
ENDBRANCH  12  15
BRANCH   8  35
HETATM   35  N3  UNL     1      -2.828  11.158  54.277  1.00  0.00    -0.171 N 
ATOM     36  H3  UNL     1      -3.042  11.485  55.219  1.00  0.00     0.186 HD
BRANCH  35  37
HETATM   37  C5  UNL     1      -3.805  10.740  53.509  1.00  0.00     0.188 A 
HETATM   38  N4  UNL     1      -3.896  10.920  52.180  1.00  0.00    -0.221 N 
HETATM   39  O1  UNL     1      -4.996  10.371  51.761  1.00  0.00    -0.153 OA
ATOM     40  H4  UNL     1      -3.215  11.406  51.597  1.00  0.00     0.198 HD
HETATM   41  N5  UNL     1      -5.648   9.832  52.739  1.00  0.00    -0.222 N 
HETATM   42  C6  UNL     1      -4.934  10.038  53.869  1.00  0.00     0.168 A 
ATOM     43  H5  UNL     1      -6.539   9.340  52.670  1.00  0.00     0.198 HD
HETATM   44  N6  UNL     1      -5.253   9.652  55.054  1.00  0.00    -0.381 N 
ATOM     45  H62 UNL     1      -4.715   9.807  55.906  1.00  0.00     0.157 HD
ATOM     46  H61 UNL     1      -6.089   9.133  55.320  1.00  0.00     0.157 HD
ENDBRANCH  35  37
ENDBRANCH   8  35
TORSDOF 8
ENDMDL
MODEL 5
REMARK VINA RESULT: -7.043771953      3.320      6.989
REMARK  8 active torsions:
REMARK  status: ('A' for Active; 'I' for Inactive)
REMARK    1  A    between atoms: C4_8  and  N3_9 
REMARK    2  A    between atoms: N3_9  and  C5_11 
REMARK    3  A    between atoms: N8_24  and  C8_25 
REMARK    4  A    between atoms: C8_25  and  N9_26 
REMARK    5  A    between atoms: N9_26  and  C9_28 
REMARK    6  A    between atoms: C10_31  and  N11_32 
REMARK    7  A    between atoms: C11_37  and  C12_38 
REMARK    8  A    between atoms: C12_38  and  N13_39 
ROOT
HETATM    1  C1  UNL     1      -0.505  14.965  45.832  1.00  0.00     0.090 C 
HETATM    2  C2  UNL     1      -0.180  14.574  47.244  1.00  0.00     0.093 A 
HETATM    3  N1  UNL     1      -1.190  14.176  48.052  1.00  0.00    -0.328 N 
ATOM      4  H1  UNL     1      -2.153  14.139  47.718  1.00  0.00     0.169 HD
HETATM    5  C3  UNL     1      -0.878  13.833  49.305  1.00  0.00     0.169 A 
HETATM    6  N2  UNL     1      -1.587  13.393  50.386  1.00  0.00    -0.172 N 
ATOM      7  H2  UNL     1      -2.594  13.235  50.423  1.00  0.00     0.186 HD
HETATM    8  C4  UNL     1      -0.715  13.208  51.394  1.00  0.00     0.687 A 
HETATM    9  N7  UNL     1       0.552  13.518  50.990  1.00  0.00    -0.171 N 
ATOM     10  H7  UNL     1       1.389  13.459  51.569  1.00  0.00     0.186 HD
HETATM   11  C7  UNL     1       0.518  13.910  49.710  1.00  0.00     0.184 A 
HETATM   12  N8  UNL     1       1.506  14.318  48.859  1.00  0.00    -0.253 N 
HETATM   13  N18 UNL     1       1.097  14.632  47.654  1.00  0.00    -0.284 N 
ATOM     14  H18 UNL     1       1.798  14.944  46.982  1.00  0.00     0.188 HD
ENDROOT
BRANCH  12  15
HETATM   15  C8  UNL     1       2.860  14.341  49.349  1.00  0.00     0.290 C 
BRANCH  15  16
HETATM   16  N9  UNL     1       3.340  15.684  49.475  1.00  0.00    -0.208 N 
ATOM     17  H9  UNL     1       4.173  15.936  48.944  1.00  0.00     0.179 HD
BRANCH  16  18
HETATM   18  C9  UNL     1       2.752  16.684  50.273  1.00  0.00     0.695 A 
HETATM   19  N10 UNL     1       2.862  16.640  51.611  1.00  0.00    -0.023 N 
HETATM   20  C10 UNL     1       2.301  17.595  52.344  1.00  0.00     0.691 A 
ATOM     21  H10 UNL     1       3.373  15.880  52.060  1.00  0.00     0.203 HD
HETATM   22  N12 UNL     1       1.633  18.589  51.754  1.00  0.00    -0.178 N 
HETATM   23  C11 UNL     1       1.495  18.678  50.421  1.00  0.00     0.134 A 
ATOM     24  H12 UNL     1       1.209  19.309  52.338  1.00  0.00     0.185 HD
HETATM   25  N17 UNL     1       2.062  17.715  49.688  1.00  0.00    -0.178 N 
ATOM     26  H17 UNL     1       1.980  17.748  48.673  1.00  0.00     0.185 HD
BRANCH  20  27
HETATM   27  N11 UNL     1       2.412  17.544  53.639  1.00  0.00    -0.234 N 
ATOM     28 2H11 UNL     1       3.324  17.627  54.088  1.00  0.00     0.174 HD
ATOM     29 1H11 UNL     1       1.572  17.422  54.204  1.00  0.00     0.174 HD
ENDBRANCH  20  27
BRANCH  23  30
HETATM   30  C12 UNL     1       0.746  19.801  49.851  1.00  0.00     0.241 C 
BRANCH  30  31
HETATM   31  N13 UNL     1      -0.290  20.295  50.740  1.00  0.00    -0.199 N 
HETATM   32  N14 UNL     1      -0.683  21.497  51.153  1.00  0.00     0.005 NA
HETATM   33  N15 UNL     1      -1.631  20.947  51.891  1.00  0.00     0.007 NA
HETATM   34  N16 UNL     1      -1.241  19.746  51.479  1.00  0.00     0.005 NA
ENDBRANCH  30  31
ENDBRANCH  23  30
ENDBRANCH  16  18
ENDBRANCH  15  16
ENDBRANCH  12  15
BRANCH   8  35
HETATM   35  N3  UNL     1      -0.966  12.762  52.719  1.00  0.00    -0.171 N 
ATOM     36  H3  UNL     1      -1.595  13.301  53.314  1.00  0.00     0.186 HD
BRANCH  35  37
HETATM   37  C5  UNL     1      -0.409  11.676  53.198  1.00  0.00     0.188 A 
HETATM   38  N4  UNL     1      -0.905  10.429  53.108  1.00  0.00    -0.221 N 
HETATM   39  O1  UNL     1      -0.083   9.613  53.695  1.00  0.00    -0.153 OA
ATOM     40  H4  UNL     1      -1.780  10.168  52.654  1.00  0.00     0.198 HD
HETATM   41  N5  UNL     1       0.937  10.245  54.174  1.00  0.00    -0.222 N 
HETATM   42  C6  UNL     1       0.779  11.556  53.885  1.00  0.00     0.168 A 
ATOM     43  H5  UNL     1       1.720   9.829  54.679  1.00  0.00     0.198 HD
HETATM   44  N6  UNL     1       1.586  12.508  54.195  1.00  0.00    -0.381 N 
ATOM     45  H62 UNL     1       1.467  13.498  53.976  1.00  0.00     0.157 HD
ATOM     46  H61 UNL     1       2.465  12.420  54.704  1.00  0.00     0.157 HD
ENDBRANCH  35  37
ENDBRANCH   8  35
TORSDOF 8
ENDMDL
