MODEL 1
REMARK VINA RESULT: -7.850171762      0.000      0.000
REMARK  4 active torsions:
REMARK  status: ('A' for Active; 'I' for Inactive)
REMARK    1  A    between atoms: C4_5  and  N2_6 
REMARK    2  A    between atoms: N2_6  and  C5_8 
REMARK    3  A    between atoms: C6_11  and  N4_12 
REMARK    4  A    between atoms: C11_20  and  N6_21 
ROOT
HETATM    1  C5  UNL     1      -4.113   2.901  12.083  1.00  0.00     0.711 A 
HETATM    2  N3  UNL     1      -4.362   2.428  13.317  1.00  0.00    -0.021 N 
ATOM      3  H3  UNL     1      -3.924   1.555  13.609  1.00  0.00     0.203 HD
HETATM    4  C6  UNL     1      -5.167   3.070  14.172  1.00  0.00     0.709 A 
HETATM    5  N5  UNL     1      -5.736   4.220  13.778  1.00  0.00    -0.021 N 
ATOM      6  H5  UNL     1      -6.350   4.716  14.424  1.00  0.00     0.203 HD
HETATM    7  C11 UNL     1      -5.519   4.739  12.546  1.00  0.00     0.710 A 
HETATM    8  N8  UNL     1      -4.705   4.055  11.730  1.00  0.00    -0.021 N 
ATOM      9  H8  UNL     1      -4.527   4.427  10.798  1.00  0.00     0.203 HD
ENDROOT
BRANCH   1  10
HETATM   10  N2  UNL     1      -3.332   2.263  11.279  1.00  0.00    -0.191 N 
ATOM     11  H2  UNL     1      -2.703   2.780  10.665  1.00  0.00     0.184 HD
BRANCH  10  12
HETATM   12  C4  UNL     1      -3.344   0.842  11.244  1.00  0.00     0.051 A 
HETATM   13  C3  UNL     1      -4.506   0.109  11.212  1.00  0.00     0.047 A 
HETATM   14  C2  UNL     1      -4.416  -1.266  11.179  1.00  0.00     0.092 A 
HETATM   15  N1  UNL     1      -3.202  -1.897  11.178  1.00  0.00    -0.371 N 
HETATM   16  C1  UNL     1      -3.142  -3.328  11.144  1.00  0.00     0.154 C 
HETATM   17  C16 UNL     1      -2.058  -1.191  11.208  1.00  0.00     0.092 A 
HETATM   18  C15 UNL     1      -2.119   0.178  11.242  1.00  0.00     0.047 A 
ENDBRANCH  10  12
ENDBRANCH   1  10
BRANCH   4  19
HETATM   19  N4  UNL     1      -5.380   2.506  15.455  1.00  0.00    -0.213 N 
HETATM   20  C7  UNL     1      -6.610   2.761  16.167  1.00  0.00     0.167 C 
HETATM   21  C8  UNL     1      -6.937   1.638  17.125  1.00  0.00     0.188 C 
HETATM   22  O1  UNL     1      -6.392   0.440  16.775  1.00  0.00    -0.388 OA
HETATM   23  C9  UNL     1      -5.063   0.399  16.513  1.00  0.00     0.188 C 
HETATM   24  C10 UNL     1      -4.403   1.663  16.107  1.00  0.00     0.167 C 
ENDBRANCH   4  19
BRANCH   7  25
HETATM   25  N6  UNL     1      -6.139   5.970  12.147  1.00  0.00    -0.191 N 
HETATM   26  C12 UNL     1      -7.239   6.571  12.876  1.00  0.00     0.170 C 
HETATM   27  C13 UNL     1      -7.547   7.833  12.138  1.00  0.00     0.254 C 
HETATM   28  N7  UNL     1      -7.089   7.531  10.794  1.00  0.00    -0.057 N 
HETATM   29  C14 UNL     1      -5.850   6.822  11.042  1.00  0.00     0.374 C 
ATOM     30  H72 UNL     1      -7.761   7.031  10.212  1.00  0.00     0.279 HD
ATOM     31  H71 UNL     1      -7.006   8.338  10.176  1.00  0.00     0.279 HD
ENDBRANCH   7  25
TORSDOF 4
ENDMDL
MODEL 2
REMARK VINA RESULT: -7.533082424      2.298      2.912
REMARK  4 active torsions:
REMARK  status: ('A' for Active; 'I' for Inactive)
REMARK    1  A    between atoms: C4_5  and  N2_6 
REMARK    2  A    between atoms: N2_6  and  C5_8 
REMARK    3  A    between atoms: C6_11  and  N4_12 
REMARK    4  A    between atoms: C11_20  and  N6_21 
ROOT
HETATM    1  C5  UNL     1      -3.814   2.814  12.422  1.00  0.00     0.711 A 
HETATM    2  N3  UNL     1      -4.402   2.332  13.531  1.00  0.00    -0.021 N 
ATOM      3  H3  UNL     1      -4.905   1.446  13.479  1.00  0.00     0.203 HD
HETATM    4  C6  UNL     1      -4.347   2.980  14.701  1.00  0.00     0.709 A 
HETATM    5  N5  UNL     1      -3.681   4.144  14.758  1.00  0.00    -0.021 N 
ATOM      6  H5  UNL     1      -3.633   4.644  15.645  1.00  0.00     0.203 HD
HETATM    7  C11 UNL     1      -3.071   4.673  13.670  1.00  0.00     0.710 A 
HETATM    8  N8  UNL     1      -3.159   3.982  12.526  1.00  0.00    -0.021 N 
ATOM      9  H8  UNL     1      -2.707   4.361  11.694  1.00  0.00     0.203 HD
ENDROOT
BRANCH   1  10
HETATM   10  N2  UNL     1      -3.882   2.168  11.307  1.00  0.00    -0.191 N 
ATOM     11  H2  UNL     1      -4.147   2.657  10.453  1.00  0.00     0.184 HD
BRANCH  10  12
HETATM   12  C4  UNL     1      -3.588   0.777  11.264  1.00  0.00     0.051 A 
HETATM   13  C3  UNL     1      -2.308   0.286  11.346  1.00  0.00     0.047 A 
HETATM   14  C2  UNL     1      -2.123  -1.078  11.295  1.00  0.00     0.092 A 
HETATM   15  N1  UNL     1      -3.182  -1.933  11.166  1.00  0.00    -0.371 N 
HETATM   16  C1  UNL     1      -2.957  -3.348  11.116  1.00  0.00     0.154 C 
HETATM   17  C16 UNL     1      -4.440  -1.465  11.086  1.00  0.00     0.092 A 
HETATM   18  C15 UNL     1      -4.653  -0.111  11.133  1.00  0.00     0.047 A 
ENDBRANCH  10  12
ENDBRANCH   1  10
BRANCH   4  19
HETATM   19  N4  UNL     1      -4.995   2.408  15.824  1.00  0.00    -0.213 N 
HETATM   20  C7  UNL     1      -6.322   2.840  16.196  1.00  0.00     0.167 C 
HETATM   21  C8  UNL     1      -7.071   1.749  16.930  1.00  0.00     0.188 C 
HETATM   22  O1  UNL     1      -6.639   0.492  16.638  1.00  0.00    -0.388 OA
HETATM   23  C9  UNL     1      -5.312   0.236  16.742  1.00  0.00     0.188 C 
HETATM   24  C10 UNL     1      -4.380   1.385  16.640  1.00  0.00     0.167 C 
ENDBRANCH   4  19
BRANCH   7  25
HETATM   25  N6  UNL     1      -2.365   5.919  13.757  1.00  0.00    -0.191 N 
HETATM   26  C12 UNL     1      -1.074   6.138  13.134  1.00  0.00     0.170 C 
HETATM   27  C13 UNL     1      -0.728   7.557  13.449  1.00  0.00     0.254 C 
HETATM   28  N7  UNL     1      -1.467   7.794  14.677  1.00  0.00    -0.057 N 
HETATM   29  C14 UNL     1      -2.727   7.131  14.412  1.00  0.00     0.374 C 
ATOM     30  H72 UNL     1      -0.993   7.494  15.529  1.00  0.00     0.279 HD
ATOM     31  H71 UNL     1      -1.544   8.774  14.949  1.00  0.00     0.279 HD
ENDBRANCH   7  25
TORSDOF 4
ENDMDL
MODEL 3
REMARK VINA RESULT: -7.301675801      2.633      6.449
REMARK  4 active torsions:
REMARK  status: ('A' for Active; 'I' for Inactive)
REMARK    1  A    between atoms: C4_5  and  N2_6 
REMARK    2  A    between atoms: N2_6  and  C5_8 
REMARK    3  A    between atoms: C6_11  and  N4_12 
REMARK    4  A    between atoms: C11_20  and  N6_21 
ROOT
HETATM    1  C5  UNL     1      -3.901   5.607  12.719  1.00  0.00     0.711 A 
HETATM    2  N3  UNL     1      -4.373   4.529  13.370  1.00  0.00    -0.021 N 
ATOM      3  H3  UNL     1      -5.293   4.580  13.807  1.00  0.00     0.203 HD
HETATM    4  C6  UNL     1      -3.672   3.392  13.460  1.00  0.00     0.709 A 
HETATM    5  N5  UNL     1      -2.464   3.337  12.880  1.00  0.00    -0.021 N 
ATOM      6  H5  UNL     1      -1.923   2.474  12.943  1.00  0.00     0.203 HD
HETATM    7  C11 UNL     1      -1.941   4.394  12.213  1.00  0.00     0.710 A 
HETATM    8  N8  UNL     1      -2.686   5.506  12.154  1.00  0.00    -0.021 N 
ATOM      9  H8  UNL     1      -2.313   6.314  11.657  1.00  0.00     0.203 HD
ENDROOT
BRANCH   1  10
HETATM   10  N2  UNL     1      -4.598   6.690  12.647  1.00  0.00    -0.191 N 
ATOM     11  H2  UNL     1      -4.510   7.399  13.374  1.00  0.00     0.184 HD
BRANCH  10  12
HETATM   12  C4  UNL     1      -5.487   6.899  11.558  1.00  0.00     0.051 A 
HETATM   13  C3  UNL     1      -5.289   6.340  10.318  1.00  0.00     0.047 A 
HETATM   14  C2  UNL     1      -6.206   6.602   9.324  1.00  0.00     0.092 A 
HETATM   15  N1  UNL     1      -7.294   7.398   9.556  1.00  0.00    -0.371 N 
HETATM   16  C1  UNL     1      -8.231   7.651   8.501  1.00  0.00     0.154 C 
HETATM   17  C16 UNL     1      -7.500   7.951  10.764  1.00  0.00     0.092 A 
HETATM   18  C15 UNL     1      -6.602   7.707  11.771  1.00  0.00     0.047 A 
ENDBRANCH  10  12
ENDBRANCH   1  10
BRANCH   4  19
HETATM   19  N4  UNL     1      -4.239   2.301  14.165  1.00  0.00    -0.213 N 
HETATM   20  C7  UNL     1      -4.103   0.956  13.656  1.00  0.00     0.167 C 
HETATM   21  C8  UNL     1      -4.163  -0.064  14.771  1.00  0.00     0.188 C 
HETATM   22  O1  UNL     1      -3.790   0.425  15.985  1.00  0.00    -0.388 OA
HETATM   23  C9  UNL     1      -4.384   1.562  16.422  1.00  0.00     0.188 C 
HETATM   24  C10 UNL     1      -4.968   2.468  15.403  1.00  0.00     0.167 C 
ENDBRANCH   4  19
BRANCH   7  25
HETATM   25  N6  UNL     1      -0.647   4.310  11.601  1.00  0.00    -0.191 N 
HETATM   26  C12 UNL     1      -0.287   3.270  10.656  1.00  0.00     0.170 C 
HETATM   27  C13 UNL     1       1.119   3.579  10.258  1.00  0.00     0.254 C 
HETATM   28  N7  UNL     1       1.620   4.306  11.411  1.00  0.00    -0.057 N 
HETATM   29  C14 UNL     1       0.494   5.150  11.755  1.00  0.00     0.374 C 
ATOM     30  H72 UNL     1       1.967   3.722  12.170  1.00  0.00     0.279 HD
ATOM     31  H71 UNL     1       2.498   4.801  11.259  1.00  0.00     0.279 HD
ENDBRANCH   7  25
TORSDOF 4
ENDMDL
MODEL 4
REMARK VINA RESULT: -7.276675408      2.065      7.010
REMARK  4 active torsions:
REMARK  status: ('A' for Active; 'I' for Inactive)
REMARK    1  A    between atoms: C4_5  and  N2_6 
REMARK    2  A    between atoms: N2_6  and  C5_8 
REMARK    3  A    between atoms: C6_11  and  N4_12 
REMARK    4  A    between atoms: C11_20  and  N6_21 
ROOT
HETATM    1  C5  UNL     1      -5.159   4.864  13.559  1.00  0.00     0.711 A 
HETATM    2  N3  UNL     1      -4.432   4.222  12.629  1.00  0.00    -0.021 N 
ATOM      3  H3  UNL     1      -4.110   4.737  11.810  1.00  0.00     0.203 HD
HETATM    4  C6  UNL     1      -4.118   2.925  12.745  1.00  0.00     0.709 A 
HETATM    5  N5  UNL     1      -4.545   2.257  13.827  1.00  0.00    -0.021 N 
ATOM      6  H5  UNL     1      -4.309   1.270  13.925  1.00  0.00     0.203 HD
HETATM    7  C11 UNL     1      -5.280   2.857  14.794  1.00  0.00     0.710 A 
HETATM    8  N8  UNL     1      -5.566   4.155  14.626  1.00  0.00    -0.021 N 
ATOM      9  H8  UNL     1      -6.118   4.628  15.341  1.00  0.00     0.203 HD
ENDROOT
BRANCH   1  10
HETATM   10  N2  UNL     1      -5.447   6.114  13.422  1.00  0.00    -0.191 N 
ATOM     11  H2  UNL     1      -5.249   6.766  14.182  1.00  0.00     0.184 HD
BRANCH  10  12
HETATM   12  C4  UNL     1      -6.037   6.588  12.219  1.00  0.00     0.051 A 
HETATM   13  C3  UNL     1      -5.525   6.298  10.977  1.00  0.00     0.047 A 
HETATM   14  C2  UNL     1      -6.167   6.804   9.867  1.00  0.00     0.092 A 
HETATM   15  N1  UNL     1      -7.289   7.576   9.988  1.00  0.00    -0.371 N 
HETATM   16  C1  UNL     1      -7.934   8.087   8.815  1.00  0.00     0.154 C 
HETATM   17  C16 UNL     1      -7.800   7.866  11.197  1.00  0.00     0.092 A 
HETATM   18  C15 UNL     1      -7.180   7.377  12.319  1.00  0.00     0.047 A 
ENDBRANCH  10  12
ENDBRANCH   1  10
BRANCH   4  19
HETATM   19  N4  UNL     1      -3.349   2.319  11.719  1.00  0.00    -0.213 N 
HETATM   20  C7  UNL     1      -2.030   2.817  11.408  1.00  0.00     0.167 C 
HETATM   21  C8  UNL     1      -1.156   1.733  10.818  1.00  0.00     0.188 C 
HETATM   22  O1  UNL     1      -1.524   0.472  11.179  1.00  0.00    -0.388 OA
HETATM   23  C9  UNL     1      -2.820   0.114  11.002  1.00  0.00     0.188 C 
HETATM   24  C10 UNL     1      -3.831   1.197  10.946  1.00  0.00     0.167 C 
ENDBRANCH   4  19
BRANCH   7  25
HETATM   25  N6  UNL     1      -5.725   2.121  15.942  1.00  0.00    -0.191 N 
HETATM   26  C12 UNL     1      -5.097   0.891  16.383  1.00  0.00     0.170 C 
HETATM   27  C13 UNL     1      -5.850   0.490  17.609  1.00  0.00     0.254 C 
HETATM   28  N7  UNL     1      -7.149   1.103  17.395  1.00  0.00    -0.057 N 
HETATM   29  C14 UNL     1      -6.792   2.395  16.846  1.00  0.00     0.374 C 
ATOM     30  H72 UNL     1      -7.794   0.556  16.824  1.00  0.00     0.279 HD
ATOM     31  H71 UNL     1      -7.750   1.135  18.218  1.00  0.00     0.279 HD
ENDBRANCH   7  25
TORSDOF 4
ENDMDL
MODEL 5
REMARK VINA RESULT: -7.254404222      1.384      6.076
REMARK  4 active torsions:
REMARK  status: ('A' for Active; 'I' for Inactive)
REMARK    1  A    between atoms: C4_5  and  N2_6 
REMARK    2  A    between atoms: N2_6  and  C5_8 
REMARK    3  A    between atoms: C6_11  and  N4_12 
REMARK    4  A    between atoms: C11_20  and  N6_21 
ROOT
HETATM    1  C5  UNL     1      -3.877   4.287  13.542  1.00  0.00     0.711 A 
HETATM    2  N3  UNL     1      -4.438   3.817  14.670  1.00  0.00    -0.021 N 
ATOM      3  H3  UNL     1      -4.682   4.474  15.412  1.00  0.00     0.203 HD
HETATM    4  C6  UNL     1      -4.687   2.514  14.848  1.00  0.00     0.709 A 
HETATM    5  N5  UNL     1      -4.365   1.659  13.865  1.00  0.00    -0.021 N 
ATOM      6  H5  UNL     1      -4.552   0.665  13.992  1.00  0.00     0.203 HD
HETATM    7  C11 UNL     1      -3.797   2.080  12.710  1.00  0.00     0.710 A 
HETATM    8  N8  UNL     1      -3.570   3.395  12.585  1.00  0.00    -0.021 N 
ATOM      9  H8  UNL     1      -3.144   3.735  11.723  1.00  0.00     0.203 HD
ENDROOT
BRANCH   1  10
HETATM   10  N2  UNL     1      -3.649   5.548  13.396  1.00  0.00    -0.191 N 
ATOM     11  H2  UNL     1      -2.826   5.968  13.828  1.00  0.00     0.184 HD
BRANCH  10  12
HETATM   12  C4  UNL     1      -4.539   6.355  12.637  1.00  0.00     0.051 A 
HETATM   13  C3  UNL     1      -5.904   6.219  12.701  1.00  0.00     0.047 A 
HETATM   14  C2  UNL     1      -6.685   7.048  11.926  1.00  0.00     0.092 A 
HETATM   15  N1  UNL     1      -6.124   7.990  11.108  1.00  0.00    -0.371 N 
HETATM   16  C1  UNL     1      -6.964   8.837  10.314  1.00  0.00     0.154 C 
HETATM   17  C16 UNL     1      -4.790   8.134  11.036  1.00  0.00     0.092 A 
HETATM   18  C15 UNL     1      -3.989   7.321  11.797  1.00  0.00     0.047 A 
ENDBRANCH  10  12
ENDBRANCH   1  10
BRANCH   4  19
HETATM   19  N4  UNL     1      -5.279   2.097  16.067  1.00  0.00    -0.213 N 
HETATM   20  C7  UNL     1      -6.578   2.598  16.454  1.00  0.00     0.167 C 
HETATM   21  C8  UNL     1      -7.298   1.621  17.357  1.00  0.00     0.188 C 
HETATM   22  O1  UNL     1      -6.899   0.329  17.200  1.00  0.00    -0.388 OA
HETATM   23  C9  UNL     1      -5.572   0.062  17.264  1.00  0.00     0.188 C 
HETATM   24  C10 UNL     1      -4.632   1.172  16.971  1.00  0.00     0.167 C 
ENDBRANCH   4  19
BRANCH   7  25
HETATM   25  N6  UNL     1      -3.462   1.147  11.673  1.00  0.00    -0.191 N 
HETATM   26  C12 UNL     1      -4.459   0.407  10.925  1.00  0.00     0.170 C 
HETATM   27  C13 UNL     1      -3.681  -0.410   9.946  1.00  0.00     0.254 C 
HETATM   28  N7  UNL     1      -2.399  -0.561  10.612  1.00  0.00    -0.057 N 
HETATM   29  C14 UNL     1      -2.186   0.759  11.171  1.00  0.00     0.374 C 
ATOM     30  H72 UNL     1      -2.350  -1.326  11.284  1.00  0.00     0.279 HD
ATOM     31  H71 UNL     1      -1.644  -0.904  10.018  1.00  0.00     0.279 HD
ENDBRANCH   7  25
TORSDOF 4
ENDMDL
