MODEL 1
REMARK VINA RESULT: -6.423199941      0.000      0.000
REMARK  7 active torsions:
REMARK  status: ('A' for Active; 'I' for Inactive)
REMARK    1  A    between atoms: O1_2  and  C2_3 
REMARK    2  A    between atoms: C5_7  and  N1_8 
REMARK    3  A    between atoms: N1_8  and  C6_10 
REMARK    4  A    between atoms: C6_10  and  N2_12 
REMARK    5  A    between atoms: N2_12  and  C7_14 
REMARK    6  A    between atoms: C7_14  and  C8_15 
REMARK    7  A    between atoms: C8_15  and  N3_16 
ROOT
HETATM    1  C6  UNL     1      44.514  12.859   0.007  1.00  0.00     0.172 C 
HETATM    2  S1  UNL     1      44.688  13.740  -1.356  1.00  0.00    -0.041 SA
ENDROOT
BRANCH   1   3
HETATM    3  N1  UNL     1      44.269  13.379   1.291  1.00  0.00    -0.331 N 
ATOM      4  H1  UNL     1      43.526  12.911   1.810  1.00  0.00     0.168 HD
BRANCH   3   5
HETATM    5  C5  UNL     1      44.886  14.441   1.971  1.00  0.00     0.072 A 
HETATM    6  C4  UNL     1      46.057  14.257   2.670  1.00  0.00     0.066 A 
HETATM    7  C3  UNL     1      46.731  15.293   3.266  1.00  0.00     0.082 A 
HETATM    8 CL1  UNL     1      46.732  12.627   2.826  1.00  0.00    -0.082 Cl
HETATM    9  C2  UNL     1      46.226  16.593   3.168  1.00  0.00     0.143 A 
HETATM   10  N4  UNL     1      45.098  16.730   2.488  1.00  0.00    -0.345 N 
HETATM   11  C16 UNL     1      44.404  15.754   1.889  1.00  0.00     0.121 A 
ATOM     12  H4  UNL     1      44.719  17.675   2.413  1.00  0.00     0.167 HD
BRANCH   9  13
HETATM   13  O1  UNL     1      46.887  17.653   3.757  1.00  0.00    -0.341 OA
HETATM   14  C1  UNL     1      47.866  17.401   4.732  1.00  0.00     0.211 C 
ENDBRANCH   9  13
ENDBRANCH   3   5
ENDBRANCH   1   3
BRANCH   1  15
HETATM   15  N2  UNL     1      44.593  11.437  -0.155  1.00  0.00    -0.364 N 
ATOM     16  H2  UNL     1      44.134  10.811   0.507  1.00  0.00     0.161 HD
BRANCH  15  17
HETATM   17  C7  UNL     1      45.333  10.913  -1.272  1.00  0.00     0.163 C 
BRANCH  17  18
HETATM   18  C8  UNL     1      44.609   9.848  -2.025  1.00  0.00     0.174 C 
HETATM   19  C11 UNL     1      43.502  10.407  -2.857  1.00  0.00     0.043 C 
HETATM   20  C12 UNL     1      42.740   9.259  -3.553  1.00  0.00     0.003 C 
HETATM   21  C13 UNL     1      41.989   8.550  -2.436  1.00  0.00     0.000 C 
HETATM   22  C14 UNL     1      43.073   7.911  -1.558  1.00  0.00     0.003 C 
HETATM   23  C15 UNL     1      43.963   8.948  -0.968  1.00  0.00     0.043 C 
BRANCH  18  24
HETATM   24  N3  UNL     1      45.502   9.072  -2.859  1.00  0.00     0.091 N 
HETATM   25  C9  UNL     1      46.198   9.871  -3.816  1.00  0.00     0.310 C 
HETATM   26  C10 UNL     1      46.436   8.276  -2.116  1.00  0.00     0.310 C 
ENDBRANCH  18  24
ENDBRANCH  17  18
ENDBRANCH  15  17
ENDBRANCH   1  15
TORSDOF 7
ENDMDL
MODEL 2
REMARK VINA RESULT: -6.291428009      1.242      1.591
REMARK  7 active torsions:
REMARK  status: ('A' for Active; 'I' for Inactive)
REMARK    1  A    between atoms: O1_2  and  C2_3 
REMARK    2  A    between atoms: C5_7  and  N1_8 
REMARK    3  A    between atoms: N1_8  and  C6_10 
REMARK    4  A    between atoms: C6_10  and  N2_12 
REMARK    5  A    between atoms: N2_12  and  C7_14 
REMARK    6  A    between atoms: C7_14  and  C8_15 
REMARK    7  A    between atoms: C8_15  and  N3_16 
ROOT
HETATM    1  C6  UNL     1      44.369  13.713  -0.469  1.00  0.00     0.172 C 
HETATM    2  S1  UNL     1      44.187  14.933  -1.538  1.00  0.00    -0.041 SA
ENDROOT
BRANCH   1   3
HETATM    3  N1  UNL     1      44.350  13.843   0.932  1.00  0.00    -0.331 N 
ATOM      4  H1  UNL     1      43.824  13.121   1.423  1.00  0.00     0.168 HD
BRANCH   3   5
HETATM    5  C5  UNL     1      44.943  14.811   1.760  1.00  0.00     0.072 A 
HETATM    6  C4  UNL     1      46.040  14.512   2.533  1.00  0.00     0.066 A 
HETATM    7  C3  UNL     1      46.695  15.459   3.279  1.00  0.00     0.082 A 
HETATM    8 CL1  UNL     1      46.642  12.847   2.589  1.00  0.00    -0.082 Cl
HETATM    9  C2  UNL     1      46.247  16.783   3.264  1.00  0.00     0.143 A 
HETATM   10  N4  UNL     1      45.188  17.031   2.508  1.00  0.00    -0.345 N 
HETATM   11  C16 UNL     1      44.516  16.145   1.763  1.00  0.00     0.121 A 
ATOM     12  H4  UNL     1      44.851  17.993   2.492  1.00  0.00     0.167 HD
BRANCH   9  13
HETATM   13  O1  UNL     1      46.890  17.755   4.005  1.00  0.00    -0.341 OA
HETATM   14  C1  UNL     1      48.013  17.407   4.775  1.00  0.00     0.211 C 
ENDBRANCH   9  13
ENDBRANCH   3   5
ENDBRANCH   1   3
BRANCH   1  15
HETATM   15  N2  UNL     1      44.530  12.406  -1.036  1.00  0.00    -0.364 N 
ATOM     16  H2  UNL     1      43.791  11.990  -1.604  1.00  0.00     0.161 HD
BRANCH  15  17
HETATM   17  C7  UNL     1      45.755  11.695  -0.787  1.00  0.00     0.163 C 
BRANCH  17  18
HETATM   18  C8  UNL     1      45.642  10.220  -0.977  1.00  0.00     0.174 C 
HETATM   19  C11 UNL     1      45.389   9.858  -2.403  1.00  0.00     0.043 C 
HETATM   20  C12 UNL     1      45.204   8.331  -2.531  1.00  0.00     0.003 C 
HETATM   21  C13 UNL     1      43.865   8.039  -1.872  1.00  0.00     0.000 C 
HETATM   22  C14 UNL     1      44.067   8.350  -0.383  1.00  0.00     0.003 C 
HETATM   23  C15 UNL     1      44.409   9.784  -0.179  1.00  0.00     0.043 C 
BRANCH  18  24
HETATM   24  N3  UNL     1      46.816   9.521  -0.498  1.00  0.00     0.091 N 
HETATM   25  C9  UNL     1      48.008   9.914  -1.177  1.00  0.00     0.310 C 
HETATM   26  C10 UNL     1      47.006   9.621   0.920  1.00  0.00     0.310 C 
ENDBRANCH  18  24
ENDBRANCH  17  18
ENDBRANCH  15  17
ENDBRANCH   1  15
TORSDOF 7
ENDMDL
MODEL 3
REMARK VINA RESULT: -6.221727379      3.218      4.989
REMARK  7 active torsions:
REMARK  status: ('A' for Active; 'I' for Inactive)
REMARK    1  A    between atoms: O1_2  and  C2_3 
REMARK    2  A    between atoms: C5_7  and  N1_8 
REMARK    3  A    between atoms: N1_8  and  C6_10 
REMARK    4  A    between atoms: C6_10  and  N2_12 
REMARK    5  A    between atoms: N2_12  and  C7_14 
REMARK    6  A    between atoms: C7_14  and  C8_15 
REMARK    7  A    between atoms: C8_15  and  N3_16 
ROOT
HETATM    1  C6  UNL     1      44.577  12.892   0.125  1.00  0.00     0.172 C 
HETATM    2  S1  UNL     1      44.696  11.295  -0.193  1.00  0.00    -0.041 SA
ENDROOT
BRANCH   1   3
HETATM    3  N1  UNL     1      44.264  13.455   1.376  1.00  0.00    -0.331 N 
ATOM      4  H1  UNL     1      43.462  13.037   1.847  1.00  0.00     0.168 HD
BRANCH   3   5
HETATM    5  C5  UNL     1      44.883  14.502   2.079  1.00  0.00     0.072 A 
HETATM    6  C4  UNL     1      46.089  14.320   2.713  1.00  0.00     0.066 A 
HETATM    7  C3  UNL     1      46.761  15.346   3.328  1.00  0.00     0.082 A 
HETATM    8 CL1  UNL     1      46.817  12.705   2.758  1.00  0.00    -0.082 Cl
HETATM    9  C2  UNL     1      46.215  16.633   3.317  1.00  0.00     0.143 A 
HETATM   10  N4  UNL     1      45.053  16.769   2.696  1.00  0.00    -0.345 N 
HETATM   11  C16 UNL     1      44.360  15.801   2.083  1.00  0.00     0.121 A 
ATOM     12  H4  UNL     1      44.645  17.703   2.685  1.00  0.00     0.167 HD
BRANCH   9  13
HETATM   13  O1  UNL     1      46.873  17.684   3.927  1.00  0.00    -0.341 OA
HETATM   14  C1  UNL     1      47.947  17.418   4.793  1.00  0.00     0.211 C 
ENDBRANCH   9  13
ENDBRANCH   3   5
ENDBRANCH   1   3
BRANCH   1  15
HETATM   15  N2  UNL     1      44.850  13.769  -0.975  1.00  0.00    -0.364 N 
ATOM     16  H2  UNL     1      45.749  13.737  -1.457  1.00  0.00     0.161 HD
BRANCH  15  17
HETATM   17  C7  UNL     1      43.827  14.693  -1.386  1.00  0.00     0.163 C 
BRANCH  17  18
HETATM   18  C8  UNL     1      44.207  15.522  -2.567  1.00  0.00     0.174 C 
HETATM   19  C11 UNL     1      45.473  15.046  -3.199  1.00  0.00     0.043 C 
HETATM   20  C12 UNL     1      45.860  15.981  -4.364  1.00  0.00     0.003 C 
HETATM   21  C13 UNL     1      46.288  17.281  -3.702  1.00  0.00     0.000 C 
HETATM   22  C14 UNL     1      45.014  17.852  -3.063  1.00  0.00     0.003 C 
HETATM   23  C15 UNL     1      44.477  16.929  -2.027  1.00  0.00     0.043 C 
BRANCH  18  24
HETATM   24  N3  UNL     1      43.154  15.565  -3.559  1.00  0.00     0.091 N 
HETATM   25  C9  UNL     1      42.877  14.285  -4.127  1.00  0.00     0.310 C 
HETATM   26  C10 UNL     1      41.939  16.161  -3.083  1.00  0.00     0.310 C 
ENDBRANCH  18  24
ENDBRANCH  17  18
ENDBRANCH  15  17
ENDBRANCH   1  15
TORSDOF 7
ENDMDL
MODEL 4
REMARK VINA RESULT: -6.170167378      1.572      2.793
REMARK  7 active torsions:
REMARK  status: ('A' for Active; 'I' for Inactive)
REMARK    1  A    between atoms: O1_2  and  C2_3 
REMARK    2  A    between atoms: C5_7  and  N1_8 
REMARK    3  A    between atoms: N1_8  and  C6_10 
REMARK    4  A    between atoms: C6_10  and  N2_12 
REMARK    5  A    between atoms: N2_12  and  C7_14 
REMARK    6  A    between atoms: C7_14  and  C8_15 
REMARK    7  A    between atoms: C8_15  and  N3_16 
ROOT
HETATM    1  C6  UNL     1      44.465  13.106  -0.097  1.00  0.00     0.172 C 
HETATM    2  S1  UNL     1      44.540  14.078  -1.406  1.00  0.00    -0.041 SA
ENDROOT
BRANCH   1   3
HETATM    3  N1  UNL     1      44.261  13.532   1.228  1.00  0.00    -0.331 N 
ATOM      4  H1  UNL     1      43.550  13.011   1.742  1.00  0.00     0.168 HD
BRANCH   3   5
HETATM    5  C5  UNL     1      44.881  14.562   1.955  1.00  0.00     0.072 A 
HETATM    6  C4  UNL     1      46.072  14.355   2.610  1.00  0.00     0.066 A 
HETATM    7  C3  UNL     1      46.747  15.364   3.249  1.00  0.00     0.082 A 
HETATM    8 CL1  UNL     1      46.776  12.729   2.649  1.00  0.00    -0.082 Cl
HETATM    9  C2  UNL     1      46.221  16.659   3.243  1.00  0.00     0.143 A 
HETATM   10  N4  UNL     1      45.073  16.818   2.602  1.00  0.00    -0.345 N 
HETATM   11  C16 UNL     1      44.377  15.869   1.965  1.00  0.00     0.121 A 
ATOM     12  H4  UNL     1      44.679  17.759   2.594  1.00  0.00     0.167 HD
BRANCH   9  13
HETATM   13  O1  UNL     1      46.882  17.693   3.878  1.00  0.00    -0.341 OA
HETATM   14  C1  UNL     1      47.965  17.404   4.725  1.00  0.00     0.211 C 
ENDBRANCH   9  13
ENDBRANCH   3   5
ENDBRANCH   1   3
BRANCH   1  15
HETATM   15  N2  UNL     1      44.593  11.701  -0.355  1.00  0.00    -0.364 N 
ATOM     16  H2  UNL     1      44.025  11.024   0.155  1.00  0.00     0.161 HD
BRANCH  15  17
HETATM   17  C7  UNL     1      45.539  11.269  -1.349  1.00  0.00     0.163 C 
BRANCH  17  18
HETATM   18  C8  UNL     1      46.444  10.179  -0.882  1.00  0.00     0.174 C 
HETATM   19  C11 UNL     1      45.904   9.482   0.322  1.00  0.00     0.043 C 
HETATM   20  C12 UNL     1      46.911   8.419   0.809  1.00  0.00     0.003 C 
HETATM   21  C13 UNL     1      48.077   9.212   1.379  1.00  0.00     0.000 C 
HETATM   22  C14 UNL     1      48.711   9.927   0.178  1.00  0.00     0.003 C 
HETATM   23  C15 UNL     1      47.745  10.865  -0.456  1.00  0.00     0.043 C 
BRANCH  18  24
HETATM   24  N3  UNL     1      46.711   9.212  -1.926  1.00  0.00     0.091 N 
HETATM   25  C9  UNL     1      45.545   8.489  -2.320  1.00  0.00     0.310 C 
HETATM   26  C10 UNL     1      47.350   9.775  -3.080  1.00  0.00     0.310 C 
ENDBRANCH  18  24
ENDBRANCH  17  18
ENDBRANCH  15  17
ENDBRANCH   1  15
TORSDOF 7
ENDMDL
MODEL 5
REMARK VINA RESULT: -6.168780049      1.757      2.711
REMARK  7 active torsions:
REMARK  status: ('A' for Active; 'I' for Inactive)
REMARK    1  A    between atoms: O1_2  and  C2_3 
REMARK    2  A    between atoms: C5_7  and  N1_8 
REMARK    3  A    between atoms: N1_8  and  C6_10 
REMARK    4  A    between atoms: C6_10  and  N2_12 
REMARK    5  A    between atoms: N2_12  and  C7_14 
REMARK    6  A    between atoms: C7_14  and  C8_15 
REMARK    7  A    between atoms: C8_15  and  N3_16 
ROOT
HETATM    1  C6  UNL     1      44.606  12.731   0.241  1.00  0.00     0.172 C 
HETATM    2  S1  UNL     1      44.920  13.400  -1.215  1.00  0.00    -0.041 SA
ENDROOT
BRANCH   1   3
HETATM    3  N1  UNL     1      44.230  13.434   1.400  1.00  0.00    -0.331 N 
ATOM      4  H1  UNL     1      43.363  13.116   1.834  1.00  0.00     0.168 HD
BRANCH   3   5
HETATM    5  C5  UNL     1      44.860  14.505   2.054  1.00  0.00     0.072 A 
HETATM    6  C4  UNL     1      46.015  14.319   2.777  1.00  0.00     0.066 A 
HETATM    7  C3  UNL     1      46.703  15.360   3.349  1.00  0.00     0.082 A 
HETATM    8 CL1  UNL     1      46.652  12.681   2.999  1.00  0.00    -0.082 Cl
HETATM    9  C2  UNL     1      46.228  16.667   3.200  1.00  0.00     0.143 A 
HETATM   10  N4  UNL     1      45.114  16.805   2.498  1.00  0.00    -0.345 N 
HETATM   11  C16 UNL     1      44.408  15.825   1.921  1.00  0.00     0.121 A 
ATOM     12  H4  UNL     1      44.757  17.754   2.385  1.00  0.00     0.167 HD
BRANCH   9  13
HETATM   13  O1  UNL     1      46.903  17.732   3.764  1.00  0.00    -0.341 OA
HETATM   14  C1  UNL     1      47.877  17.490   4.747  1.00  0.00     0.211 C 
ENDBRANCH   9  13
ENDBRANCH   3   5
ENDBRANCH   1   3
BRANCH   1  15
HETATM   15  N2  UNL     1      44.701  11.302   0.305  1.00  0.00    -0.364 N 
ATOM     16  H2  UNL     1      44.384  10.795   1.131  1.00  0.00     0.161 HD
BRANCH  15  17
HETATM   17  C7  UNL     1      45.254  10.599  -0.822  1.00  0.00     0.163 C 
BRANCH  17  18
HETATM   18  C8  UNL     1      46.397   9.708  -0.472  1.00  0.00     0.174 C 
HETATM   19  C11 UNL     1      46.065   8.267  -0.677  1.00  0.00     0.043 C 
HETATM   20  C12 UNL     1      47.251   7.387  -0.228  1.00  0.00     0.003 C 
HETATM   21  C13 UNL     1      47.280   7.507   1.287  1.00  0.00     0.000 C 
HETATM   22  C14 UNL     1      47.661   8.966   1.574  1.00  0.00     0.003 C 
HETATM   23  C15 UNL     1      46.639   9.901   1.029  1.00  0.00     0.043 C 
BRANCH  18  24
HETATM   24  N3  UNL     1      47.594  10.043  -1.214  1.00  0.00     0.091 N 
HETATM   25  C9  UNL     1      47.389  10.027  -2.627  1.00  0.00     0.310 C 
HETATM   26  C10 UNL     1      48.184  11.290  -0.820  1.00  0.00     0.310 C 
ENDBRANCH  18  24
ENDBRANCH  17  18
ENDBRANCH  15  17
ENDBRANCH   1  15
TORSDOF 7
ENDMDL
