MODEL 1
REMARK VINA RESULT: -7.851127354      0.000      0.000
REMARK  7 active torsions:
REMARK  status: ('A' for Active; 'I' for Inactive)
REMARK    1  A    between atoms: N1_4  and  O1_5 
REMARK    2  A    between atoms: C6_10  and  C7_11 
REMARK    3  A    between atoms: C7_11  and  C8_12 
REMARK    4  A    between atoms: N2_14  and  C10_15 
REMARK    5  A    between atoms: C10_15  and  C11_16 
REMARK    6  A    between atoms: C11_16  and  C12_17 
REMARK    7  A    between atoms: C16_23  and  N4_24 
ROOT
HETATM    1  C8  UNL     1      44.522  13.835   0.645  1.00  0.00    -0.004 A 
HETATM    2  C9  UNL     1      44.893  12.556   0.317  1.00  0.00     0.105 A 
HETATM    3  N2  UNL     1      44.816  12.400  -1.038  1.00  0.00    -0.341 N 
HETATM    4  C15 UNL     1      44.408  13.531  -1.604  1.00  0.00     0.135 A 
HETATM    5  N3  UNL     1      44.173  13.889  -2.885  1.00  0.00    -0.176 N 
ATOM      6  H3  UNL     1      44.317  13.213  -3.635  1.00  0.00     0.186 HD
HETATM    7  C16 UNL     1      43.746  15.143  -3.177  1.00  0.00     0.677 A 
HETATM    8  N5  UNL     1      43.552  16.049  -2.179  1.00  0.00    -0.201 N 
ATOM      9  H5  UNL     1      43.230  16.990  -2.400  1.00  0.00     0.183 HD
HETATM   10  C17 UNL     1      43.784  15.702  -0.908  1.00  0.00     0.122 A 
HETATM   11  C18 UNL     1      44.220  14.439  -0.557  1.00  0.00     0.036 A 
ENDROOT
BRANCH   1  12
HETATM   12  C7  UNL     1      44.437  14.413   1.962  1.00  0.00     0.027 C 
BRANCH  12  13
HETATM   13  C6  UNL     1      45.572  15.017   2.608  1.00  0.00    -0.005 A 
HETATM   14  C2  UNL     1      45.544  16.428   2.702  1.00  0.00    -0.032 A 
HETATM   15  C1  UNL     1      44.386  17.172   2.146  1.00  0.00     0.050 C 
HETATM   16  C3  UNL     1      46.564  17.123   3.299  1.00  0.00     0.130 A 
HETATM   17  N1  UNL     1      47.627  16.507   3.816  1.00  0.00    -0.245 N 
HETATM   18  C4  UNL     1      47.695  15.179   3.750  1.00  0.00     0.147 A 
HETATM   19  C5  UNL     1      46.668  14.428   3.147  1.00  0.00     0.062 A 
HETATM   20 CL1  UNL     1      46.793  12.696   3.092  1.00  0.00    -0.082 Cl
BRANCH  17  21
HETATM   21  O1  UNL     1      48.650  17.210   4.413  1.00  0.00    -0.284 OA
ATOM     22  H1  UNL     1      49.118  16.867   5.166  1.00  0.00     0.245 HD
ENDBRANCH  17  21
ENDBRANCH  12  13
ENDBRANCH   1  12
BRANCH   3  23
HETATM   23  C10 UNL     1      45.157  11.183  -1.772  1.00  0.00     0.130 C 
BRANCH  23  24
HETATM   24  C11 UNL     1      43.974  10.304  -1.970  1.00  0.00     0.024 C 
BRANCH  24  25
HETATM   25  C12 UNL     1      43.869   9.120  -1.065  1.00  0.00    -0.021 C 
HETATM   26  C13 UNL     1      45.174   8.584  -0.584  1.00  0.00     0.009 C 
HETATM   27  C14 UNL     1      43.119   7.976  -1.763  1.00  0.00     0.009 C 
ENDBRANCH  24  25
ENDBRANCH  23  24
ENDBRANCH   3  23
BRANCH   7  28
HETATM   28  N4  UNL     1      43.546  15.398  -4.415  1.00  0.00    -0.234 N 
ATOM     29  H42 UNL     1      44.267  15.320  -5.132  1.00  0.00     0.174 HD
ATOM     30  H41 UNL     1      42.603  15.694  -4.667  1.00  0.00     0.174 HD
ENDBRANCH   7  28
TORSDOF 7
ENDMDL
MODEL 2
REMARK VINA RESULT: -7.830872570      1.428      4.337
REMARK  7 active torsions:
REMARK  status: ('A' for Active; 'I' for Inactive)
REMARK    1  A    between atoms: N1_4  and  O1_5 
REMARK    2  A    between atoms: C6_10  and  C7_11 
REMARK    3  A    between atoms: C7_11  and  C8_12 
REMARK    4  A    between atoms: N2_14  and  C10_15 
REMARK    5  A    between atoms: C10_15  and  C11_16 
REMARK    6  A    between atoms: C11_16  and  C12_17 
REMARK    7  A    between atoms: C16_23  and  N4_24 
ROOT
HETATM    1  C8  UNL     1      44.392  14.273   0.764  1.00  0.00    -0.004 A 
HETATM    2  C9  UNL     1      44.339  15.159  -0.283  1.00  0.00     0.105 A 
HETATM    3  N2  UNL     1      44.357  14.464  -1.459  1.00  0.00    -0.341 N 
HETATM    4  C15 UNL     1      44.419  13.160  -1.216  1.00  0.00     0.135 A 
HETATM    5  N3  UNL     1      44.462  12.073  -2.018  1.00  0.00    -0.176 N 
ATOM      6  H3  UNL     1      44.443  12.188  -3.031  1.00  0.00     0.186 HD
HETATM    7  C16 UNL     1      44.532  10.828  -1.481  1.00  0.00     0.677 A 
HETATM    8  N5  UNL     1      44.558  10.669  -0.129  1.00  0.00    -0.201 N 
ATOM      9  H5  UNL     1      44.612   9.734   0.273  1.00  0.00     0.183 HD
HETATM   10  C17 UNL     1      44.515  11.740   0.672  1.00  0.00     0.122 A 
HETATM   11  C18 UNL     1      44.443  13.028   0.176  1.00  0.00     0.036 A 
ENDROOT
BRANCH   1  12
HETATM   12  C7  UNL     1      44.422  14.580   2.171  1.00  0.00     0.027 C 
BRANCH  12  13
HETATM   13  C6  UNL     1      45.566  15.187   2.798  1.00  0.00    -0.005 A 
HETATM   14  C2  UNL     1      45.485  16.585   2.998  1.00  0.00    -0.032 A 
HETATM   15  C1  UNL     1      44.267  17.313   2.561  1.00  0.00     0.050 C 
HETATM   16  C3  UNL     1      46.508  17.281   3.589  1.00  0.00     0.130 A 
HETATM   17  N1  UNL     1      47.623  16.679   4.001  1.00  0.00    -0.245 N 
HETATM   18  C4  UNL     1      47.742  15.364   3.834  1.00  0.00     0.147 A 
HETATM   19  C5  UNL     1      46.715  14.612   3.232  1.00  0.00     0.062 A 
HETATM   20 CL1  UNL     1      46.908  12.895   3.042  1.00  0.00    -0.082 Cl
BRANCH  17  21
HETATM   21  O1  UNL     1      48.648  17.383   4.594  1.00  0.00    -0.284 OA
ATOM     22  H1  UNL     1      49.400  17.684   4.095  1.00  0.00     0.245 HD
ENDBRANCH  17  21
ENDBRANCH  12  13
ENDBRANCH   1  12
BRANCH   3  23
HETATM   23  C10 UNL     1      44.287  15.055  -2.794  1.00  0.00     0.130 C 
BRANCH  23  24
HETATM   24  C11 UNL     1      43.691  16.417  -2.767  1.00  0.00     0.024 C 
BRANCH  24  25
HETATM   25  C12 UNL     1      44.649  17.561  -2.846  1.00  0.00    -0.021 C 
HETATM   26  C13 UNL     1      44.107  18.785  -3.501  1.00  0.00     0.009 C 
HETATM   27  C14 UNL     1      45.919  17.145  -3.603  1.00  0.00     0.009 C 
ENDBRANCH  24  25
ENDBRANCH  23  24
ENDBRANCH   3  23
BRANCH   7  28
HETATM   28  N4  UNL     1      44.570   9.856  -2.311  1.00  0.00    -0.234 N 
ATOM     29  H42 UNL     1      45.416   9.563  -2.801  1.00  0.00     0.174 HD
ATOM     30  H41 UNL     1      43.690   9.366  -2.472  1.00  0.00     0.174 HD
ENDBRANCH   7  28
TORSDOF 7
ENDMDL
MODEL 3
REMARK VINA RESULT: -7.798173006      1.304      4.065
REMARK  7 active torsions:
REMARK  status: ('A' for Active; 'I' for Inactive)
REMARK    1  A    between atoms: N1_4  and  O1_5 
REMARK    2  A    between atoms: C6_10  and  C7_11 
REMARK    3  A    between atoms: C7_11  and  C8_12 
REMARK    4  A    between atoms: N2_14  and  C10_15 
REMARK    5  A    between atoms: C10_15  and  C11_16 
REMARK    6  A    between atoms: C11_16  and  C12_17 
REMARK    7  A    between atoms: C16_23  and  N4_24 
ROOT
HETATM    1  C8  UNL     1      44.371  14.073   0.770  1.00  0.00    -0.004 A 
HETATM    2  C9  UNL     1      44.334  14.868  -0.348  1.00  0.00     0.105 A 
HETATM    3  N2  UNL     1      44.359  14.077  -1.462  1.00  0.00    -0.341 N 
HETATM    4  C15 UNL     1      44.410  12.797  -1.111  1.00  0.00     0.135 A 
HETATM    5  N3  UNL     1      44.454  11.647  -1.818  1.00  0.00    -0.176 N 
ATOM      6  H3  UNL     1      44.445  11.678  -2.838  1.00  0.00     0.186 HD
HETATM    7  C16 UNL     1      44.510  10.452  -1.178  1.00  0.00     0.677 A 
HETATM    8  N5  UNL     1      44.522  10.405   0.182  1.00  0.00    -0.201 N 
ATOM      9  H5  UNL     1      44.565   9.507   0.661  1.00  0.00     0.183 HD
HETATM   10  C17 UNL     1      44.477  11.540   0.890  1.00  0.00     0.122 A 
HETATM   11  C18 UNL     1      44.419  12.782   0.287  1.00  0.00     0.036 A 
ENDROOT
BRANCH   1  12
HETATM   12  C7  UNL     1      44.388  14.496   2.146  1.00  0.00     0.027 C 
BRANCH  12  13
HETATM   13  C6  UNL     1      45.551  15.092   2.749  1.00  0.00    -0.005 A 
HETATM   14  C2  UNL     1      45.517  16.499   2.884  1.00  0.00    -0.032 A 
HETATM   15  C1  UNL     1      44.325  17.248   2.411  1.00  0.00     0.050 C 
HETATM   16  C3  UNL     1      46.562  17.187   3.446  1.00  0.00     0.130 A 
HETATM   17  N1  UNL     1      47.656  16.567   3.890  1.00  0.00    -0.245 N 
HETATM   18  C4  UNL     1      47.730  15.242   3.782  1.00  0.00     0.147 A 
HETATM   19  C5  UNL     1      46.679  14.499   3.212  1.00  0.00     0.062 A 
HETATM   20 CL1  UNL     1      46.815  12.770   3.101  1.00  0.00    -0.082 Cl
BRANCH  17  21
HETATM   21  O1  UNL     1      48.703  17.263   4.453  1.00  0.00    -0.284 OA
ATOM     22  H1  UNL     1      49.395  16.821   4.931  1.00  0.00     0.245 HD
ENDBRANCH  17  21
ENDBRANCH  12  13
ENDBRANCH   1  12
BRANCH   3  23
HETATM   23  C10 UNL     1      44.306  14.555  -2.842  1.00  0.00     0.130 C 
BRANCH  23  24
HETATM   24  C11 UNL     1      43.707  15.913  -2.937  1.00  0.00     0.024 C 
BRANCH  24  25
HETATM   25  C12 UNL     1      42.379  16.005  -3.617  1.00  0.00    -0.021 C 
HETATM   26  C13 UNL     1      42.057  17.348  -4.178  1.00  0.00     0.009 C 
HETATM   27  C14 UNL     1      41.252  15.619  -2.647  1.00  0.00     0.009 C 
ENDBRANCH  24  25
ENDBRANCH  23  24
ENDBRANCH   3  23
BRANCH   7  28
HETATM   28  N4  UNL     1      44.550   9.413  -1.924  1.00  0.00    -0.234 N 
ATOM     29  H42 UNL     1      43.865   9.213  -2.653  1.00  0.00     0.174 HD
ATOM     30  H41 UNL     1      45.322   8.768  -1.756  1.00  0.00     0.174 HD
ENDBRANCH   7  28
TORSDOF 7
ENDMDL
MODEL 4
REMARK VINA RESULT: -7.797082471      1.830      4.661
REMARK  7 active torsions:
REMARK  status: ('A' for Active; 'I' for Inactive)
REMARK    1  A    between atoms: N1_4  and  O1_5 
REMARK    2  A    between atoms: C6_10  and  C7_11 
REMARK    3  A    between atoms: C7_11  and  C8_12 
REMARK    4  A    between atoms: N2_14  and  C10_15 
REMARK    5  A    between atoms: C10_15  and  C11_16 
REMARK    6  A    between atoms: C11_16  and  C12_17 
REMARK    7  A    between atoms: C16_23  and  N4_24 
ROOT
HETATM    1  C8  UNL     1      44.413  14.100   0.710  1.00  0.00    -0.004 A 
HETATM    2  C9  UNL     1      44.323  15.050  -0.276  1.00  0.00     0.105 A 
HETATM    3  N2  UNL     1      44.303  14.431  -1.495  1.00  0.00    -0.341 N 
HETATM    4  C15 UNL     1      44.375  13.114  -1.338  1.00  0.00     0.135 A 
HETATM    5  N3  UNL     1      44.394  12.081  -2.208  1.00  0.00    -0.176 N 
ATOM      6  H3  UNL     1      44.340  12.261  -3.211  1.00  0.00     0.186 HD
HETATM    7  C16 UNL     1      44.484  10.805  -1.754  1.00  0.00     0.677 A 
HETATM    8  N5  UNL     1      44.556  10.560  -0.417  1.00  0.00    -0.201 N 
ATOM      9  H5  UNL     1      44.624   9.601  -0.077  1.00  0.00     0.183 HD
HETATM   10  C17 UNL     1      44.537  11.577   0.452  1.00  0.00     0.122 A 
HETATM   11  C18 UNL     1      44.446  12.894   0.041  1.00  0.00     0.036 A 
ENDROOT
BRANCH   1  12
HETATM   12  C7  UNL     1      44.489  14.316   2.131  1.00  0.00     0.027 C 
BRANCH  12  13
HETATM   13  C6  UNL     1      45.472  15.186   2.721  1.00  0.00    -0.005 A 
HETATM   14  C2  UNL     1      46.642  14.552   3.199  1.00  0.00    -0.032 A 
HETATM   15  C1  UNL     1      46.779  13.080   3.067  1.00  0.00     0.050 C 
HETATM   16  C3  UNL     1      47.656  15.271   3.780  1.00  0.00     0.130 A 
HETATM   17  N1  UNL     1      47.588  16.595   3.923  1.00  0.00    -0.245 N 
HETATM   18  C4  UNL     1      46.504  17.233   3.487  1.00  0.00     0.147 A 
HETATM   19  C5  UNL     1      45.441  16.532   2.884  1.00  0.00     0.062 A 
HETATM   20 CL1  UNL     1      44.049  17.406   2.320  1.00  0.00    -0.082 Cl
BRANCH  17  21
HETATM   21  O1  UNL     1      48.608  17.312   4.507  1.00  0.00    -0.284 OA
ATOM     22  H1  UNL     1      48.846  18.180   4.201  1.00  0.00     0.245 HD
ENDBRANCH  17  21
ENDBRANCH  12  13
ENDBRANCH   1  12
BRANCH   3  23
HETATM   23  C10 UNL     1      44.187  15.106  -2.786  1.00  0.00     0.130 C 
BRANCH  23  24
HETATM   24  C11 UNL     1      43.667  16.491  -2.643  1.00  0.00     0.024 C 
BRANCH  24  25
HETATM   25  C12 UNL     1      44.663  17.593  -2.805  1.00  0.00    -0.021 C 
HETATM   26  C13 UNL     1      44.141  18.812  -3.487  1.00  0.00     0.009 C 
HETATM   27  C14 UNL     1      45.885  17.100  -3.593  1.00  0.00     0.009 C 
ENDBRANCH  24  25
ENDBRANCH  23  24
ENDBRANCH   3  23
BRANCH   7  28
HETATM   28  N4  UNL     1      44.496   9.888  -2.646  1.00  0.00    -0.234 N 
ATOM     29  H42 UNL     1      43.776   9.170  -2.730  1.00  0.00     0.174 HD
ATOM     30  H41 UNL     1      45.284   9.900  -3.293  1.00  0.00     0.174 HD
ENDBRANCH   7  28
TORSDOF 7
ENDMDL
MODEL 5
REMARK VINA RESULT: -7.700372602      1.755      4.353
REMARK  7 active torsions:
REMARK  status: ('A' for Active; 'I' for Inactive)
REMARK    1  A    between atoms: N1_4  and  O1_5 
REMARK    2  A    between atoms: C6_10  and  C7_11 
REMARK    3  A    between atoms: C7_11  and  C8_12 
REMARK    4  A    between atoms: N2_14  and  C10_15 
REMARK    5  A    between atoms: C10_15  and  C11_16 
REMARK    6  A    between atoms: C11_16  and  C12_17 
REMARK    7  A    between atoms: C16_23  and  N4_24 
ROOT
HETATM    1  C8  UNL     1      44.436  13.865   0.790  1.00  0.00    -0.004 A 
HETATM    2  C9  UNL     1      44.359  14.727  -0.275  1.00  0.00     0.105 A 
HETATM    3  N2  UNL     1      44.335  14.007  -1.436  1.00  0.00    -0.341 N 
HETATM    4  C15 UNL     1      44.393  12.708  -1.166  1.00  0.00     0.135 A 
HETATM    5  N3  UNL     1      44.403  11.603  -1.944  1.00  0.00    -0.176 N 
ATOM      6  H3  UNL     1      44.354  11.697  -2.958  1.00  0.00     0.186 HD
HETATM    7  C16 UNL     1      44.477  10.370  -1.382  1.00  0.00     0.677 A 
HETATM    8  N5  UNL     1      44.544  10.240  -0.028  1.00  0.00    -0.201 N 
ATOM      9  H5  UNL     1      44.601   9.313   0.393  1.00  0.00     0.183 HD
HETATM   10  C17 UNL     1      44.534  11.328   0.750  1.00  0.00     0.122 A 
HETATM   11  C18 UNL     1      44.458  12.606   0.227  1.00  0.00     0.036 A 
ENDROOT
BRANCH   1  12
HETATM   12  C7  UNL     1      44.511  14.201   2.188  1.00  0.00     0.027 C 
BRANCH  12  13
HETATM   13  C6  UNL     1      45.526  15.076   2.711  1.00  0.00    -0.005 A 
HETATM   14  C2  UNL     1      46.682  14.439   3.217  1.00  0.00    -0.032 A 
HETATM   15  C1  UNL     1      46.772  12.958   3.180  1.00  0.00     0.050 C 
HETATM   16  C3  UNL     1      47.724  15.162   3.741  1.00  0.00     0.130 A 
HETATM   17  N1  UNL     1      47.698  16.493   3.798  1.00  0.00    -0.245 N 
HETATM   18  C4  UNL     1      46.629  17.135   3.332  1.00  0.00     0.147 A 
HETATM   19  C5  UNL     1      45.539  16.431   2.786  1.00  0.00     0.062 A 
HETATM   20 CL1  UNL     1      44.168  17.310   2.180  1.00  0.00    -0.082 Cl
BRANCH  17  21
HETATM   21  O1  UNL     1      48.747  17.214   4.325  1.00  0.00    -0.284 OA
ATOM     22  H1  UNL     1      49.149  17.931   3.847  1.00  0.00     0.245 HD
ENDBRANCH  17  21
ENDBRANCH  12  13
ENDBRANCH   1  12
BRANCH   3  23
HETATM   23  C10 UNL     1      44.231  14.569  -2.780  1.00  0.00     0.130 C 
BRANCH  23  24
HETATM   24  C11 UNL     1      42.820  14.634  -3.246  1.00  0.00     0.024 C 
BRANCH  24  25
HETATM   25  C12 UNL     1      42.049  15.854  -2.856  1.00  0.00    -0.021 C 
HETATM   26  C13 UNL     1      40.580  15.646  -2.718  1.00  0.00     0.009 C 
HETATM   27  C14 UNL     1      42.271  16.978  -3.880  1.00  0.00     0.009 C 
ENDBRANCH  24  25
ENDBRANCH  23  24
ENDBRANCH   3  23
BRANCH   7  28
HETATM   28  N4  UNL     1      44.482   9.379  -2.191  1.00  0.00    -0.234 N 
ATOM     29  H42 UNL     1      45.006   9.367  -3.067  1.00  0.00     0.174 HD
ATOM     30  H41 UNL     1      43.921   8.573  -1.919  1.00  0.00     0.174 HD
ENDBRANCH   7  28
TORSDOF 7
ENDMDL
