MODEL 1
REMARK VINA RESULT: -8.420661410      0.000      0.000
REMARK  5 active torsions:
REMARK  status: ('A' for Active; 'I' for Inactive)
REMARK    1  A    between atoms: C4_5  and  N2_6 
REMARK    2  A    between atoms: N2_6  and  C5_8 
REMARK    3  A    between atoms: C13_17  and  C14_18 
REMARK       I    between atoms: C14_18  and  N3_20 
REMARK    4  A    between atoms: N3_20  and  C15_22 
REMARK    5  A    between atoms: C15_22  and  C16_23 
ROOT
HETATM    1  N1  UNL     1      47.866   9.163   2.060  1.00  0.00    -0.191 NA
HETATM    2  C1  UNL     1      47.211  10.087   1.780  1.00  0.00     0.100 C 
HETATM    3  C2  UNL     1      46.386  11.232   1.473  1.00  0.00     0.062 A 
HETATM    4  C3  UNL     1      46.537  12.394   2.218  1.00  0.00     0.056 A 
HETATM    5  C4  UNL     1      45.725  13.468   1.990  1.00  0.00     0.069 A 
HETATM    6  C11 UNL     1      44.743  13.407   1.013  1.00  0.00     0.143 A 
HETATM    7  F1  UNL     1      43.935  14.472   0.787  1.00  0.00    -0.204 F 
HETATM    8  C12 UNL     1      44.610  12.252   0.290  1.00  0.00     0.063 A 
HETATM    9  C13 UNL     1      45.440  11.129   0.506  1.00  0.00     0.055 A 
ENDROOT
BRANCH   9  10
HETATM   10  C14 UNL     1      45.209  10.032  -0.398  1.00  0.00     0.253 C 
HETATM   11  O1  UNL     1      46.053   9.885  -1.349  1.00  0.00    -0.268 OA
HETATM   12  N3  UNL     1      44.159   9.111  -0.334  1.00  0.00    -0.356 N 
ATOM     13  H3  UNL     1      43.482   9.192   0.424  1.00  0.00     0.162 HD
BRANCH  12  14
HETATM   14  C15 UNL     1      43.996   8.040  -1.309  1.00  0.00     0.129 C 
BRANCH  14  15
HETATM   15  C16 UNL     1      42.671   8.028  -1.991  1.00  0.00     0.027 C 
HETATM   16  C17 UNL     1      42.498   9.338  -2.758  1.00  0.00     0.010 C 
HETATM   17  C18 UNL     1      41.305   9.283  -3.675  1.00  0.00     0.027 C 
HETATM   18  C19 UNL     1      40.820   7.845  -3.775  1.00  0.00     0.167 C 
HETATM   19  O2  UNL     1      41.949   7.083  -4.099  1.00  0.00    -0.391 OA
HETATM   20  C20 UNL     1      42.631   6.838  -2.929  1.00  0.00     0.173 C 
ENDBRANCH  14  15
ENDBRANCH  12  14
ENDBRANCH   9  10
BRANCH   5  21
HETATM   21  N2  UNL     1      45.842  14.654   2.727  1.00  0.00    -0.383 N 
ATOM     22  H2  UNL     1      45.296  15.469   2.448  1.00  0.00     0.160 HD
BRANCH  21  23
HETATM   23  C5  UNL     1      46.712  14.749   3.864  1.00  0.00     0.082 C 
HETATM   24  C6  UNL     1      47.958  15.488   3.517  1.00  0.00     0.025 C 
HETATM   25  C7  UNL     1      48.036  16.751   4.334  1.00  0.00     0.002 C 
HETATM   26  C8  UNL     1      46.754  17.555   4.242  1.00  0.00     0.000 C 
HETATM   27  C9  UNL     1      45.581  16.774   4.800  1.00  0.00     0.002 C 
HETATM   28  C10 UNL     1      45.959  15.329   5.047  1.00  0.00     0.025 C 
ENDBRANCH  21  23
ENDBRANCH   5  21
TORSDOF 5
ENDMDL
MODEL 2
REMARK VINA RESULT: -8.333102389      1.109      1.331
REMARK  5 active torsions:
REMARK  status: ('A' for Active; 'I' for Inactive)
REMARK    1  A    between atoms: C4_5  and  N2_6 
REMARK    2  A    between atoms: N2_6  and  C5_8 
REMARK    3  A    between atoms: C13_17  and  C14_18 
REMARK       I    between atoms: C14_18  and  N3_20 
REMARK    4  A    between atoms: N3_20  and  C15_22 
REMARK    5  A    between atoms: C15_22  and  C16_23 
ROOT
HETATM    1  N1  UNL     1      48.125   9.040   2.187  1.00  0.00    -0.191 NA
HETATM    2  C1  UNL     1      47.409   9.912   1.890  1.00  0.00     0.100 C 
HETATM    3  C2  UNL     1      46.512  10.995   1.564  1.00  0.00     0.062 A 
HETATM    4  C3  UNL     1      46.670  12.220   2.199  1.00  0.00     0.056 A 
HETATM    5  C4  UNL     1      45.795  13.240   1.956  1.00  0.00     0.069 A 
HETATM    6  C11 UNL     1      44.741  13.061   1.072  1.00  0.00     0.143 A 
HETATM    7  F1  UNL     1      43.872  14.073   0.831  1.00  0.00    -0.204 F 
HETATM    8  C12 UNL     1      44.603  11.847   0.456  1.00  0.00     0.063 A 
HETATM    9  C13 UNL     1      45.497  10.778   0.690  1.00  0.00     0.055 A 
ENDROOT
BRANCH   9  10
HETATM   10  C14 UNL     1      45.243   9.602  -0.103  1.00  0.00     0.253 C 
HETATM   11  O1  UNL     1      44.544   8.681   0.445  1.00  0.00    -0.268 OA
HETATM   12  N3  UNL     1      45.679   9.375  -1.411  1.00  0.00    -0.356 N 
ATOM     13  H3  UNL     1      46.221  10.099  -1.881  1.00  0.00     0.162 HD
BRANCH  12  14
HETATM   14  C15 UNL     1      45.387   8.141  -2.131  1.00  0.00     0.129 C 
BRANCH  14  15
HETATM   15  C16 UNL     1      44.193   8.216  -3.019  1.00  0.00     0.027 C 
HETATM   16  C17 UNL     1      43.003   7.581  -2.303  1.00  0.00     0.010 C 
HETATM   17  C18 UNL     1      41.713   7.856  -3.031  1.00  0.00     0.027 C 
HETATM   18  C19 UNL     1      41.956   8.924  -4.086  1.00  0.00     0.167 C 
HETATM   19  O2  UNL     1      42.587   9.982  -3.420  1.00  0.00    -0.391 OA
HETATM   20  C20 UNL     1      43.926   9.675  -3.332  1.00  0.00     0.173 C 
ENDBRANCH  14  15
ENDBRANCH  12  14
ENDBRANCH   9  10
BRANCH   5  21
HETATM   21  N2  UNL     1      45.918  14.486   2.585  1.00  0.00    -0.383 N 
ATOM     22  H2  UNL     1      45.441  15.294   2.185  1.00  0.00     0.160 HD
BRANCH  21  23
HETATM   23  C5  UNL     1      46.699  14.653   3.777  1.00  0.00     0.082 C 
HETATM   24  C6  UNL     1      47.914  15.470   3.504  1.00  0.00     0.025 C 
HETATM   25  C7  UNL     1      47.851  16.744   4.305  1.00  0.00     0.002 C 
HETATM   26  C8  UNL     1      46.527  17.459   4.112  1.00  0.00     0.000 C 
HETATM   27  C9  UNL     1      45.373  16.606   4.601  1.00  0.00     0.002 C 
HETATM   28  C10 UNL     1      45.828  15.193   4.897  1.00  0.00     0.025 C 
ENDBRANCH  21  23
ENDBRANCH   5  21
TORSDOF 5
ENDMDL
MODEL 3
REMARK VINA RESULT: -7.990129571      3.121      9.184
REMARK  5 active torsions:
REMARK  status: ('A' for Active; 'I' for Inactive)
REMARK    1  A    between atoms: C4_5  and  N2_6 
REMARK    2  A    between atoms: N2_6  and  C5_8 
REMARK    3  A    between atoms: C13_17  and  C14_18 
REMARK       I    between atoms: C14_18  and  N3_20 
REMARK    4  A    between atoms: N3_20  and  C15_22 
REMARK    5  A    between atoms: C15_22  and  C16_23 
ROOT
HETATM    1  N1  UNL     1      44.007  16.289  -1.306  1.00  0.00    -0.191 NA
HETATM    2  C1  UNL     1      44.189  15.177  -1.002  1.00  0.00     0.100 C 
HETATM    3  C2  UNL     1      44.380  13.790  -0.650  1.00  0.00     0.062 A 
HETATM    4  C3  UNL     1      44.508  12.846  -1.660  1.00  0.00     0.056 A 
HETATM    5  C4  UNL     1      44.625  11.521  -1.352  1.00  0.00     0.069 A 
HETATM    6  C11 UNL     1      44.616  11.107  -0.029  1.00  0.00     0.143 A 
HETATM    7  F1  UNL     1      44.731   9.791   0.277  1.00  0.00    -0.204 F 
HETATM    8  C12 UNL     1      44.490  12.053   0.952  1.00  0.00     0.063 A 
HETATM    9  C13 UNL     1      44.370  13.430   0.659  1.00  0.00     0.055 A 
ENDROOT
BRANCH   9  10
HETATM   10  C14 UNL     1      44.325  14.286   1.816  1.00  0.00     0.253 C 
HETATM   11  O1  UNL     1      43.378  15.146   1.857  1.00  0.00    -0.268 OA
HETATM   12  N3  UNL     1      45.208  14.263   2.899  1.00  0.00    -0.356 N 
ATOM     13  H3  UNL     1      45.961  13.576   2.904  1.00  0.00     0.162 HD
BRANCH  12  14
HETATM   14  C15 UNL     1      45.094  15.185   4.023  1.00  0.00     0.129 C 
BRANCH  14  15
HETATM   15  C16 UNL     1      46.392  15.747   4.491  1.00  0.00     0.027 C 
HETATM   16  C17 UNL     1      47.459  15.472   3.433  1.00  0.00     0.010 C 
HETATM   17  C18 UNL     1      48.725  16.235   3.720  1.00  0.00     0.027 C 
HETATM   18  C19 UNL     1      48.449  17.267   4.803  1.00  0.00     0.167 C 
HETATM   19  O2  UNL     1      47.322  17.978   4.375  1.00  0.00    -0.391 OA
HETATM   20  C20 UNL     1      46.213  17.235   4.711  1.00  0.00     0.173 C 
ENDBRANCH  14  15
ENDBRANCH  12  14
ENDBRANCH   9  10
BRANCH   5  21
HETATM   21  N2  UNL     1      44.747  10.538  -2.345  1.00  0.00    -0.383 N 
ATOM     22  H2  UNL     1      45.570   9.936  -2.350  1.00  0.00     0.160 HD
BRANCH  21  23
HETATM   23  C5  UNL     1      43.740  10.359  -3.352  1.00  0.00     0.082 C 
HETATM   24  C6  UNL     1      44.251   9.508  -4.463  1.00  0.00     0.025 C 
HETATM   25  C7  UNL     1      43.439   8.241  -4.537  1.00  0.00     0.002 C 
HETATM   26  C8  UNL     1      43.343   7.561  -3.185  1.00  0.00     0.000 C 
HETATM   27  C9  UNL     1      42.635   8.448  -2.179  1.00  0.00     0.002 C 
HETATM   28  C10 UNL     1      42.458   9.851  -2.721  1.00  0.00     0.025 C 
ENDBRANCH  21  23
ENDBRANCH   5  21
TORSDOF 5
ENDMDL
MODEL 4
REMARK VINA RESULT: -7.922627705      1.691      2.008
REMARK  5 active torsions:
REMARK  status: ('A' for Active; 'I' for Inactive)
REMARK    1  A    between atoms: C4_5  and  N2_6 
REMARK    2  A    between atoms: N2_6  and  C5_8 
REMARK    3  A    between atoms: C13_17  and  C14_18 
REMARK       I    between atoms: C14_18  and  N3_20 
REMARK    4  A    between atoms: N3_20  and  C15_22 
REMARK    5  A    between atoms: C15_22  and  C16_23 
ROOT
HETATM    1  N1  UNL     1      48.176   9.046   2.230  1.00  0.00    -0.191 NA
HETATM    2  C1  UNL     1      47.457   9.907   1.908  1.00  0.00     0.100 C 
HETATM    3  C2  UNL     1      46.554  10.976   1.551  1.00  0.00     0.062 A 
HETATM    4  C3  UNL     1      46.639  12.188   2.223  1.00  0.00     0.056 A 
HETATM    5  C4  UNL     1      45.755  13.191   1.948  1.00  0.00     0.069 A 
HETATM    6  C11 UNL     1      44.764  13.008   0.994  1.00  0.00     0.143 A 
HETATM    7  F1  UNL     1      43.885  14.003   0.721  1.00  0.00    -0.204 F 
HETATM    8  C12 UNL     1      44.698  11.806   0.343  1.00  0.00     0.063 A 
HETATM    9  C13 UNL     1      45.603  10.754   0.609  1.00  0.00     0.055 A 
ENDROOT
BRANCH   9  10
HETATM   10  C14 UNL     1      45.432   9.593  -0.225  1.00  0.00     0.253 C 
HETATM   11  O1  UNL     1      44.429   8.842   0.036  1.00  0.00    -0.268 OA
HETATM   12  N3  UNL     1      46.248   9.212  -1.295  1.00  0.00    -0.356 N 
ATOM     13  H3  UNL     1      47.043   9.801  -1.539  1.00  0.00     0.162 HD
BRANCH  12  14
HETATM   14  C15 UNL     1      46.005   8.004  -2.074  1.00  0.00     0.129 C 
BRANCH  14  15
HETATM   15  C16 UNL     1      45.567   8.256  -3.476  1.00  0.00     0.027 C 
HETATM   16  C17 UNL     1      44.050   8.429  -3.497  1.00  0.00     0.010 C 
HETATM   17  C18 UNL     1      43.574   8.942  -4.830  1.00  0.00     0.027 C 
HETATM   18  C19 UNL     1      44.774   9.409  -5.640  1.00  0.00     0.167 C 
HETATM   19  O2  UNL     1      45.484  10.279  -4.803  1.00  0.00    -0.391 OA
HETATM   20  C20 UNL     1      46.265   9.506  -3.973  1.00  0.00     0.173 C 
ENDBRANCH  14  15
ENDBRANCH  12  14
ENDBRANCH   9  10
BRANCH   5  21
HETATM   21  N2  UNL     1      45.804  14.424   2.611  1.00  0.00    -0.383 N 
ATOM     22  H2  UNL     1      45.259  15.207   2.249  1.00  0.00     0.160 HD
BRANCH  21  23
HETATM   23  C5  UNL     1      46.603  14.613   3.789  1.00  0.00     0.082 C 
HETATM   24  C6  UNL     1      47.835  15.387   3.473  1.00  0.00     0.025 C 
HETATM   25  C7  UNL     1      47.815  16.691   4.228  1.00  0.00     0.002 C 
HETATM   26  C8  UNL     1      46.508  17.432   4.025  1.00  0.00     0.000 C 
HETATM   27  C9  UNL     1      45.338  16.628   4.557  1.00  0.00     0.002 C 
HETATM   28  C10 UNL     1      45.761  15.215   4.898  1.00  0.00     0.025 C 
ENDBRANCH  21  23
ENDBRANCH   5  21
TORSDOF 5
ENDMDL
MODEL 5
REMARK VINA RESULT: -7.842232421      3.938      4.848
REMARK  5 active torsions:
REMARK  status: ('A' for Active; 'I' for Inactive)
REMARK    1  A    between atoms: C4_5  and  N2_6 
REMARK    2  A    between atoms: N2_6  and  C5_8 
REMARK    3  A    between atoms: C13_17  and  C14_18 
REMARK       I    between atoms: C14_18  and  N3_20 
REMARK    4  A    between atoms: N3_20  and  C15_22 
REMARK    5  A    between atoms: C15_22  and  C16_23 
ROOT
HETATM    1  N1  UNL     1      44.587  11.145  -0.174  1.00  0.00    -0.191 NA
HETATM    2  C1  UNL     1      44.547  12.255   0.185  1.00  0.00     0.100 C 
HETATM    3  C2  UNL     1      44.466  13.617   0.656  1.00  0.00     0.062 A 
HETATM    4  C3  UNL     1      44.583  13.872   2.016  1.00  0.00     0.056 A 
HETATM    5  C4  UNL     1      44.446  15.144   2.492  1.00  0.00     0.069 A 
HETATM    6  C11 UNL     1      44.188  16.193   1.621  1.00  0.00     0.143 A 
HETATM    7  F1  UNL     1      44.051  17.456   2.094  1.00  0.00    -0.204 F 
HETATM    8  C12 UNL     1      44.077  15.921   0.285  1.00  0.00     0.063 A 
HETATM    9  C13 UNL     1      44.217  14.613  -0.232  1.00  0.00     0.055 A 
ENDROOT
BRANCH   9  10
HETATM   10  C14 UNL     1      44.146  14.527  -1.668  1.00  0.00     0.253 C 
HETATM   11  O1  UNL     1      45.260  14.457  -2.294  1.00  0.00    -0.268 OA
HETATM   12  N3  UNL     1      42.981  14.504  -2.441  1.00  0.00    -0.356 N 
ATOM     13  H3  UNL     1      42.078  14.538  -1.968  1.00  0.00     0.162 HD
BRANCH  12  14
HETATM   14  C15 UNL     1      43.008  14.432  -3.896  1.00  0.00     0.129 C 
BRANCH  14  15
HETATM   15  C16 UNL     1      41.757  14.899  -4.557  1.00  0.00     0.027 C 
HETATM   16  C17 UNL     1      40.641  13.897  -4.268  1.00  0.00     0.010 C 
HETATM   17  C18 UNL     1      39.297  14.436  -4.682  1.00  0.00     0.027 C 
HETATM   18  C19 UNL     1      39.430  15.921  -4.984  1.00  0.00     0.167 C 
HETATM   19  O2  UNL     1      40.061  16.483  -3.868  1.00  0.00    -0.391 OA
HETATM   20  C20 UNL     1      41.414  16.270  -4.009  1.00  0.00     0.173 C 
ENDBRANCH  14  15
ENDBRANCH  12  14
ENDBRANCH   9  10
BRANCH   5  21
HETATM   21  N2  UNL     1      44.550  15.439   3.858  1.00  0.00    -0.383 N 
ATOM     22  H2  UNL     1      43.743  15.829   4.346  1.00  0.00     0.160 HD
BRANCH  21  23
HETATM   23  C5  UNL     1      45.763  15.203   4.588  1.00  0.00     0.082 C 
HETATM   24  C6  UNL     1      46.785  14.555   3.719  1.00  0.00     0.025 C 
HETATM   25  C7  UNL     1      47.972  15.471   3.573  1.00  0.00     0.002 C 
HETATM   26  C8  UNL     1      47.551  16.866   3.155  1.00  0.00     0.000 C 
HETATM   27  C9  UNL     1      46.664  17.504   4.207  1.00  0.00     0.002 C 
HETATM   28  C10 UNL     1      46.233  16.488   5.243  1.00  0.00     0.025 C 
ENDBRANCH  21  23
ENDBRANCH   5  21
TORSDOF 5
ENDMDL
