MODEL 1
REMARK VINA RESULT: -5.109330075      0.000      0.000
REMARK  2 active torsions:
REMARK  status: ('A' for Active; 'I' for Inactive)
REMARK    1  A    between atoms: C5_6  and  N1_7 
REMARK    2  A    between atoms: N1_7  and  C6_9 
ROOT
HETATM    1  N1  UNL     1      63.814  83.796  14.705  1.00  0.00    -0.395 N 
ATOM      2  H1  UNL     1      64.782  83.758  14.385  1.00  0.00     0.155 HD
ENDROOT
BRANCH   1   3
HETATM    3  C5  UNL     1      63.635  83.299  15.938  1.00  0.00     0.112 C 
HETATM    4  C1  UNL     1      63.089  84.067  17.093  1.00  0.00     0.192 C 
HETATM    5  F1  UNL     1      64.032  84.886  17.679  1.00  0.00    -0.247 F 
HETATM    6  C2  UNL     1      62.731  83.008  18.151  1.00  0.00     0.039 C 
HETATM    7  C3  UNL     1      62.726  81.681  17.470  1.00  0.00     0.005 C 
HETATM    8  C4  UNL     1      62.817  82.010  15.986  1.00  0.00     0.028 C 
ENDBRANCH   1   3
BRANCH   1   9
HETATM    9  C6  UNL     1      62.952  84.344  13.789  1.00  0.00     0.176 C 
HETATM   10  C7  UNL     1      61.984  85.290  14.411  1.00  0.00     0.046 C 
HETATM   11  C8  UNL     1      60.571  85.195  13.816  1.00  0.00     0.009 C 
HETATM   12  C9  UNL     1      60.823  85.123  12.326  1.00  0.00     0.044 C 
HETATM   13  C10 UNL     1      61.338  83.722  12.091  1.00  0.00     0.057 C 
HETATM   14  N2  UNL     1      62.344  83.307  12.985  1.00  0.00    -0.382 N 
ATOM     15  H2  UNL     1      62.626  82.330  13.062  1.00  0.00     0.160 HD
ENDBRANCH   1   9
TORSDOF 2
ENDMDL
MODEL 2
REMARK VINA RESULT: -4.237781593      2.048      4.838
REMARK  2 active torsions:
REMARK  status: ('A' for Active; 'I' for Inactive)
REMARK    1  A    between atoms: C5_6  and  N1_7 
REMARK    2  A    between atoms: N1_7  and  C6_9 
ROOT
HETATM    1  N1  UNL     1      63.644  84.017  14.107  1.00  0.00    -0.395 N 
ATOM      2  H1  UNL     1      64.541  84.208  13.659  1.00  0.00     0.155 HD
ENDROOT
BRANCH   1   3
HETATM    3  C5  UNL     1      62.586  84.274  13.326  1.00  0.00     0.112 C 
HETATM    4  C1  UNL     1      61.747  83.236  12.661  1.00  0.00     0.192 C 
HETATM    5  F1  UNL     1      62.332  82.735  11.516  1.00  0.00    -0.247 F 
HETATM    6  C2  UNL     1      60.478  83.975  12.199  1.00  0.00     0.039 C 
HETATM    7  C3  UNL     1      60.442  85.286  12.909  1.00  0.00     0.005 C 
HETATM    8  C4  UNL     1      61.536  85.184  13.963  1.00  0.00     0.028 C 
ENDBRANCH   1   3
BRANCH   1   9
HETATM    9  C6  UNL     1      63.760  83.549  15.392  1.00  0.00     0.176 C 
HETATM   10  C7  UNL     1      63.057  82.251  15.591  1.00  0.00     0.046 C 
HETATM   11  C8  UNL     1      62.345  82.145  16.949  1.00  0.00     0.009 C 
HETATM   12  C9  UNL     1      63.364  82.698  17.922  1.00  0.00     0.044 C 
HETATM   13  C10 UNL     1      63.343  84.191  17.692  1.00  0.00     0.057 C 
HETATM   14  N2  UNL     1      63.394  84.579  16.339  1.00  0.00    -0.382 N 
ATOM     15  H2  UNL     1      63.185  85.532  16.044  1.00  0.00     0.160 HD
ENDBRANCH   1   9
TORSDOF 2
ENDMDL
MODEL 3
REMARK VINA RESULT: -4.102631413      1.486      1.624
REMARK  2 active torsions:
REMARK  status: ('A' for Active; 'I' for Inactive)
REMARK    1  A    between atoms: C5_6  and  N1_7 
REMARK    2  A    between atoms: N1_7  and  C6_9 
ROOT
HETATM    1  N1  UNL     1      63.615  85.361  14.113  1.00  0.00    -0.395 N 
ATOM      2  H1  UNL     1      64.168  86.146  13.768  1.00  0.00     0.155 HD
ENDROOT
BRANCH   1   3
HETATM    3  C5  UNL     1      64.015  84.906  15.309  1.00  0.00     0.112 C 
HETATM    4  C1  UNL     1      63.113  84.653  16.469  1.00  0.00     0.192 C 
HETATM    5  F1  UNL     1      62.782  85.810  17.144  1.00  0.00    -0.247 F 
HETATM    6  C2  UNL     1      63.945  83.812  17.453  1.00  0.00     0.039 C 
HETATM    7  C3  UNL     1      65.132  83.298  16.710  1.00  0.00     0.005 C 
HETATM    8  C4  UNL     1      64.841  83.621  15.251  1.00  0.00     0.028 C 
ENDBRANCH   1   3
BRANCH   1   9
HETATM    9  C6  UNL     1      62.608  84.980  13.262  1.00  0.00     0.176 C 
HETATM   10  C7  UNL     1      61.255  85.190  13.849  1.00  0.00     0.046 C 
HETATM   11  C8  UNL     1      60.264  84.064  13.515  1.00  0.00     0.009 C 
HETATM   12  C9  UNL     1      60.503  83.815  12.041  1.00  0.00     0.044 C 
HETATM   13  C10 UNL     1      61.820  83.078  11.984  1.00  0.00     0.057 C 
HETATM   14  N2  UNL     1      62.845  83.643  12.767  1.00  0.00    -0.382 N 
ATOM     15  H2  UNL     1      63.706  83.137  12.973  1.00  0.00     0.160 HD
ENDBRANCH   1   9
TORSDOF 2
ENDMDL
MODEL 4
REMARK VINA RESULT: -4.100365711      2.025      4.757
REMARK  2 active torsions:
REMARK  status: ('A' for Active; 'I' for Inactive)
REMARK    1  A    between atoms: C5_6  and  N1_7 
REMARK    2  A    between atoms: N1_7  and  C6_9 
ROOT
HETATM    1  N1  UNL     1      62.533  85.440  14.893  1.00  0.00    -0.395 N 
ATOM      2  H1  UNL     1      62.360  86.425  15.092  1.00  0.00     0.155 HD
ENDROOT
BRANCH   1   3
HETATM    3  C5  UNL     1      62.041  85.034  13.714  1.00  0.00     0.112 C 
HETATM    4  C1  UNL     1      62.425  83.771  13.020  1.00  0.00     0.192 C 
HETATM    5  F1  UNL     1      63.630  83.877  12.356  1.00  0.00    -0.247 F 
HETATM    6  C2  UNL     1      61.358  83.567  11.931  1.00  0.00     0.039 C 
HETATM    7  C3  UNL     1      60.216  84.472  12.248  1.00  0.00     0.005 C 
HETATM    8  C4  UNL     1      60.515  84.991  13.648  1.00  0.00     0.028 C 
ENDBRANCH   1   3
BRANCH   1   9
HETATM    9  C6  UNL     1      63.225  84.791  15.885  1.00  0.00     0.176 C 
HETATM   10  C7  UNL     1      64.596  84.394  15.459  1.00  0.00     0.046 C 
HETATM   11  C8  UNL     1      65.022  83.015  15.984  1.00  0.00     0.009 C 
HETATM   12  C9  UNL     1      64.574  83.037  17.430  1.00  0.00     0.044 C 
HETATM   13  C10 UNL     1      63.072  82.880  17.368  1.00  0.00     0.057 C 
HETATM   14  N2  UNL     1      62.431  83.712  16.430  1.00  0.00    -0.382 N 
ATOM     15  H2  UNL     1      61.462  83.561  16.150  1.00  0.00     0.160 HD
ENDBRANCH   1   9
TORSDOF 2
ENDMDL
MODEL 5
REMARK VINA RESULT: -4.082646302      1.805      2.259
REMARK  2 active torsions:
REMARK  status: ('A' for Active; 'I' for Inactive)
REMARK    1  A    between atoms: C5_6  and  N1_7 
REMARK    2  A    between atoms: N1_7  and  C6_9 
ROOT
HETATM    1  N1  UNL     1      63.748  85.169  14.255  1.00  0.00    -0.395 N 
ATOM      2  H1  UNL     1      64.695  85.333  13.912  1.00  0.00     0.155 HD
ENDROOT
BRANCH   1   3
HETATM    3  C5  UNL     1      63.565  85.542  15.530  1.00  0.00     0.112 C 
HETATM    4  C1  UNL     1      62.491  86.461  16.002  1.00  0.00     0.192 C 
HETATM    5  F1  UNL     1      62.790  87.789  15.773  1.00  0.00    -0.247 F 
HETATM    6  C2  UNL     1      62.457  86.294  17.532  1.00  0.00     0.039 C 
HETATM    7  C3  UNL     1      63.221  85.055  17.862  1.00  0.00     0.005 C 
HETATM    8  C4  UNL     1      63.460  84.381  16.518  1.00  0.00     0.028 C 
ENDBRANCH   1   3
BRANCH   1   9
HETATM    9  C6  UNL     1      62.912  84.610  13.320  1.00  0.00     0.176 C 
HETATM   10  C7  UNL     1      61.676  85.413  13.108  1.00  0.00     0.046 C 
HETATM   11  C8  UNL     1      60.416  84.554  12.917  1.00  0.00     0.009 C 
HETATM   12  C9  UNL     1      60.876  83.467  11.969  1.00  0.00     0.044 C 
HETATM   13  C10 UNL     1      61.731  82.555  12.817  1.00  0.00     0.057 C 
HETATM   14  N2  UNL     1      62.676  83.217  13.624  1.00  0.00    -0.382 N 
ATOM     15  H2  UNL     1      63.167  82.739  14.381  1.00  0.00     0.160 HD
ENDBRANCH   1   9
TORSDOF 2
ENDMDL
