MODEL 1
REMARK VINA RESULT: -4.889347900      0.000      0.000
REMARK  2 active torsions:
REMARK  status: ('A' for Active; 'I' for Inactive)
REMARK    1  A    between atoms: C2_2  and  C3_3 
REMARK    2  A    between atoms: C5_5  and  C6_6 
ROOT
HETATM    1  C3  UNL     1      28.206  19.873  15.231  1.00  0.00     0.021 A 
HETATM    2  C4  UNL     1      27.517  21.034  14.634  1.00  0.00     0.023 A 
HETATM    3  C5  UNL     1      28.855  21.269  15.244  1.00  0.00     0.083 A 
ENDROOT
BRANCH   3   4
HETATM    4  C6  UNL     1      30.059  21.438  14.407  1.00  0.00     0.235 C 
HETATM    5  N1  UNL     1      29.957  22.219  13.223  1.00  0.00    -0.062 NA
HETATM    6  O1  UNL     1      31.169  20.941  14.667  1.00  0.00    -0.276 OA
ENDBRANCH   3   4
BRANCH   1   7
HETATM    7  C2  UNL     1      27.804  19.306  16.526  1.00  0.00    -0.031 C 
HETATM    8  C1  UNL     1      26.789  18.458  16.620  1.00  0.00     0.007 C 
ENDBRANCH   1   7
TORSDOF 2
ENDMDL
MODEL 2
REMARK VINA RESULT: -4.837481147      1.858      2.167
REMARK  2 active torsions:
REMARK  status: ('A' for Active; 'I' for Inactive)
REMARK    1  A    between atoms: C2_2  and  C3_3 
REMARK    2  A    between atoms: C5_5  and  C6_6 
ROOT
HETATM    1  C3  UNL     1      27.531  20.860  14.898  1.00  0.00     0.021 A 
HETATM    2  C4  UNL     1      28.520  19.787  14.678  1.00  0.00     0.023 A 
HETATM    3  C5  UNL     1      28.769  21.097  14.014  1.00  0.00     0.083 A 
ENDROOT
BRANCH   3   4
HETATM    4  C6  UNL     1      29.776  22.041  14.537  1.00  0.00     0.235 C 
HETATM    5  N1  UNL     1      31.052  21.534  14.907  1.00  0.00    -0.062 NA
HETATM    6  O1  UNL     1      29.586  23.261  14.678  1.00  0.00    -0.276 OA
ENDBRANCH   3   4
BRANCH   1   7
HETATM    7  C2  UNL     1      26.220  20.865  14.234  1.00  0.00    -0.031 C 
HETATM    8  C1  UNL     1      25.309  19.939  14.506  1.00  0.00     0.007 C 
ENDBRANCH   1   7
TORSDOF 2
ENDMDL
MODEL 3
REMARK VINA RESULT: -4.832471930      1.158      1.158
REMARK  2 active torsions:
REMARK  status: ('A' for Active; 'I' for Inactive)
REMARK    1  A    between atoms: C2_2  and  C3_3 
REMARK    2  A    between atoms: C5_5  and  C6_6 
ROOT
HETATM    1  C3  UNL     1      28.104  19.882  15.271  1.00  0.00     0.021 A 
HETATM    2  C4  UNL     1      27.294  20.976  14.701  1.00  0.00     0.023 A 
HETATM    3  C5  UNL     1      28.653  21.319  15.204  1.00  0.00     0.083 A 
ENDROOT
BRANCH   3   4
HETATM    4  C6  UNL     1      29.778  21.546  14.275  1.00  0.00     0.235 C 
HETATM    5  N1  UNL     1      31.073  21.100  14.658  1.00  0.00    -0.062 NA
HETATM    6  O1  UNL     1      29.673  22.107  13.170  1.00  0.00    -0.276 OA
ENDBRANCH   3   4
BRANCH   1   7
HETATM    7  C2  UNL     1      27.839  19.325  16.605  1.00  0.00    -0.031 C 
HETATM    8  C1  UNL     1      27.032  18.285  16.767  1.00  0.00     0.007 C 
ENDBRANCH   1   7
TORSDOF 2
ENDMDL
MODEL 4
REMARK VINA RESULT: -4.829096262      3.041      3.669
REMARK  2 active torsions:
REMARK  status: ('A' for Active; 'I' for Inactive)
REMARK    1  A    between atoms: C2_2  and  C3_3 
REMARK    2  A    between atoms: C5_5  and  C6_6 
ROOT
HETATM    1  C3  UNL     1      26.823  19.757  15.511  1.00  0.00     0.021 A 
HETATM    2  C4  UNL     1      27.549  18.505  15.221  1.00  0.00     0.023 A 
HETATM    3  C5  UNL     1      28.272  19.554  15.991  1.00  0.00     0.083 A 
ENDROOT
BRANCH   3   4
HETATM    4  C6  UNL     1      28.468  19.436  17.449  1.00  0.00     0.235 C 
HETATM    5  N1  UNL     1      29.416  20.290  18.077  1.00  0.00    -0.062 NA
HETATM    6  O1  UNL     1      27.856  18.634  18.176  1.00  0.00    -0.276 OA
ENDBRANCH   3   4
BRANCH   1   7
HETATM    7  C2  UNL     1      26.591  20.783  14.485  1.00  0.00    -0.031 C 
HETATM    8  C1  UNL     1      25.425  20.879  13.860  1.00  0.00     0.007 C 
ENDBRANCH   1   7
TORSDOF 2
ENDMDL
MODEL 5
REMARK VINA RESULT: -4.809769485      1.640      2.171
REMARK  2 active torsions:
REMARK  status: ('A' for Active; 'I' for Inactive)
REMARK    1  A    between atoms: C2_2  and  C3_3 
REMARK    2  A    between atoms: C5_5  and  C6_6 
ROOT
HETATM    1  C3  UNL     1      27.693  20.878  14.998  1.00  0.00     0.021 A 
HETATM    2  C4  UNL     1      28.534  20.402  16.113  1.00  0.00     0.023 A 
HETATM    3  C5  UNL     1      28.968  20.058  14.731  1.00  0.00     0.083 A 
ENDROOT
BRANCH   3   4
HETATM    4  C6  UNL     1      30.082  20.774  14.078  1.00  0.00     0.235 C 
HETATM    5  N1  UNL     1      31.137  21.271  14.891  1.00  0.00    -0.062 NA
HETATM    6  O1  UNL     1      30.164  20.974  12.854  1.00  0.00    -0.276 OA
ENDBRANCH   3   4
BRANCH   1   7
HETATM    7  C2  UNL     1      26.407  20.250  14.664  1.00  0.00    -0.031 C 
HETATM    8  C1  UNL     1      25.503  20.884  13.929  1.00  0.00     0.007 C 
ENDBRANCH   1   7
TORSDOF 2
ENDMDL
