MODEL 1
REMARK VINA RESULT: -7.773218031      0.000      0.000
REMARK  10 active torsions:
REMARK  status: ('A' for Active; 'I' for Inactive)
REMARK    1  A    between atoms: C2_3  and  N2_4 
REMARK    2  A    between atoms: N2_4  and  C3_5 
REMARK    3  A    between atoms: N2_4  and  C10_17 
REMARK    4  A    between atoms: C3_5  and  C4_6 
REMARK    5  A    between atoms: C4_6  and  C5_7 
REMARK    6  A    between atoms: C5_7  and  C6_8 
REMARK    7  A    between atoms: C6_8  and  C7_9 
REMARK    8  A    between atoms: C7_9  and  N3_10 
REMARK    9  A    between atoms: C10_17  and  C11_18 
REMARK   10  A    between atoms: C11_18  and  N6_19 
ROOT
HETATM    1  N1  UNL     1      28.145  16.849  12.110  1.00  0.00    -0.191 NA
HETATM    2  C1  UNL     1      28.544  17.942  12.315  1.00  0.00     0.105 C 
HETATM    3  C2  UNL     1      29.061  19.276  12.526  1.00  0.00     0.184 C 
ENDROOT
BRANCH   3   4
HETATM    4  N2  UNL     1      28.102  20.212  12.872  1.00  0.00    -0.360 N 
BRANCH   4   5
HETATM    5  C3  UNL     1      26.756  20.124  12.538  1.00  0.00     0.064 C 
BRANCH   5   6
HETATM    6  C4  UNL     1      25.826  20.213  13.711  1.00  0.00     0.045 C 
BRANCH   6   7
HETATM    7  C5  UNL     1      25.063  18.888  13.873  1.00  0.00     0.007 C 
BRANCH   7   8
HETATM    8  C6  UNL     1      25.347  18.283  15.213  1.00  0.00     0.022 C 
BRANCH   8   9
HETATM    9  C7  UNL     1      26.714  17.713  15.351  1.00  0.00     0.150 C 
BRANCH   9  10
HETATM   10  N3  UNL     1      27.483  18.288  16.436  1.00  0.00    -0.288 N 
HETATM   11  C8  UNL     1      28.352  19.285  16.450  1.00  0.00     0.130 A 
HETATM   12  C9  UNL     1      28.790  19.428  17.754  1.00  0.00     0.127 A 
HETATM   13  N4  UNL     1      28.162  18.505  18.470  1.00  0.00    -0.296 N 
HETATM   14  N5  UNL     1      27.372  17.815  17.678  1.00  0.00    -0.241 N 
ATOM     15  H4  UNL     1      28.274  18.356  19.472  1.00  0.00     0.187 HD
ATOM     16  H5  UNL     1      26.772  17.043  17.967  1.00  0.00     0.208 HD
ENDBRANCH   9  10
ENDBRANCH   8   9
ENDBRANCH   7   8
ENDBRANCH   6   7
ENDBRANCH   5   6
ENDBRANCH   4   5
BRANCH   4  17
HETATM   17  C10 UNL     1      28.592  21.577  12.994  1.00  0.00     0.158 C 
BRANCH  17  18
HETATM   18  C11 UNL     1      29.219  21.908  14.291  1.00  0.00     0.293 C 
BRANCH  18  19
HETATM   19  N6  UNL     1      30.175  22.981  14.124  1.00  0.00     0.097 N 
HETATM   20  C12 UNL     1      29.630  24.235  14.653  1.00  0.00     0.280 C 
HETATM   21  C13 UNL     1      29.966  24.231  16.128  1.00  0.00     0.110 C 
HETATM   22  C14 UNL     1      31.117  23.328  16.240  1.00  0.00     0.156 C 
HETATM   23  O1  UNL     1      31.756  23.044  17.233  1.00  0.00    -0.296 OA
HETATM   24  C15 UNL     1      31.396  22.783  14.880  1.00  0.00     0.350 C 
ENDBRANCH  18  19
ENDBRANCH  17  18
ENDBRANCH   4  17
ENDBRANCH   3   4
TORSDOF 10
ENDMDL
MODEL 2
REMARK VINA RESULT: -7.666570137      2.409      5.298
REMARK  10 active torsions:
REMARK  status: ('A' for Active; 'I' for Inactive)
REMARK    1  A    between atoms: C2_3  and  N2_4 
REMARK    2  A    between atoms: N2_4  and  C3_5 
REMARK    3  A    between atoms: N2_4  and  C10_17 
REMARK    4  A    between atoms: C3_5  and  C4_6 
REMARK    5  A    between atoms: C4_6  and  C5_7 
REMARK    6  A    between atoms: C5_7  and  C6_8 
REMARK    7  A    between atoms: C6_8  and  C7_9 
REMARK    8  A    between atoms: C7_9  and  N3_10 
REMARK    9  A    between atoms: C10_17  and  C11_18 
REMARK   10  A    between atoms: C11_18  and  N6_19 
ROOT
HETATM    1  N1  UNL     1      28.520  15.449  10.777  1.00  0.00    -0.191 NA
HETATM    2  C1  UNL     1      29.095  16.382  11.219  1.00  0.00     0.105 C 
HETATM    3  C2  UNL     1      29.843  17.504  11.743  1.00  0.00     0.184 C 
ENDROOT
BRANCH   3   4
HETATM    4  N2  UNL     1      29.270  18.739  11.492  1.00  0.00    -0.360 N 
BRANCH   4   5
HETATM    5  C3  UNL     1      29.925  19.805  10.888  1.00  0.00     0.064 C 
BRANCH   5   6
HETATM    6  C4  UNL     1      29.082  21.035  10.735  1.00  0.00     0.045 C 
BRANCH   6   7
HETATM    7  C5  UNL     1      29.952  22.204  10.243  1.00  0.00     0.007 C 
BRANCH   7   8
HETATM    8  C6  UNL     1      30.381  23.058  11.397  1.00  0.00     0.022 C 
BRANCH   8   9
HETATM    9  C7  UNL     1      29.461  23.014  12.565  1.00  0.00     0.150 C 
BRANCH   9  10
HETATM   10  N3  UNL     1      30.123  22.728  13.822  1.00  0.00    -0.288 N 
HETATM   11  C8  UNL     1      30.402  23.510  14.853  1.00  0.00     0.130 A 
HETATM   12  C9  UNL     1      31.039  22.727  15.799  1.00  0.00     0.127 A 
HETATM   13  N4  UNL     1      31.114  21.504  15.293  1.00  0.00    -0.296 N 
HETATM   14  N5  UNL     1      30.563  21.500  14.100  1.00  0.00    -0.241 N 
ATOM     15  H4  UNL     1      31.532  20.697  15.755  1.00  0.00     0.187 HD
ATOM     16  H5  UNL     1      30.484  20.689  13.487  1.00  0.00     0.208 HD
ENDBRANCH   9  10
ENDBRANCH   8   9
ENDBRANCH   7   8
ENDBRANCH   6   7
ENDBRANCH   5   6
ENDBRANCH   4   5
BRANCH   4  17
HETATM   17  C10 UNL     1      28.235  19.138  12.435  1.00  0.00     0.158 C 
BRANCH  17  18
HETATM   18  C11 UNL     1      28.355  18.553  13.787  1.00  0.00     0.293 C 
BRANCH  18  19
HETATM   19  N6  UNL     1      27.672  19.386  14.753  1.00  0.00     0.097 N 
HETATM   20  C12 UNL     1      26.231  19.402  14.483  1.00  0.00     0.280 C 
HETATM   21  C13 UNL     1      25.673  18.194  15.203  1.00  0.00     0.110 C 
HETATM   22  C14 UNL     1      26.653  17.909  16.257  1.00  0.00     0.156 C 
HETATM   23  O1  UNL     1      26.608  17.049  17.113  1.00  0.00    -0.296 OA
HETATM   24  C15 UNL     1      27.769  18.886  16.111  1.00  0.00     0.350 C 
ENDBRANCH  18  19
ENDBRANCH  17  18
ENDBRANCH   4  17
ENDBRANCH   3   4
TORSDOF 10
ENDMDL
MODEL 3
REMARK VINA RESULT: -7.651996527      4.117      5.371
REMARK  10 active torsions:
REMARK  status: ('A' for Active; 'I' for Inactive)
REMARK    1  A    between atoms: C2_3  and  N2_4 
REMARK    2  A    between atoms: N2_4  and  C3_5 
REMARK    3  A    between atoms: N2_4  and  C10_17 
REMARK    4  A    between atoms: C3_5  and  C4_6 
REMARK    5  A    between atoms: C4_6  and  C5_7 
REMARK    6  A    between atoms: C5_7  and  C6_8 
REMARK    7  A    between atoms: C6_8  and  C7_9 
REMARK    8  A    between atoms: C7_9  and  N3_10 
REMARK    9  A    between atoms: C10_17  and  C11_18 
REMARK   10  A    between atoms: C11_18  and  N6_19 
ROOT
HETATM    1  N1  UNL     1      28.934  24.277  13.567  1.00  0.00    -0.191 NA
HETATM    2  C1  UNL     1      29.229  23.209  13.157  1.00  0.00     0.105 C 
HETATM    3  C2  UNL     1      29.575  21.882  12.699  1.00  0.00     0.184 C 
ENDROOT
BRANCH   3   4
HETATM    4  N2  UNL     1      29.192  21.609  11.398  1.00  0.00    -0.360 N 
BRANCH   4   5
HETATM    5  C3  UNL     1      28.569  20.437  10.987  1.00  0.00     0.064 C 
BRANCH   5   6
HETATM    6  C4  UNL     1      27.863  19.700  12.085  1.00  0.00     0.045 C 
BRANCH   6   7
HETATM    7  C5  UNL     1      26.358  20.013  12.039  1.00  0.00     0.007 C 
BRANCH   7   8
HETATM    8  C6  UNL     1      25.854  20.361  13.406  1.00  0.00     0.022 C 
BRANCH   8   9
HETATM    9  C7  UNL     1      25.101  19.267  14.076  1.00  0.00     0.150 C 
BRANCH   9  10
HETATM   10  N3  UNL     1      25.834  18.619  15.145  1.00  0.00    -0.288 N 
HETATM   11  C8  UNL     1      27.012  18.896  15.681  1.00  0.00     0.130 A 
HETATM   12  C9  UNL     1      27.237  17.963  16.677  1.00  0.00     0.127 A 
HETATM   13  N4  UNL     1      26.181  17.163  16.695  1.00  0.00    -0.296 N 
HETATM   14  N5  UNL     1      25.331  17.555  15.772  1.00  0.00    -0.241 N 
ATOM     15  H4  UNL     1      26.048  16.372  17.324  1.00  0.00     0.187 HD
ATOM     16  H5  UNL     1      24.434  17.117  15.569  1.00  0.00     0.208 HD
ENDBRANCH   9  10
ENDBRANCH   8   9
ENDBRANCH   7   8
ENDBRANCH   6   7
ENDBRANCH   5   6
ENDBRANCH   4   5
BRANCH   4  17
HETATM   17  C10 UNL     1      30.018  22.231  10.372  1.00  0.00     0.158 C 
BRANCH  17  18
HETATM   18  C11 UNL     1      30.654  21.294   9.422  1.00  0.00     0.293 C 
BRANCH  18  19
HETATM   19  N6  UNL     1      31.534  22.012   8.527  1.00  0.00     0.097 N 
HETATM   20  C12 UNL     1      32.892  22.060   9.078  1.00  0.00     0.280 C 
HETATM   21  C13 UNL     1      33.557  20.778   8.626  1.00  0.00     0.110 C 
HETATM   22  C14 UNL     1      32.802  20.375   7.434  1.00  0.00     0.156 C 
HETATM   23  O1  UNL     1      32.999  19.423   6.706  1.00  0.00    -0.296 OA
HETATM   24  C15 UNL     1      31.701  21.361   7.242  1.00  0.00     0.350 C 
ENDBRANCH  18  19
ENDBRANCH  17  18
ENDBRANCH   4  17
ENDBRANCH   3   4
TORSDOF 10
ENDMDL
MODEL 4
REMARK VINA RESULT: -7.623010388      2.595      5.642
REMARK  10 active torsions:
REMARK  status: ('A' for Active; 'I' for Inactive)
REMARK    1  A    between atoms: C2_3  and  N2_4 
REMARK    2  A    between atoms: N2_4  and  C3_5 
REMARK    3  A    between atoms: N2_4  and  C10_17 
REMARK    4  A    between atoms: C3_5  and  C4_6 
REMARK    5  A    between atoms: C4_6  and  C5_7 
REMARK    6  A    between atoms: C5_7  and  C6_8 
REMARK    7  A    between atoms: C6_8  and  C7_9 
REMARK    8  A    between atoms: C7_9  and  N3_10 
REMARK    9  A    between atoms: C10_17  and  C11_18 
REMARK   10  A    between atoms: C11_18  and  N6_19 
ROOT
HETATM    1  N1  UNL     1      30.697  20.351  14.489  1.00  0.00    -0.191 NA
HETATM    2  C1  UNL     1      30.226  19.676  13.641  1.00  0.00     0.105 C 
HETATM    3  C2  UNL     1      29.622  18.826  12.639  1.00  0.00     0.184 C 
ENDROOT
BRANCH   3   4
HETATM    4  N2  UNL     1      29.213  19.492  11.497  1.00  0.00    -0.360 N 
BRANCH   4   5
HETATM    5  C3  UNL     1      30.072  20.058  10.562  1.00  0.00     0.064 C 
BRANCH   5   6
HETATM    6  C4  UNL     1      29.567  21.334   9.959  1.00  0.00     0.045 C 
BRANCH   6   7
HETATM    7  C5  UNL     1      30.730  22.328   9.796  1.00  0.00     0.007 C 
BRANCH   7   8
HETATM    8  C6  UNL     1      30.977  23.057  11.080  1.00  0.00     0.022 C 
BRANCH   8   9
HETATM    9  C7  UNL     1      29.780  23.179  11.955  1.00  0.00     0.150 C 
BRANCH   9  10
HETATM   10  N3  UNL     1      30.094  23.426  13.348  1.00  0.00    -0.288 N 
HETATM   11  C8  UNL     1      29.333  23.838  14.349  1.00  0.00     0.130 A 
HETATM   12  C9  UNL     1      30.135  23.899  15.474  1.00  0.00     0.127 A 
HETATM   13  N4  UNL     1      31.348  23.519  15.098  1.00  0.00    -0.296 N 
HETATM   14  N5  UNL     1      31.328  23.233  13.816  1.00  0.00    -0.241 N 
ATOM     15  H4  UNL     1      32.164  23.458  15.706  1.00  0.00     0.187 HD
ATOM     16  H5  UNL     1      32.126  22.914  13.267  1.00  0.00     0.208 HD
ENDBRANCH   9  10
ENDBRANCH   8   9
ENDBRANCH   7   8
ENDBRANCH   6   7
ENDBRANCH   5   6
ENDBRANCH   4   5
BRANCH   4  17
HETATM   17  C10 UNL     1      27.931  20.173  11.609  1.00  0.00     0.158 C 
BRANCH  17  18
HETATM   18  C11 UNL     1      26.815  19.337  12.100  1.00  0.00     0.293 C 
BRANCH  18  19
HETATM   19  N6  UNL     1      26.011  20.083  13.043  1.00  0.00     0.097 N 
HETATM   20  C12 UNL     1      25.068  19.192  13.725  1.00  0.00     0.280 C 
HETATM   21  C13 UNL     1      25.830  18.621  14.901  1.00  0.00     0.110 C 
HETATM   22  C14 UNL     1      26.895  19.598  15.157  1.00  0.00     0.156 C 
HETATM   23  O1  UNL     1      27.734  19.582  16.034  1.00  0.00    -0.296 OA
HETATM   24  C15 UNL     1      26.785  20.666  14.122  1.00  0.00     0.350 C 
ENDBRANCH  18  19
ENDBRANCH  17  18
ENDBRANCH   4  17
ENDBRANCH   3   4
TORSDOF 10
ENDMDL
MODEL 5
REMARK VINA RESULT: -7.574410913      4.044      4.897
REMARK  10 active torsions:
REMARK  status: ('A' for Active; 'I' for Inactive)
REMARK    1  A    between atoms: C2_3  and  N2_4 
REMARK    2  A    between atoms: N2_4  and  C3_5 
REMARK    3  A    between atoms: N2_4  and  C10_17 
REMARK    4  A    between atoms: C3_5  and  C4_6 
REMARK    5  A    between atoms: C4_6  and  C5_7 
REMARK    6  A    between atoms: C5_7  and  C6_8 
REMARK    7  A    between atoms: C6_8  and  C7_9 
REMARK    8  A    between atoms: C7_9  and  N3_10 
REMARK    9  A    between atoms: C10_17  and  C11_18 
REMARK   10  A    between atoms: C11_18  and  N6_19 
ROOT
HETATM    1  N1  UNL     1      28.613  16.575  11.642  1.00  0.00    -0.191 NA
HETATM    2  C1  UNL     1      29.303  17.535  11.648  1.00  0.00     0.105 C 
HETATM    3  C2  UNL     1      30.178  18.686  11.625  1.00  0.00     0.184 C 
ENDROOT
BRANCH   3   4
HETATM    4  N2  UNL     1      29.526  19.896  11.461  1.00  0.00    -0.360 N 
BRANCH   4   5
HETATM    5  C3  UNL     1      28.167  20.095  11.669  1.00  0.00     0.064 C 
BRANCH   5   6
HETATM    6  C4  UNL     1      27.825  20.610  13.035  1.00  0.00     0.045 C 
BRANCH   6   7
HETATM    7  C5  UNL     1      26.341  20.339  13.336  1.00  0.00     0.007 C 
BRANCH   7   8
HETATM    8  C6  UNL     1      26.200  19.563  14.609  1.00  0.00     0.022 C 
BRANCH   8   9
HETATM    9  C7  UNL     1      27.353  18.674  14.915  1.00  0.00     0.150 C 
BRANCH   9  10
HETATM   10  N3  UNL     1      27.879  18.836  16.255  1.00  0.00    -0.288 N 
HETATM   11  C8  UNL     1      28.763  19.691  16.743  1.00  0.00     0.130 A 
HETATM   12  C9  UNL     1      28.900  19.413  18.091  1.00  0.00     0.127 A 
HETATM   13  N4  UNL     1      28.089  18.399  18.355  1.00  0.00    -0.296 N 
HETATM   14  N5  UNL     1      27.471  18.047  17.250  1.00  0.00    -0.241 N 
ATOM     15  H4  UNL     1      27.964  17.962  19.268  1.00  0.00     0.187 HD
ATOM     16  H5  UNL     1      26.790  17.292  17.167  1.00  0.00     0.208 HD
ENDBRANCH   9  10
ENDBRANCH   8   9
ENDBRANCH   7   8
ENDBRANCH   6   7
ENDBRANCH   5   6
ENDBRANCH   4   5
BRANCH   4  17
HETATM   17  C10 UNL     1      30.104  20.772  10.452  1.00  0.00     0.158 C 
BRANCH  17  18
HETATM   18  C11 UNL     1      31.209  20.185   9.666  1.00  0.00     0.293 C 
BRANCH  18  19
HETATM   19  N6  UNL     1      31.787  21.184   8.794  1.00  0.00     0.097 N 
HETATM   20  C12 UNL     1      33.181  21.441   9.168  1.00  0.00     0.280 C 
HETATM   21  C13 UNL     1      33.995  20.399   8.432  1.00  0.00     0.110 C 
HETATM   22  C14 UNL     1      33.152  20.009   7.297  1.00  0.00     0.156 C 
HETATM   23  O1  UNL     1      33.407  19.225   6.405  1.00  0.00    -0.296 OA
HETATM   24  C15 UNL     1      31.868  20.760   7.410  1.00  0.00     0.350 C 
ENDBRANCH  18  19
ENDBRANCH  17  18
ENDBRANCH   4  17
ENDBRANCH   3   4
TORSDOF 10
ENDMDL
