MODEL 1
REMARK VINA RESULT: -5.670822428      0.000      0.000
REMARK  7 active torsions:
REMARK  status: ('A' for Active; 'I' for Inactive)
REMARK    1  A    between atoms: N1_2  and  C2_4 
REMARK    2  A    between atoms: C2_4  and  N2_6 
REMARK    3  A    between atoms: N2_6  and  N3_8 
REMARK    4  A    between atoms: C3_10  and  C4_11 
REMARK    5  A    between atoms: C3_10  and  C6_14 
REMARK    6  A    between atoms: C6_14  and  C7_15 
REMARK    7  A    between atoms: C7_15  and  C9_18 
ROOT
HETATM    1  C4  UNL     1      44.982  13.699  -0.136  1.00  0.00     0.177 C 
HETATM    2  C5  UNL     1      44.122  14.831  -0.565  1.00  0.00     0.065 C 
HETATM    3  N4  UNL     1      43.462  15.720  -0.895  1.00  0.00    -0.197 NA
ENDROOT
BRANCH   1   4
HETATM    4  C3  UNL     1      44.686  13.302   1.241  1.00  0.00     0.018 C 
HETATM    5  N3  UNL     1      44.622  12.056   1.535  1.00  0.00    -0.306 N 
ATOM      6  H3  UNL     1      44.412  11.824   2.506  1.00  0.00     0.186 HD
BRANCH   5   7
HETATM    7  N2  UNL     1      44.808  10.995   0.667  1.00  0.00    -0.277 N 
ATOM      8  H2  UNL     1      44.073  10.739   0.009  1.00  0.00     0.189 HD
BRANCH   7   9
HETATM    9  C2  UNL     1      46.019  10.266   0.692  1.00  0.00     0.186 C 
HETATM   10  S1  UNL     1      46.274   9.232  -0.583  1.00  0.00    -0.040 SA
BRANCH   9  11
HETATM   11  N1  UNL     1      46.992  10.357   1.696  1.00  0.00    -0.370 N 
HETATM   12  C1  UNL     1      47.751   9.250   2.172  1.00  0.00     0.148 C 
ATOM     13  H1  UNL     1      47.168  11.272   2.111  1.00  0.00     0.161 HD
ENDBRANCH   9  11
ENDBRANCH   7   9
ENDBRANCH   5   7
BRANCH   4  14
HETATM   14  C6  UNL     1      44.452  14.298   2.341  1.00  0.00     0.076 C 
BRANCH  14  15
HETATM   15  C7  UNL     1      45.728  15.028   2.680  1.00  0.00     0.120 C 
HETATM   16  C8  UNL     1      46.376  14.283   3.761  1.00  0.00     0.066 C 
HETATM   17  N5  UNL     1      46.890  13.700   4.632  1.00  0.00    -0.197 NA
BRANCH  15  18
HETATM   18  C9  UNL     1      45.517  16.425   3.138  1.00  0.00     0.046 C 
HETATM   19  C10 UNL     1      46.872  17.097   3.245  1.00  0.00     0.033 C 
HETATM   20  C11 UNL     1      44.677  17.255   2.205  1.00  0.00     0.033 C 
HETATM   21 CL1  UNL     1      44.737  16.438   4.740  1.00  0.00    -0.119 Cl
ENDBRANCH  15  18
ENDBRANCH  14  15
ENDBRANCH   4  14
ENDBRANCH   1   4
TORSDOF 7
ENDMDL
MODEL 2
REMARK VINA RESULT: -5.591313791      1.112      1.270
REMARK  7 active torsions:
REMARK  status: ('A' for Active; 'I' for Inactive)
REMARK    1  A    between atoms: N1_2  and  C2_4 
REMARK    2  A    between atoms: C2_4  and  N2_6 
REMARK    3  A    between atoms: N2_6  and  N3_8 
REMARK    4  A    between atoms: C3_10  and  C4_11 
REMARK    5  A    between atoms: C3_10  and  C6_14 
REMARK    6  A    between atoms: C6_14  and  C7_15 
REMARK    7  A    between atoms: C7_15  and  C9_18 
ROOT
HETATM    1  C4  UNL     1      44.699  14.036  -0.342  1.00  0.00     0.177 C 
HETATM    2  C5  UNL     1      43.996  15.326  -0.558  1.00  0.00     0.065 C 
HETATM    3  N4  UNL     1      43.460  16.336  -0.725  1.00  0.00    -0.197 NA
ENDROOT
BRANCH   1   4
HETATM    4  C3  UNL     1      44.695  13.663   1.073  1.00  0.00     0.018 C 
HETATM    5  N3  UNL     1      44.658  12.422   1.395  1.00  0.00    -0.306 N 
ATOM      6  H3  UNL     1      44.656  12.206   2.392  1.00  0.00     0.186 HD
BRANCH   5   7
HETATM    7  N2  UNL     1      44.622  11.346   0.524  1.00  0.00    -0.277 N 
ATOM      8  H2  UNL     1      43.819  11.217  -0.092  1.00  0.00     0.189 HD
BRANCH   7   9
HETATM    9  C2  UNL     1      45.695  10.429   0.489  1.00  0.00     0.186 C 
HETATM   10  S1  UNL     1      45.532   9.155  -0.565  1.00  0.00    -0.040 SA
BRANCH   9  11
HETATM   11  N1  UNL     1      46.858  10.521   1.265  1.00  0.00    -0.370 N 
HETATM   12  C1  UNL     1      47.576   9.396   1.762  1.00  0.00     0.148 C 
ATOM     13  H1  UNL     1      47.213  11.451   1.488  1.00  0.00     0.161 HD
ENDBRANCH   9  11
ENDBRANCH   7   9
ENDBRANCH   5   7
BRANCH   4  14
HETATM   14  C6  UNL     1      44.734  14.676   2.181  1.00  0.00     0.076 C 
BRANCH  14  15
HETATM   15  C7  UNL     1      46.145  14.873   2.675  1.00  0.00     0.120 C 
HETATM   16  C8  UNL     1      46.579  13.602   3.259  1.00  0.00     0.066 C 
HETATM   17  N5  UNL     1      46.924  12.595   3.736  1.00  0.00    -0.197 NA
BRANCH  15  18
HETATM   18  C9  UNL     1      46.279  15.930   3.709  1.00  0.00     0.046 C 
HETATM   19  C10 UNL     1      45.882  17.254   3.086  1.00  0.00     0.033 C 
HETATM   20  C11 UNL     1      45.403  15.721   4.914  1.00  0.00     0.033 C 
HETATM   21 CL1  UNL     1      47.968  16.036   4.267  1.00  0.00    -0.119 Cl
ENDBRANCH  15  18
ENDBRANCH  14  15
ENDBRANCH   4  14
ENDBRANCH   1   4
TORSDOF 7
ENDMDL
MODEL 3
REMARK VINA RESULT: -5.508479070      1.679      2.030
REMARK  7 active torsions:
REMARK  status: ('A' for Active; 'I' for Inactive)
REMARK    1  A    between atoms: N1_2  and  C2_4 
REMARK    2  A    between atoms: C2_4  and  N2_6 
REMARK    3  A    between atoms: N2_6  and  N3_8 
REMARK    4  A    between atoms: C3_10  and  C4_11 
REMARK    5  A    between atoms: C3_10  and  C6_14 
REMARK    6  A    between atoms: C6_14  and  C7_15 
REMARK    7  A    between atoms: C7_15  and  C9_18 
ROOT
HETATM    1  C4  UNL     1      45.072  12.249   1.676  1.00  0.00     0.177 C 
HETATM    2  C5  UNL     1      45.070  12.937   0.361  1.00  0.00     0.065 C 
HETATM    3  N4  UNL     1      45.073  13.462  -0.669  1.00  0.00    -0.197 NA
ENDROOT
BRANCH   1   4
HETATM    4  C3  UNL     1      46.256  12.609   2.458  1.00  0.00     0.018 C 
HETATM    5  N3  UNL     1      47.378  12.048   2.192  1.00  0.00    -0.306 N 
ATOM      6  H3  UNL     1      48.177  12.327   2.761  1.00  0.00     0.186 HD
BRANCH   5   7
HETATM    7  N2  UNL     1      47.613  11.102   1.209  1.00  0.00    -0.277 N 
ATOM      8  H2  UNL     1      47.862  11.398   0.266  1.00  0.00     0.189 HD
BRANCH   7   9
HETATM    9  C2  UNL     1      47.507   9.726   1.514  1.00  0.00     0.186 C 
HETATM   10  S1  UNL     1      46.594   8.816   0.466  1.00  0.00    -0.040 SA
BRANCH   9  11
HETATM   11  N1  UNL     1      48.106   9.097   2.613  1.00  0.00    -0.370 N 
HETATM   12  C1  UNL     1      48.083   7.691   2.837  1.00  0.00     0.148 C 
ATOM     13  H1  UNL     1      48.589   9.682   3.295  1.00  0.00     0.161 HD
ENDBRANCH   9  11
ENDBRANCH   7   9
ENDBRANCH   5   7
BRANCH   4  14
HETATM   14  C6  UNL     1      46.220  13.618   3.570  1.00  0.00     0.076 C 
BRANCH  14  15
HETATM   15  C7  UNL     1      46.433  15.011   3.033  1.00  0.00     0.120 C 
HETATM   16  C8  UNL     1      47.570  15.583   3.758  1.00  0.00     0.066 C 
HETATM   17  N5  UNL     1      48.467  16.047   4.342  1.00  0.00    -0.197 NA
BRANCH  15  18
HETATM   18  C9  UNL     1      45.266  15.911   3.214  1.00  0.00     0.046 C 
HETATM   19  C10 UNL     1      45.564  17.221   2.512  1.00  0.00     0.033 C 
HETATM   20  C11 UNL     1      43.984  15.374   2.636  1.00  0.00     0.033 C 
HETATM   21 CL1  UNL     1      44.997  16.231   4.946  1.00  0.00    -0.119 Cl
ENDBRANCH  15  18
ENDBRANCH  14  15
ENDBRANCH   4  14
ENDBRANCH   1   4
TORSDOF 7
ENDMDL
MODEL 4
REMARK VINA RESULT: -5.506824352      1.219      1.620
REMARK  7 active torsions:
REMARK  status: ('A' for Active; 'I' for Inactive)
REMARK    1  A    between atoms: N1_2  and  C2_4 
REMARK    2  A    between atoms: C2_4  and  N2_6 
REMARK    3  A    between atoms: N2_6  and  N3_8 
REMARK    4  A    between atoms: C3_10  and  C4_11 
REMARK    5  A    between atoms: C3_10  and  C6_14 
REMARK    6  A    between atoms: C6_14  and  C7_15 
REMARK    7  A    between atoms: C7_15  and  C9_18 
ROOT
HETATM    1  C4  UNL     1      44.876  14.225  -0.449  1.00  0.00     0.177 C 
HETATM    2  C5  UNL     1      43.928  15.345  -0.673  1.00  0.00     0.065 C 
HETATM    3  N4  UNL     1      43.199  16.225  -0.844  1.00  0.00    -0.197 NA
ENDROOT
BRANCH   1   4
HETATM    4  C3  UNL     1      44.651  13.597   0.853  1.00  0.00     0.018 C 
HETATM    5  N3  UNL     1      44.634  12.317   0.939  1.00  0.00    -0.306 N 
ATOM      6  H3  UNL     1      44.473  11.921   1.865  1.00  0.00     0.186 HD
BRANCH   5   7
HETATM    7  N2  UNL     1      44.811  11.421  -0.101  1.00  0.00    -0.277 N 
ATOM      8  H2  UNL     1      44.678  11.726  -1.065  1.00  0.00     0.189 HD
BRANCH   7   9
HETATM    9  C2  UNL     1      45.175  10.083   0.173  1.00  0.00     0.186 C 
HETATM   10  S1  UNL     1      46.705   9.855   0.780  1.00  0.00    -0.040 SA
BRANCH   9  11
HETATM   11  N1  UNL     1      44.351   8.968  -0.027  1.00  0.00    -0.370 N 
HETATM   12  C1  UNL     1      43.571   8.754  -1.199  1.00  0.00     0.148 C 
ATOM     13  H1  UNL     1      44.308   8.265   0.711  1.00  0.00     0.161 HD
ENDBRANCH   9  11
ENDBRANCH   7   9
ENDBRANCH   5   7
BRANCH   4  14
HETATM   14  C6  UNL     1      44.440  14.388   2.112  1.00  0.00     0.076 C 
BRANCH  14  15
HETATM   15  C7  UNL     1      45.713  15.083   2.527  1.00  0.00     0.120 C 
HETATM   16  C8  UNL     1      46.380  14.216   3.500  1.00  0.00     0.066 C 
HETATM   17  N5  UNL     1      46.908  13.534   4.286  1.00  0.00    -0.197 NA
BRANCH  15  18
HETATM   18  C9  UNL     1      45.497  16.410   3.156  1.00  0.00     0.046 C 
HETATM   19  C10 UNL     1      46.845  17.087   3.308  1.00  0.00     0.033 C 
HETATM   20  C11 UNL     1      44.619  17.332   2.353  1.00  0.00     0.033 C 
HETATM   21 CL1  UNL     1      44.762  16.216   4.768  1.00  0.00    -0.119 Cl
ENDBRANCH  15  18
ENDBRANCH  14  15
ENDBRANCH   4  14
ENDBRANCH   1   4
TORSDOF 7
ENDMDL
MODEL 5
REMARK VINA RESULT: -5.480184681      2.412      4.703
REMARK  7 active torsions:
REMARK  status: ('A' for Active; 'I' for Inactive)
REMARK    1  A    between atoms: N1_2  and  C2_4 
REMARK    2  A    between atoms: C2_4  and  N2_6 
REMARK    3  A    between atoms: N2_6  and  N3_8 
REMARK    4  A    between atoms: C3_10  and  C4_11 
REMARK    5  A    between atoms: C3_10  and  C6_14 
REMARK    6  A    between atoms: C6_14  and  C7_15 
REMARK    7  A    between atoms: C7_15  and  C9_18 
ROOT
HETATM    1  C4  UNL     1      44.821  13.451  -0.060  1.00  0.00     0.177 C 
HETATM    2  C5  UNL     1      44.722  12.202   0.736  1.00  0.00     0.065 C 
HETATM    3  N4  UNL     1      44.632  11.227   1.351  1.00  0.00    -0.197 NA
ENDROOT
BRANCH   1   4
HETATM    4  C3  UNL     1      44.449  14.618   0.741  1.00  0.00     0.018 C 
HETATM    5  N3  UNL     1      43.979  15.658   0.156  1.00  0.00    -0.306 N 
ATOM      6  H3  UNL     1      43.734  16.448   0.752  1.00  0.00     0.186 HD
BRANCH   5   7
HETATM    7  N2  UNL     1      43.773  15.814  -1.204  1.00  0.00    -0.277 N 
ATOM      8  H2  UNL     1      42.919  15.458  -1.634  1.00  0.00     0.189 HD
BRANCH   7   9
HETATM    9  C2  UNL     1      44.745  16.465  -1.996  1.00  0.00     0.186 C 
HETATM   10  S1  UNL     1      45.591  15.500  -3.051  1.00  0.00    -0.040 SA
BRANCH   9  11
HETATM   11  N1  UNL     1      45.033  17.836  -1.950  1.00  0.00    -0.370 N 
HETATM   12  C1  UNL     1      44.694  18.756  -2.982  1.00  0.00     0.148 C 
ATOM     13  H1  UNL     1      45.515  18.197  -1.127  1.00  0.00     0.161 HD
ENDBRANCH   9  11
ENDBRANCH   7   9
ENDBRANCH   5   7
BRANCH   4  14
HETATM   14  C6  UNL     1      44.591  14.656   2.236  1.00  0.00     0.076 C 
BRANCH  14  15
HETATM   15  C7  UNL     1      46.030  14.875   2.631  1.00  0.00     0.120 C 
HETATM   16  C8  UNL     1      46.500  13.636   3.252  1.00  0.00     0.066 C 
HETATM   17  N5  UNL     1      46.874  12.654   3.759  1.00  0.00    -0.197 NA
BRANCH  15  18
HETATM   18  C9  UNL     1      46.225  15.985   3.599  1.00  0.00     0.046 C 
HETATM   19  C10 UNL     1      45.870  17.286   2.907  1.00  0.00     0.033 C 
HETATM   20  C11 UNL     1      45.366  15.882   4.830  1.00  0.00     0.033 C 
HETATM   21 CL1  UNL     1      47.928  16.054   4.121  1.00  0.00    -0.119 Cl
ENDBRANCH  15  18
ENDBRANCH  14  15
ENDBRANCH   4  14
ENDBRANCH   1   4
TORSDOF 7
ENDMDL
