MODEL 1
REMARK VINA RESULT: -6.854304981      0.000      0.000
REMARK  4 active torsions:
REMARK  status: ('A' for Active; 'I' for Inactive)
REMARK    1  A    between atoms: C5_7  and  N1_8 
REMARK    2  A    between atoms: N1_8  and  C6_11 
REMARK    3  A    between atoms: C6_11  and  C7_12 
REMARK    4  A    between atoms: C9_16  and  N3_17 
ROOT
HETATM    1  C7  UNL     1      44.391  15.069   0.568  1.00  0.00     0.068 A 
HETATM    2  C8  UNL     1      44.301  15.300  -0.777  1.00  0.00     0.133 A 
HETATM    3  N2  UNL     1      44.437  14.108  -1.379  1.00  0.00    -0.200 N 
ATOM      4  H2  UNL     1      44.413  13.964  -2.388  1.00  0.00     0.183 HD
HETATM    5  C9  UNL     1      44.609  13.118  -0.464  1.00  0.00     0.680 A 
HETATM    6  N4  UNL     1      44.575  13.753   0.729  1.00  0.00    -0.192 N 
ATOM      7  H4  UNL     1      44.675  13.290   1.632  1.00  0.00     0.184 HD
ENDROOT
BRANCH   1   8
HETATM    8  C6  UNL     1      44.296  16.116   1.639  1.00  0.00     0.291 C 
BRANCH   8   9
HETATM    9  N1  UNL     1      44.443  15.466   2.907  1.00  0.00    -0.061 N 
ATOM     10  H12 UNL     1      44.143  14.491   2.885  1.00  0.00     0.278 HD
ATOM     11  H11 UNL     1      43.774  15.802   3.600  1.00  0.00     0.278 HD
BRANCH   9  12
HETATM   12  C5  UNL     1      45.816  15.615   3.341  1.00  0.00     0.243 C 
HETATM   13  C1  UNL     1      45.875  15.327   4.825  1.00  0.00     0.204 C 
HETATM   14  F1  UNL     1      46.574  14.179   5.120  1.00  0.00    -0.247 F 
HETATM   15  C2  UNL     1      46.483  16.540   5.498  1.00  0.00     0.065 C 
HETATM   16  C3  UNL     1      47.754  16.961   4.846  1.00  0.00     0.170 C 
HETATM   17  O1  UNL     1      47.674  17.015   3.477  1.00  0.00    -0.389 OA
HETATM   18  C4  UNL     1      46.344  17.005   3.083  1.00  0.00     0.203 C 
ENDBRANCH   9  12
ENDBRANCH   8   9
ENDBRANCH   1   8
BRANCH   5  19
HETATM   19  N3  UNL     1      44.788  11.716  -0.718  1.00  0.00    -0.218 N 
HETATM   20  C10 UNL     1      44.841  11.296  -2.105  1.00  0.00     0.141 C 
HETATM   21  C11 UNL     1      44.723   9.820  -2.291  1.00  0.00     0.020 C 
HETATM   22  C12 UNL     1      45.483   9.115  -1.186  1.00  0.00     0.003 C 
HETATM   23  C13 UNL     1      44.694   9.396   0.097  1.00  0.00     0.020 C 
HETATM   24  C14 UNL     1      44.898  10.850   0.414  1.00  0.00     0.141 C 
ENDBRANCH   5  19
TORSDOF 4
ENDMDL
MODEL 2
REMARK VINA RESULT: -6.837959003      1.600      1.921
REMARK  4 active torsions:
REMARK  status: ('A' for Active; 'I' for Inactive)
REMARK    1  A    between atoms: C5_7  and  N1_8 
REMARK    2  A    between atoms: N1_8  and  C6_11 
REMARK    3  A    between atoms: C6_11  and  C7_12 
REMARK    4  A    between atoms: C9_16  and  N3_17 
ROOT
HETATM    1  C7  UNL     1      44.449  14.660   1.343  1.00  0.00     0.068 A 
HETATM    2  C8  UNL     1      44.412  14.754  -0.020  1.00  0.00     0.133 A 
HETATM    3  N2  UNL     1      44.804  13.561  -0.496  1.00  0.00    -0.200 N 
ATOM      4  H2  UNL     1      44.878  13.329  -1.486  1.00  0.00     0.183 HD
HETATM    5  C9  UNL     1      45.089  12.702   0.519  1.00  0.00     0.680 A 
HETATM    6  N4  UNL     1      44.856  13.419   1.641  1.00  0.00    -0.192 N 
ATOM      7  H4  UNL     1      44.975  13.062   2.589  1.00  0.00     0.184 HD
ENDROOT
BRANCH   1   8
HETATM    8  C6  UNL     1      44.091  15.758   2.302  1.00  0.00     0.291 C 
BRANCH   8   9
HETATM    9  N1  UNL     1      44.565  15.383   3.600  1.00  0.00    -0.061 N 
ATOM     10  H12 UNL     1      44.975  14.449   3.614  1.00  0.00     0.278 HD
ATOM     11  H11 UNL     1      43.807  15.212   4.260  1.00  0.00     0.278 HD
BRANCH   9  12
HETATM   12  C5  UNL     1      45.485  16.401   4.062  1.00  0.00     0.243 C 
HETATM   13  C1  UNL     1      46.651  16.455   3.100  1.00  0.00     0.204 C 
HETATM   14  F1  UNL     1      46.704  17.630   2.387  1.00  0.00    -0.247 F 
HETATM   15  C2  UNL     1      47.915  16.233   3.907  1.00  0.00     0.065 C 
HETATM   16  C3  UNL     1      47.983  17.130   5.093  1.00  0.00     0.170 C 
HETATM   17  O1  UNL     1      46.815  17.175   5.813  1.00  0.00    -0.389 OA
HETATM   18  C4  UNL     1      45.999  16.112   5.451  1.00  0.00     0.203 C 
ENDBRANCH   9  12
ENDBRANCH   8   9
ENDBRANCH   1   8
BRANCH   5  19
HETATM   19  N3  UNL     1      45.535  11.342   0.411  1.00  0.00    -0.218 N 
HETATM   20  C10 UNL     1      44.684  10.421  -0.317  1.00  0.00     0.141 C 
HETATM   21  C11 UNL     1      45.052   8.986  -0.130  1.00  0.00     0.020 C 
HETATM   22  C12 UNL     1      46.562   8.860  -0.092  1.00  0.00     0.003 C 
HETATM   23  C13 UNL     1      46.996   9.532   1.215  1.00  0.00     0.020 C 
HETATM   24  C14 UNL     1      46.781  11.006   1.028  1.00  0.00     0.141 C 
ENDBRANCH   5  19
TORSDOF 4
ENDMDL
MODEL 3
REMARK VINA RESULT: -6.753110780      0.292      1.153
REMARK  4 active torsions:
REMARK  status: ('A' for Active; 'I' for Inactive)
REMARK    1  A    between atoms: C5_7  and  N1_8 
REMARK    2  A    between atoms: N1_8  and  C6_11 
REMARK    3  A    between atoms: C6_11  and  C7_12 
REMARK    4  A    between atoms: C9_16  and  N3_17 
ROOT
HETATM    1  C7  UNL     1      44.371  15.152   0.636  1.00  0.00     0.068 A 
HETATM    2  C8  UNL     1      44.311  15.369  -0.713  1.00  0.00     0.133 A 
HETATM    3  N2  UNL     1      44.450  14.168  -1.299  1.00  0.00    -0.200 N 
ATOM      4  H2  UNL     1      44.447  14.014  -2.307  1.00  0.00     0.183 HD
HETATM    5  C9  UNL     1      44.596  13.187  -0.370  1.00  0.00     0.680 A 
HETATM    6  N4  UNL     1      44.541  13.836   0.815  1.00  0.00    -0.192 N 
ATOM      7  H4  UNL     1      44.619  13.383   1.725  1.00  0.00     0.184 HD
ENDROOT
BRANCH   1   8
HETATM    8  C6  UNL     1      44.262  16.211   1.693  1.00  0.00     0.291 C 
BRANCH   8   9
HETATM    9  N1  UNL     1      44.400  15.577   2.970  1.00  0.00    -0.061 N 
ATOM     10  H12 UNL     1      44.056  14.617   2.970  1.00  0.00     0.278 HD
ATOM     11  H11 UNL     1      43.757  15.955   3.666  1.00  0.00     0.278 HD
BRANCH   9  12
HETATM   12  C5  UNL     1      45.784  15.672   3.382  1.00  0.00     0.243 C 
HETATM   13  C1  UNL     1      45.856  15.387   4.865  1.00  0.00     0.204 C 
HETATM   14  F1  UNL     1      46.513  14.213   5.154  1.00  0.00    -0.247 F 
HETATM   15  C2  UNL     1      46.523  16.576   5.524  1.00  0.00     0.065 C 
HETATM   16  C3  UNL     1      47.799  16.944   4.850  1.00  0.00     0.170 C 
HETATM   17  O1  UNL     1      47.699  16.996   3.482  1.00  0.00    -0.389 OA
HETATM   18  C4  UNL     1      46.363  17.039   3.110  1.00  0.00     0.203 C 
ENDBRANCH   9  12
ENDBRANCH   8   9
ENDBRANCH   1   8
BRANCH   5  19
HETATM   19  N3  UNL     1      44.768  11.782  -0.605  1.00  0.00    -0.218 N 
HETATM   20  C10 UNL     1      44.879  10.924   0.560  1.00  0.00     0.141 C 
HETATM   21  C11 UNL     1      45.353   9.544   0.247  1.00  0.00     0.020 C 
HETATM   22  C12 UNL     1      44.734   9.087  -1.058  1.00  0.00     0.003 C 
HETATM   23  C13 UNL     1      45.375   9.959  -2.143  1.00  0.00     0.020 C 
HETATM   24  C14 UNL     1      44.816  11.341  -1.964  1.00  0.00     0.141 C 
ENDBRANCH   5  19
TORSDOF 4
ENDMDL
MODEL 4
REMARK VINA RESULT: -6.709847215      2.057      2.643
REMARK  4 active torsions:
REMARK  status: ('A' for Active; 'I' for Inactive)
REMARK    1  A    between atoms: C5_7  and  N1_8 
REMARK    2  A    between atoms: N1_8  and  C6_11 
REMARK    3  A    between atoms: C6_11  and  C7_12 
REMARK    4  A    between atoms: C9_16  and  N3_17 
ROOT
HETATM    1  C7  UNL     1      44.799  13.771   1.351  1.00  0.00     0.068 A 
HETATM    2  C8  UNL     1      44.689  13.583   0.002  1.00  0.00     0.133 A 
HETATM    3  N2  UNL     1      45.238  12.387  -0.263  1.00  0.00    -0.200 N 
ATOM      4  H2  UNL     1      45.302  11.974  -1.193  1.00  0.00     0.183 HD
HETATM    5  C9  UNL     1      45.696  11.799   0.873  1.00  0.00     0.680 A 
HETATM    6  N4  UNL     1      45.406  12.686   1.851  1.00  0.00    -0.192 N 
ATOM      7  H4  UNL     1      45.620  12.548   2.838  1.00  0.00     0.184 HD
ENDROOT
BRANCH   1   8
HETATM    8  C6  UNL     1      44.320  14.977   2.105  1.00  0.00     0.291 C 
BRANCH   8   9
HETATM    9  N1  UNL     1      45.175  16.077   1.770  1.00  0.00    -0.061 N 
ATOM     10  H12 UNL     1      44.706  16.776   1.193  1.00  0.00     0.278 HD
ATOM     11  H11 UNL     1      45.906  15.817   1.107  1.00  0.00     0.278 HD
BRANCH   9  12
HETATM   12  C5  UNL     1      45.707  16.633   2.996  1.00  0.00     0.243 C 
HETATM   13  C1  UNL     1      46.919  15.820   3.394  1.00  0.00     0.204 C 
HETATM   14  F1  UNL     1      48.093  16.533   3.309  1.00  0.00    -0.247 F 
HETATM   15  C2  UNL     1      46.678  15.307   4.799  1.00  0.00     0.065 C 
HETATM   16  C3  UNL     1      46.266  16.396   5.728  1.00  0.00     0.170 C 
HETATM   17  O1  UNL     1      45.289  17.211   5.214  1.00  0.00    -0.389 OA
HETATM   18  C4  UNL     1      44.697  16.603   4.117  1.00  0.00     0.203 C 
ENDBRANCH   9  12
ENDBRANCH   8   9
ENDBRANCH   1   8
BRANCH   5  19
HETATM   19  N3  UNL     1      46.341  10.523   0.997  1.00  0.00    -0.218 N 
HETATM   20  C10 UNL     1      47.147  10.299   2.181  1.00  0.00     0.141 C 
HETATM   21  C11 UNL     1      48.018   9.090   2.098  1.00  0.00     0.020 C 
HETATM   22  C12 UNL     1      47.264   7.981   1.392  1.00  0.00     0.003 C 
HETATM   23  C13 UNL     1      47.123   8.443  -0.062  1.00  0.00     0.020 C 
HETATM   24  C14 UNL     1      46.137   9.576  -0.056  1.00  0.00     0.141 C 
ENDBRANCH   5  19
TORSDOF 4
ENDMDL
MODEL 5
REMARK VINA RESULT: -6.698876389      1.447      1.974
REMARK  4 active torsions:
REMARK  status: ('A' for Active; 'I' for Inactive)
REMARK    1  A    between atoms: C5_7  and  N1_8 
REMARK    2  A    between atoms: N1_8  and  C6_11 
REMARK    3  A    between atoms: C6_11  and  C7_12 
REMARK    4  A    between atoms: C9_16  and  N3_17 
ROOT
HETATM    1  C7  UNL     1      44.739  14.194   0.831  1.00  0.00     0.068 A 
HETATM    2  C8  UNL     1      44.705  13.976  -0.518  1.00  0.00     0.133 A 
HETATM    3  N2  UNL     1      45.212  12.749  -0.720  1.00  0.00    -0.200 N 
ATOM      4  H2  UNL     1      45.316  12.310  -1.635  1.00  0.00     0.183 HD
HETATM    5  C9  UNL     1      45.570  12.171   0.456  1.00  0.00     0.680 A 
HETATM    6  N4  UNL     1      45.261  13.095   1.393  1.00  0.00    -0.192 N 
ATOM      7  H4  UNL     1      45.406  12.973   2.395  1.00  0.00     0.184 HD
ENDROOT
BRANCH   1   8
HETATM    8  C6  UNL     1      44.271  15.439   1.524  1.00  0.00     0.291 C 
BRANCH   8   9
HETATM    9  N1  UNL     1      44.441  15.252   2.934  1.00  0.00    -0.061 N 
ATOM     10  H12 UNL     1      44.161  14.320   3.242  1.00  0.00     0.278 HD
ATOM     11  H11 UNL     1      43.770  15.788   3.485  1.00  0.00     0.278 HD
BRANCH   9  12
HETATM   12  C5  UNL     1      45.813  15.561   3.275  1.00  0.00     0.243 C 
HETATM   13  C1  UNL     1      46.045  15.152   4.713  1.00  0.00     0.204 C 
HETATM   14  F1  UNL     1      46.921  14.097   4.835  1.00  0.00    -0.247 F 
HETATM   15  C2  UNL     1      46.538  16.375   5.458  1.00  0.00     0.065 C 
HETATM   16  C3  UNL     1      47.674  17.035   4.757  1.00  0.00     0.170 C 
HETATM   17  O1  UNL     1      47.464  17.200   3.411  1.00  0.00    -0.389 OA
HETATM   18  C4  UNL     1      46.118  17.031   3.121  1.00  0.00     0.203 C 
ENDBRANCH   9  12
ENDBRANCH   8   9
ENDBRANCH   1   8
BRANCH   5  19
HETATM   19  N3  UNL     1      46.145  10.870   0.650  1.00  0.00    -0.218 N 
HETATM   20  C10 UNL     1      46.937  10.667   1.848  1.00  0.00     0.141 C 
HETATM   21  C11 UNL     1      47.741   9.409   1.832  1.00  0.00     0.020 C 
HETATM   22  C12 UNL     1      46.928   8.307   1.184  1.00  0.00     0.003 C 
HETATM   23  C13 UNL     1      46.812   8.697  -0.294  1.00  0.00     0.020 C 
HETATM   24  C14 UNL     1      45.890   9.881  -0.351  1.00  0.00     0.141 C 
ENDBRANCH   5  19
TORSDOF 4
ENDMDL
