MODEL 1
REMARK VINA RESULT: -9.857025809      0.000      0.000
REMARK  13 active torsions:
REMARK  status: ('A' for Active; 'I' for Inactive)
REMARK    1  A    between atoms: C5_5  and  C6_6 
REMARK    2  A    between atoms: C17_22  and  C18_23 
REMARK    3  A    between atoms: C18_23  and  N3_24 
REMARK    4  A    between atoms: C23_29  and  N4_30 
REMARK    5  A    between atoms: N5_36  and  C26_37 
REMARK    6  A    between atoms: C26_37  and  C27_38 
REMARK    7  A    between atoms: C27_38  and  O2_39 
REMARK    8  A    between atoms: O2_39  and  C28_40 
REMARK    9  A    between atoms: C28_40  and  C29_41 
REMARK   10  A    between atoms: C29_41  and  O3_42 
REMARK   11  A    between atoms: O3_42  and  C30_43 
REMARK   12  A    between atoms: C30_43  and  C31_44 
REMARK   13  A    between atoms: C31_44  and  O4_45 
ROOT
HETATM    1  C1  UNL     1      14.334  21.451  13.266  1.00  0.00     0.018 C 
HETATM    2  C2  UNL     1      13.577  21.021  14.098  1.00  0.00    -0.077 C 
HETATM    3  C3  UNL     1      12.689  20.495  15.099  1.00  0.00     0.026 A 
HETATM    4  C4  UNL     1      11.737  19.522  14.801  1.00  0.00     0.033 A 
HETATM    5  C5  UNL     1      10.898  19.037  15.779  1.00  0.00    -0.022 A 
HETATM    6  C13 UNL     1      10.960  19.485  17.090  1.00  0.00     0.042 A 
HETATM    7  C14 UNL     1      11.905  20.451  17.384  1.00  0.00     0.038 A 
HETATM    8  C15 UNL     1      12.737  20.930  16.403  1.00  0.00    -0.012 A 
HETATM    9  C16 UNL     1      13.724  21.972  16.830  1.00  0.00     0.050 C 
HETATM   10  C17 UNL     1      13.052  22.951  17.738  1.00  0.00     0.036 C 
HETATM   11  C25 UNL     1      12.441  22.298  18.946  1.00  0.00     0.130 C 
HETATM   12  N5  UNL     1      12.011  20.946  18.714  1.00  0.00    -0.378 N 
ENDROOT
BRANCH   5  13
HETATM   13  C6  UNL     1       9.908  18.024  15.457  1.00  0.00    -0.024 A 
HETATM   14  C7  UNL     1      10.272  16.973  14.654  1.00  0.00     0.014 A 
HETATM   15  C8  UNL     1       9.339  15.997  14.333  1.00  0.00     0.033 A 
HETATM   16  C9  UNL     1       8.059  16.128  14.845  1.00  0.00     0.063 A 
HETATM   17  N1  UNL     1       6.986  15.342  14.694  1.00  0.00    -0.307 N 
HETATM   18  C11 UNL     1       7.677  17.171  15.649  1.00  0.00     0.064 A 
HETATM   19  C10 UNL     1       5.958  15.897  15.397  1.00  0.00     0.325 A 
ATOM     20  H1  UNL     1       6.944  14.481  14.150  1.00  0.00     0.170 HD
HETATM   21  O1  UNL     1       4.816  15.366  15.434  1.00  0.00    -0.247 OA
HETATM   22  N2  UNL     1       6.378  17.029  15.991  1.00  0.00    -0.306 N 
ATOM     23  H2  UNL     1       5.828  17.653  16.579  1.00  0.00     0.170 HD
HETATM   24  C12 UNL     1       8.634  18.119  15.943  1.00  0.00     0.044 A 
ENDBRANCH   5  13
BRANCH  12  25
HETATM   25  C26 UNL     1      11.680  20.073  19.832  1.00  0.00     0.149 C 
BRANCH  25  26
HETATM   26  C27 UNL     1      10.484  20.523  20.610  1.00  0.00     0.187 C 
BRANCH  26  27
HETATM   27  O2  UNL     1       9.900  19.379  21.156  1.00  0.00    -0.387 OA
BRANCH  27  28
HETATM   28  C28 UNL     1       9.508  18.514  20.108  1.00  0.00     0.193 C 
BRANCH  28  29
HETATM   29  C29 UNL     1       8.152  18.897  19.585  1.00  0.00     0.193 C 
BRANCH  29  30
HETATM   30  O3  UNL     1       7.405  17.855  19.120  1.00  0.00    -0.387 OA
BRANCH  30  31
HETATM   31  C30 UNL     1       8.008  16.630  19.326  1.00  0.00     0.193 C 
BRANCH  31  32
HETATM   32  C31 UNL     1       7.117  15.594  19.950  1.00  0.00     0.193 C 
BRANCH  32  33
HETATM   33  O4  UNL     1       7.536  15.129  21.167  1.00  0.00    -0.394 OA
HETATM   34  C32 UNL     1       7.435  16.075  22.168  1.00  0.00     0.201 C 
ENDBRANCH  32  33
ENDBRANCH  31  32
ENDBRANCH  30  31
ENDBRANCH  29  30
ENDBRANCH  28  29
ENDBRANCH  27  28
ENDBRANCH  26  27
ENDBRANCH  25  26
ENDBRANCH  12  25
BRANCH  10  35
HETATM   35  C18 UNL     1      14.021  24.019  18.198  1.00  0.00     0.279 C 
BRANCH  35  36
HETATM   36  N3  UNL     1      15.342  23.548  18.479  1.00  0.00     0.090 N 
HETATM   37  C19 UNL     1      15.614  23.576  19.863  1.00  0.00     0.272 C 
HETATM   38  C20 UNL     1      15.477  24.958  20.430  1.00  0.00     0.030 C 
HETATM   39  C21 UNL     1      16.371  25.886  19.646  1.00  0.00     0.004 C 
HETATM   40  C22 UNL     1      17.683  25.175  19.426  1.00  0.00     0.034 C 
HETATM   41  C23 UNL     1      17.676  24.291  18.218  1.00  0.00     0.211 C 
HETATM   42  C24 UNL     1      16.321  24.079  17.621  1.00  0.00     0.305 C 
BRANCH  41  43
HETATM   43  N4  UNL     1      18.528  24.873  17.198  1.00  0.00    -0.073 N 
ATOM     44  H43 UNL     1      18.150  24.746  16.258  1.00  0.00     0.274 HD
ATOM     45  H42 UNL     1      18.518  25.893  17.220  1.00  0.00     0.274 HD
ATOM     46  H41 UNL     1      19.469  24.492  17.291  1.00  0.00     0.274 HD
ENDBRANCH  41  43
ENDBRANCH  35  36
ENDBRANCH  10  35
TORSDOF 13
ENDMDL
MODEL 2
REMARK VINA RESULT: -9.795092842      1.191      1.621
REMARK  13 active torsions:
REMARK  status: ('A' for Active; 'I' for Inactive)
REMARK    1  A    between atoms: C5_5  and  C6_6 
REMARK    2  A    between atoms: C17_22  and  C18_23 
REMARK    3  A    between atoms: C18_23  and  N3_24 
REMARK    4  A    between atoms: C23_29  and  N4_30 
REMARK    5  A    between atoms: N5_36  and  C26_37 
REMARK    6  A    between atoms: C26_37  and  C27_38 
REMARK    7  A    between atoms: C27_38  and  O2_39 
REMARK    8  A    between atoms: O2_39  and  C28_40 
REMARK    9  A    between atoms: C28_40  and  C29_41 
REMARK   10  A    between atoms: C29_41  and  O3_42 
REMARK   11  A    between atoms: O3_42  and  C30_43 
REMARK   12  A    between atoms: C30_43  and  C31_44 
REMARK   13  A    between atoms: C31_44  and  O4_45 
ROOT
HETATM    1  C1  UNL     1      14.643  21.578  13.403  1.00  0.00     0.018 C 
HETATM    2  C2  UNL     1      13.824  21.212  14.206  1.00  0.00    -0.077 C 
HETATM    3  C3  UNL     1      12.860  20.761  15.173  1.00  0.00     0.026 A 
HETATM    4  C4  UNL     1      11.859  19.848  14.846  1.00  0.00     0.033 A 
HETATM    5  C5  UNL     1      10.949  19.434  15.792  1.00  0.00    -0.022 A 
HETATM    6  C13 UNL     1      10.983  19.898  17.099  1.00  0.00     0.042 A 
HETATM    7  C14 UNL     1      11.977  20.804  17.421  1.00  0.00     0.038 A 
HETATM    8  C15 UNL     1      12.881  21.213  16.473  1.00  0.00    -0.012 A 
HETATM    9  C16 UNL     1      13.915  22.194  16.929  1.00  0.00     0.050 C 
HETATM   10  C17 UNL     1      13.271  23.229  17.794  1.00  0.00     0.036 C 
HETATM   11  C25 UNL     1      12.565  22.636  18.982  1.00  0.00     0.130 C 
HETATM   12  N5  UNL     1      12.057  21.313  18.749  1.00  0.00    -0.378 N 
ENDROOT
BRANCH   5  13
HETATM   13  C6  UNL     1       9.908  18.485  15.439  1.00  0.00    -0.024 A 
HETATM   14  C7  UNL     1       8.610  18.922  15.366  1.00  0.00     0.014 A 
HETATM   15  C8  UNL     1       7.601  18.029  15.032  1.00  0.00     0.033 A 
HETATM   16  C9  UNL     1       7.953  16.714  14.784  1.00  0.00     0.063 A 
HETATM   17  N1  UNL     1       7.191  15.666  14.448  1.00  0.00    -0.307 N 
HETATM   18  C11 UNL     1       9.245  16.258  14.852  1.00  0.00     0.064 A 
HETATM   19  C10 UNL     1       8.005  14.581  14.313  1.00  0.00     0.325 A 
ATOM     20  H1  UNL     1       6.180  15.677  14.317  1.00  0.00     0.170 HD
HETATM   21  O1  UNL     1       7.553  13.447  14.000  1.00  0.00    -0.247 OA
HETATM   22  N2  UNL     1       9.278  14.940  14.561  1.00  0.00    -0.306 N 
ATOM     23  H2  UNL     1      10.101  14.339  14.535  1.00  0.00     0.170 HD
HETATM   24  C12 UNL     1      10.217  17.178  15.187  1.00  0.00     0.044 A 
ENDBRANCH   5  13
BRANCH  12  25
HETATM   25  C26 UNL     1      11.620  20.481  19.862  1.00  0.00     0.149 C 
BRANCH  25  26
HETATM   26  C27 UNL     1      10.463  21.052  20.619  1.00  0.00     0.187 C 
BRANCH  26  27
HETATM   27  O2  UNL     1       9.849  19.990  21.285  1.00  0.00    -0.387 OA
BRANCH  27  28
HETATM   28  C28 UNL     1      10.214  18.776  20.656  1.00  0.00     0.193 C 
BRANCH  28  29
HETATM   29  C29 UNL     1       8.991  17.985  20.284  1.00  0.00     0.193 C 
BRANCH  29  30
HETATM   30  O3  UNL     1       8.826  17.786  18.946  1.00  0.00    -0.387 OA
BRANCH  30  31
HETATM   31  C30 UNL     1       7.687  17.063  18.650  1.00  0.00     0.193 C 
BRANCH  31  32
HETATM   32  C31 UNL     1       7.937  15.627  18.286  1.00  0.00     0.193 C 
BRANCH  32  33
HETATM   33  O4  UNL     1       6.941  15.035  17.558  1.00  0.00    -0.394 OA
HETATM   34  C32 UNL     1       5.716  15.650  17.720  1.00  0.00     0.201 C 
ENDBRANCH  32  33
ENDBRANCH  31  32
ENDBRANCH  30  31
ENDBRANCH  29  30
ENDBRANCH  28  29
ENDBRANCH  27  28
ENDBRANCH  26  27
ENDBRANCH  25  26
ENDBRANCH  12  25
BRANCH  10  35
HETATM   35  C18 UNL     1      14.287  24.238  18.283  1.00  0.00     0.279 C 
BRANCH  35  36
HETATM   36  N3  UNL     1      15.619  23.734  18.406  1.00  0.00     0.090 N 
HETATM   37  C19 UNL     1      16.013  23.645  19.758  1.00  0.00     0.272 C 
HETATM   38  C20 UNL     1      15.949  24.978  20.445  1.00  0.00     0.030 C 
HETATM   39  C21 UNL     1      16.786  25.958  19.663  1.00  0.00     0.004 C 
HETATM   40  C22 UNL     1      18.061  25.257  19.270  1.00  0.00     0.034 C 
HETATM   41  C23 UNL     1      17.933  24.474  18.000  1.00  0.00     0.211 C 
HETATM   42  C24 UNL     1      16.528  24.324  17.511  1.00  0.00     0.305 C 
BRANCH  41  43
HETATM   43  N4  UNL     1      18.702  25.131  16.959  1.00  0.00    -0.073 N 
ATOM     44  H43 UNL     1      18.388  26.087  16.789  1.00  0.00     0.274 HD
ATOM     45  H42 UNL     1      19.655  25.343  17.255  1.00  0.00     0.274 HD
ATOM     46  H41 UNL     1      18.676  24.559  16.115  1.00  0.00     0.274 HD
ENDBRANCH  41  43
ENDBRANCH  35  36
ENDBRANCH  10  35
TORSDOF 13
ENDMDL
MODEL 3
REMARK VINA RESULT: -9.587888574      3.735      6.913
REMARK  13 active torsions:
REMARK  status: ('A' for Active; 'I' for Inactive)
REMARK    1  A    between atoms: C5_5  and  C6_6 
REMARK    2  A    between atoms: C17_22  and  C18_23 
REMARK    3  A    between atoms: C18_23  and  N3_24 
REMARK    4  A    between atoms: C23_29  and  N4_30 
REMARK    5  A    between atoms: N5_36  and  C26_37 
REMARK    6  A    between atoms: C26_37  and  C27_38 
REMARK    7  A    between atoms: C27_38  and  O2_39 
REMARK    8  A    between atoms: O2_39  and  C28_40 
REMARK    9  A    between atoms: C28_40  and  C29_41 
REMARK   10  A    between atoms: C29_41  and  O3_42 
REMARK   11  A    between atoms: O3_42  and  C30_43 
REMARK   12  A    between atoms: C30_43  and  C31_44 
REMARK   13  A    between atoms: C31_44  and  O4_45 
ROOT
HETATM    1  C1  UNL     1      10.121  21.341  20.997  1.00  0.00     0.018 C 
HETATM    2  C2  UNL     1      10.532  20.982  19.923  1.00  0.00    -0.077 C 
HETATM    3  C3  UNL     1      11.011  20.569  18.632  1.00  0.00     0.026 A 
HETATM    4  C4  UNL     1      10.496  19.451  17.978  1.00  0.00     0.033 A 
HETATM    5  C5  UNL     1      10.975  19.078  16.742  1.00  0.00    -0.022 A 
HETATM    6  C13 UNL     1      11.978  19.786  16.097  1.00  0.00     0.042 A 
HETATM    7  C14 UNL     1      12.488  20.894  16.748  1.00  0.00     0.038 A 
HETATM    8  C15 UNL     1      12.006  21.260  17.980  1.00  0.00    -0.012 A 
HETATM    9  C16 UNL     1      12.628  22.475  18.594  1.00  0.00     0.050 C 
HETATM   10  C17 UNL     1      14.108  22.435  18.390  1.00  0.00     0.036 C 
HETATM   11  C25 UNL     1      14.491  22.339  16.939  1.00  0.00     0.130 C 
HETATM   12  N5  UNL     1      13.520  21.656  16.130  1.00  0.00    -0.378 N 
ENDROOT
BRANCH   5  13
HETATM   13  C6  UNL     1      10.432  17.910  16.070  1.00  0.00    -0.024 A 
HETATM   14  C7  UNL     1      11.008  17.494  14.897  1.00  0.00     0.014 A 
HETATM   15  C8  UNL     1      10.503  16.381  14.239  1.00  0.00     0.033 A 
HETATM   16  C9  UNL     1       9.422  15.728  14.803  1.00  0.00     0.063 A 
HETATM   17  N1  UNL     1       8.751  14.648  14.383  1.00  0.00    -0.307 N 
HETATM   18  C11 UNL     1       8.833  16.128  15.976  1.00  0.00     0.064 A 
HETATM   19  C10 UNL     1       7.763  14.390  15.287  1.00  0.00     0.325 A 
ATOM     20  H1  UNL     1       8.945  14.113  13.537  1.00  0.00     0.170 HD
HETATM   21  O1  UNL     1       6.969  13.422  15.143  1.00  0.00    -0.247 OA
HETATM   22  N2  UNL     1       7.808  15.302  16.275  1.00  0.00    -0.306 N 
ATOM     23  H2  UNL     1       7.192  15.358  17.086  1.00  0.00     0.170 HD
HETATM   24  C12 UNL     1       9.365  17.239  16.597  1.00  0.00     0.044 A 
ENDBRANCH   5  13
BRANCH  12  25
HETATM   25  C26 UNL     1      13.579  21.735  14.677  1.00  0.00     0.149 C 
BRANCH  25  26
HETATM   26  C27 UNL     1      14.967  21.896  14.142  1.00  0.00     0.187 C 
BRANCH  26  27
HETATM   27  O2  UNL     1      14.975  23.060  13.373  1.00  0.00    -0.387 OA
BRANCH  27  28
HETATM   28  C28 UNL     1      16.260  23.231  12.805  1.00  0.00     0.193 C 
BRANCH  28  29
HETATM   29  C29 UNL     1      17.330  22.942  13.821  1.00  0.00     0.193 C 
BRANCH  29  30
HETATM   30  O3  UNL     1      18.461  23.690  13.687  1.00  0.00    -0.387 OA
BRANCH  30  31
HETATM   31  C30 UNL     1      18.359  24.641  12.691  1.00  0.00     0.193 C 
BRANCH  31  32
HETATM   32  C31 UNL     1      18.585  26.053  13.152  1.00  0.00     0.193 C 
BRANCH  32  33
HETATM   33  O4  UNL     1      19.018  26.175  14.444  1.00  0.00    -0.394 OA
HETATM   34  C32 UNL     1      18.513  27.293  15.078  1.00  0.00     0.201 C 
ENDBRANCH  32  33
ENDBRANCH  31  32
ENDBRANCH  30  31
ENDBRANCH  29  30
ENDBRANCH  28  29
ENDBRANCH  27  28
ENDBRANCH  26  27
ENDBRANCH  25  26
ENDBRANCH  12  25
BRANCH  10  35
HETATM   35  C18 UNL     1      14.774  23.653  18.992  1.00  0.00     0.279 C 
BRANCH  35  36
HETATM   36  N3  UNL     1      16.188  23.537  19.166  1.00  0.00     0.090 N 
HETATM   37  C19 UNL     1      16.644  24.345  20.229  1.00  0.00     0.272 C 
HETATM   38  C20 UNL     1      16.315  25.793  20.009  1.00  0.00     0.030 C 
HETATM   39  C21 UNL     1      16.883  26.214  18.677  1.00  0.00     0.004 C 
HETATM   40  C22 UNL     1      18.266  25.623  18.565  1.00  0.00     0.034 C 
HETATM   41  C23 UNL     1      18.265  24.224  18.033  1.00  0.00     0.211 C 
HETATM   42  C24 UNL     1      16.909  23.596  17.961  1.00  0.00     0.305 C 
BRANCH  41  43
HETATM   43  N4  UNL     1      18.828  24.224  16.695  1.00  0.00    -0.073 N 
ATOM     44  H43 UNL     1      18.117  24.099  15.974  1.00  0.00     0.274 HD
ATOM     45  H42 UNL     1      19.157  25.148  16.413  1.00  0.00     0.274 HD
ATOM     46  H41 UNL     1      19.562  23.518  16.642  1.00  0.00     0.274 HD
ENDBRANCH  41  43
ENDBRANCH  35  36
ENDBRANCH  10  35
TORSDOF 13
ENDMDL
MODEL 4
REMARK VINA RESULT: -9.413662491      3.918     10.778
REMARK  13 active torsions:
REMARK  status: ('A' for Active; 'I' for Inactive)
REMARK    1  A    between atoms: C5_5  and  C6_6 
REMARK    2  A    between atoms: C17_22  and  C18_23 
REMARK    3  A    between atoms: C18_23  and  N3_24 
REMARK    4  A    between atoms: C23_29  and  N4_30 
REMARK    5  A    between atoms: N5_36  and  C26_37 
REMARK    6  A    between atoms: C26_37  and  C27_38 
REMARK    7  A    between atoms: C27_38  and  O2_39 
REMARK    8  A    between atoms: O2_39  and  C28_40 
REMARK    9  A    between atoms: C28_40  and  C29_41 
REMARK   10  A    between atoms: C29_41  and  O3_42 
REMARK   11  A    between atoms: O3_42  and  C30_43 
REMARK   12  A    between atoms: C30_43  and  C31_44 
REMARK   13  A    between atoms: C31_44  and  O4_45 
ROOT
HETATM    1  C1  UNL     1      10.190  20.716  21.142  1.00  0.00     0.018 C 
HETATM    2  C2  UNL     1      10.982  21.038  20.294  1.00  0.00    -0.077 C 
HETATM    3  C3  UNL     1      11.940  21.404  19.285  1.00  0.00     0.026 A 
HETATM    4  C4  UNL     1      12.927  22.360  19.518  1.00  0.00     0.033 A 
HETATM    5  C5  UNL     1      13.830  22.692  18.533  1.00  0.00    -0.022 A 
HETATM    6  C13 UNL     1      13.803  22.099  17.279  1.00  0.00     0.042 A 
HETATM    7  C14 UNL     1      12.822  21.151  17.050  1.00  0.00     0.038 A 
HETATM    8  C15 UNL     1      11.925  20.826  18.036  1.00  0.00    -0.012 A 
HETATM    9  C16 UNL     1      10.907  19.787  17.682  1.00  0.00     0.050 C 
HETATM   10  C17 UNL     1      10.390  20.046  16.304  1.00  0.00     0.036 C 
HETATM   11  C25 UNL     1      11.481  20.070  15.269  1.00  0.00     0.130 C 
HETATM   12  N5  UNL     1      12.749  20.512  15.780  1.00  0.00    -0.378 N 
ENDROOT
BRANCH   5  13
HETATM   13  C6  UNL     1      14.853  23.692  18.786  1.00  0.00    -0.024 A 
HETATM   14  C7  UNL     1      15.266  23.904  20.076  1.00  0.00     0.014 A 
HETATM   15  C8  UNL     1      16.242  24.856  20.338  1.00  0.00     0.033 A 
HETATM   16  C9  UNL     1      16.764  25.563  19.269  1.00  0.00     0.063 A 
HETATM   17  N1  UNL     1      17.698  26.522  19.242  1.00  0.00    -0.307 N 
HETATM   18  C11 UNL     1      16.363  25.365  17.972  1.00  0.00     0.064 A 
HETATM   19  C10 UNL     1      17.868  26.906  17.945  1.00  0.00     0.325 A 
ATOM     20  H1  UNL     1      18.195  26.898  20.049  1.00  0.00     0.170 HD
HETATM   21  O1  UNL     1      18.693  27.802  17.622  1.00  0.00    -0.247 OA
HETATM   22  N2  UNL     1      17.045  26.195  17.154  1.00  0.00    -0.306 N 
ATOM     23  H2  UNL     1      16.954  26.267  16.141  1.00  0.00     0.170 HD
HETATM   24  C12 UNL     1      15.392  24.410  17.756  1.00  0.00     0.044 A 
ENDBRANCH   5  13
BRANCH  12  25
HETATM   25  C26 UNL     1      13.968  20.312  15.007  1.00  0.00     0.149 C 
BRANCH  25  26
HETATM   26  C27 UNL     1      13.906  20.893  13.631  1.00  0.00     0.187 C 
BRANCH  26  27
HETATM   27  O2  UNL     1      13.930  22.281  13.773  1.00  0.00    -0.387 OA
BRANCH  27  28
HETATM   28  C28 UNL     1      15.249  22.692  14.078  1.00  0.00     0.193 C 
BRANCH  28  29
HETATM   29  C29 UNL     1      15.795  23.570  12.987  1.00  0.00     0.193 C 
BRANCH  29  30
HETATM   30  O3  UNL     1      17.003  23.179  12.491  1.00  0.00    -0.387 OA
BRANCH  30  31
HETATM   31  C30 UNL     1      17.990  23.137  13.456  1.00  0.00     0.193 C 
BRANCH  31  32
HETATM   32  C31 UNL     1      18.176  24.420  14.214  1.00  0.00     0.193 C 
BRANCH  32  33
HETATM   33  O4  UNL     1      18.630  24.272  15.496  1.00  0.00    -0.394 OA
HETATM   34  C32 UNL     1      18.465  22.990  15.981  1.00  0.00     0.201 C 
ENDBRANCH  32  33
ENDBRANCH  31  32
ENDBRANCH  30  31
ENDBRANCH  29  30
ENDBRANCH  28  29
ENDBRANCH  27  28
ENDBRANCH  26  27
ENDBRANCH  25  26
ENDBRANCH  12  25
BRANCH  10  35
HETATM   35  C18 UNL     1       9.361  19.011  15.905  1.00  0.00     0.279 C 
BRANCH  35  36
HETATM   36  N3  UNL     1       9.557  17.718  16.485  1.00  0.00     0.090 N 
HETATM   37  C19 UNL     1      10.264  16.864  15.612  1.00  0.00     0.272 C 
HETATM   38  C20 UNL     1       9.549  16.690  14.304  1.00  0.00     0.030 C 
HETATM   39  C21 UNL     1       8.151  16.199  14.588  1.00  0.00     0.004 C 
HETATM   40  C22 UNL     1       8.248  15.143  15.660  1.00  0.00     0.034 C 
HETATM   41  C23 UNL     1       8.243  15.711  17.044  1.00  0.00     0.211 C 
HETATM   42  C24 UNL     1       8.405  17.197  17.099  1.00  0.00     0.305 C 
BRANCH  41  43
HETATM   43  N4  UNL     1       6.989  15.374  17.692  1.00  0.00    -0.073 N 
ATOM     44  H43 UNL     1       6.300  15.006  17.035  1.00  0.00     0.274 HD
ATOM     45  H42 UNL     1       7.070  14.552  18.291  1.00  0.00     0.274 HD
ATOM     46  H41 UNL     1       6.644  16.190  18.198  1.00  0.00     0.274 HD
ENDBRANCH  41  43
ENDBRANCH  35  36
ENDBRANCH  10  35
TORSDOF 13
ENDMDL
MODEL 5
REMARK VINA RESULT: -9.332544939      4.208     11.105
REMARK  13 active torsions:
REMARK  status: ('A' for Active; 'I' for Inactive)
REMARK    1  A    between atoms: C5_5  and  C6_6 
REMARK    2  A    between atoms: C17_22  and  C18_23 
REMARK    3  A    between atoms: C18_23  and  N3_24 
REMARK    4  A    between atoms: C23_29  and  N4_30 
REMARK    5  A    between atoms: N5_36  and  C26_37 
REMARK    6  A    between atoms: C26_37  and  C27_38 
REMARK    7  A    between atoms: C27_38  and  O2_39 
REMARK    8  A    between atoms: O2_39  and  C28_40 
REMARK    9  A    between atoms: C28_40  and  C29_41 
REMARK   10  A    between atoms: C29_41  and  O3_42 
REMARK   11  A    between atoms: O3_42  and  C30_43 
REMARK   12  A    between atoms: C30_43  and  C31_44 
REMARK   13  A    between atoms: C31_44  and  O4_45 
ROOT
HETATM    1  C1  UNL     1      10.136  21.052  20.949  1.00  0.00     0.018 C 
HETATM    2  C2  UNL     1      10.998  21.292  20.143  1.00  0.00    -0.077 C 
HETATM    3  C3  UNL     1      12.037  21.560  19.186  1.00  0.00     0.026 A 
HETATM    4  C4  UNL     1      13.035  22.503  19.426  1.00  0.00     0.033 A 
HETATM    5  C5  UNL     1      14.017  22.740  18.491  1.00  0.00    -0.022 A 
HETATM    6  C13 UNL     1      14.062  22.062  17.282  1.00  0.00     0.042 A 
HETATM    7  C14 UNL     1      13.071  21.127  17.046  1.00  0.00     0.038 A 
HETATM    8  C15 UNL     1      12.095  20.896  17.982  1.00  0.00    -0.012 A 
HETATM    9  C16 UNL     1      11.072  19.863  17.625  1.00  0.00     0.050 C 
HETATM   10  C17 UNL     1      10.665  20.038  16.197  1.00  0.00     0.036 C 
HETATM   11  C25 UNL     1      11.829  19.960  15.248  1.00  0.00     0.130 C 
HETATM   12  N5  UNL     1      13.070  20.402  15.820  1.00  0.00    -0.378 N 
ENDROOT
BRANCH   5  13
HETATM   13  C6  UNL     1      15.051  23.727  18.751  1.00  0.00    -0.024 A 
HETATM   14  C7  UNL     1      15.466  23.927  20.043  1.00  0.00     0.014 A 
HETATM   15  C8  UNL     1      16.451  24.867  20.312  1.00  0.00     0.033 A 
HETATM   16  C9  UNL     1      16.981  25.576  19.248  1.00  0.00     0.063 A 
HETATM   17  N1  UNL     1      17.925  26.524  19.228  1.00  0.00    -0.307 N 
HETATM   18  C11 UNL     1      16.579  25.390  17.950  1.00  0.00     0.064 A 
HETATM   19  C10 UNL     1      18.100  26.915  17.933  1.00  0.00     0.325 A 
ATOM     20  H1  UNL     1      18.426  26.890  20.038  1.00  0.00     0.170 HD
HETATM   21  O1  UNL     1      18.935  27.804  17.616  1.00  0.00    -0.247 OA
HETATM   22  N2  UNL     1      17.271  26.217  17.137  1.00  0.00    -0.306 N 
ATOM     23  H2  UNL     1      17.181  26.297  16.124  1.00  0.00     0.170 HD
HETATM   24  C12 UNL     1      15.598  24.446  17.726  1.00  0.00     0.044 A 
ENDBRANCH   5  13
BRANCH  12  25
HETATM   25  C26 UNL     1      14.335  20.116  15.157  1.00  0.00     0.149 C 
BRANCH  25  26
HETATM   26  C27 UNL     1      14.776  21.194  14.219  1.00  0.00     0.187 C 
BRANCH  26  27
HETATM   27  O2  UNL     1      16.147  21.371  14.418  1.00  0.00    -0.387 OA
BRANCH  27  28
HETATM   28  C28 UNL     1      16.428  22.755  14.499  1.00  0.00     0.193 C 
BRANCH  28  29
HETATM   29  C29 UNL     1      17.723  22.990  15.224  1.00  0.00     0.193 C 
BRANCH  29  30
HETATM   30  O3  UNL     1      18.353  24.157  14.904  1.00  0.00    -0.387 OA
BRANCH  30  31
HETATM   31  C30 UNL     1      18.088  24.571  13.614  1.00  0.00     0.193 C 
BRANCH  31  32
HETATM   32  C31 UNL     1      18.416  26.012  13.342  1.00  0.00     0.193 C 
BRANCH  32  33
HETATM   33  O4  UNL     1      18.326  26.839  14.428  1.00  0.00    -0.394 OA
HETATM   34  C32 UNL     1      18.303  28.176  14.086  1.00  0.00     0.201 C 
ENDBRANCH  32  33
ENDBRANCH  31  32
ENDBRANCH  30  31
ENDBRANCH  29  30
ENDBRANCH  28  29
ENDBRANCH  27  28
ENDBRANCH  26  27
ENDBRANCH  25  26
ENDBRANCH  12  25
BRANCH  10  35
HETATM   35  C18 UNL     1       9.635  19.005  15.794  1.00  0.00     0.279 C 
BRANCH  35  36
HETATM   36  N3  UNL     1       9.807  17.721  16.401  1.00  0.00     0.090 N 
HETATM   37  C19 UNL     1      10.514  16.842  15.554  1.00  0.00     0.272 C 
HETATM   38  C20 UNL     1       9.814  16.652  14.240  1.00  0.00     0.030 C 
HETATM   39  C21 UNL     1       8.407  16.185  14.513  1.00  0.00     0.004 C 
HETATM   40  C22 UNL     1       8.475  15.148  15.605  1.00  0.00     0.034 C 
HETATM   41  C23 UNL     1       8.459  15.743  16.979  1.00  0.00     0.211 C 
HETATM   42  C24 UNL     1       8.639  17.227  17.008  1.00  0.00     0.305 C 
BRANCH  41  43
HETATM   43  N4  UNL     1       7.191  15.434  17.615  1.00  0.00    -0.073 N 
ATOM     44  H43 UNL     1       7.056  14.431  17.745  1.00  0.00     0.274 HD
ATOM     45  H42 UNL     1       7.173  15.709  18.598  1.00  0.00     0.274 HD
ATOM     46  H41 UNL     1       6.436  15.861  17.079  1.00  0.00     0.274 HD
ENDBRANCH  41  43
ENDBRANCH  35  36
ENDBRANCH  10  35
TORSDOF 13
ENDMDL
