MODEL 1
REMARK VINA RESULT: -8.506427408      0.000      0.000
REMARK  16 active torsions:
REMARK  status: ('A' for Active; 'I' for Inactive)
REMARK    1  A    between atoms: C2_2  and  C3_3 
REMARK    2  A    between atoms: C3_3  and  N1_4 
REMARK    3  A    between atoms: C3_3  and  C17_27 
REMARK       I    between atoms: N1_4  and  C4_6 
REMARK    4  A    between atoms: C4_6  and  C5_8 
REMARK    5  A    between atoms: C5_8  and  O2_10 
REMARK    6  A    between atoms: O2_10  and  C7_11 
REMARK       I    between atoms: C7_11  and  N2_13 
REMARK    7  A    between atoms: C10_16  and  N3_17 
REMARK       I    between atoms: N3_17  and  C11_19 
REMARK    8  A    between atoms: C11_19  and  O5_21 
REMARK    9  A    between atoms: O5_21  and  C12_22 
REMARK       I    between atoms: C17_27  and  N4_29 
REMARK   10  A    between atoms: N4_29  and  C18_31 
REMARK   11  A    between atoms: C18_31  and  C19_32 
REMARK   12  A    between atoms: C18_31  and  C26_39 
REMARK   13  A    between atoms: C19_32  and  C20_33 
REMARK   14  A    between atoms: C20_33  and  C22_35 
REMARK   15  A    between atoms: C22_35  and  C23_36 
REMARK   16  A    between atoms: C26_39  and  O8_41 
ROOT
HETATM    1  N1  UNL     1       9.228  17.423  20.116  1.00  0.00    -0.346 N 
ATOM      2  H1  UNL     1       9.946  16.869  20.581  1.00  0.00     0.163 HD
HETATM    3  C4  UNL     1       9.464  18.786  19.829  1.00  0.00     0.247 C 
HETATM    4  O1  UNL     1       8.592  19.474  19.278  1.00  0.00    -0.271 OA
ENDROOT
BRANCH   1   5
HETATM    5  C3  UNL     1       7.953  16.807  19.744  1.00  0.00     0.176 C 
BRANCH   5   6
HETATM    6  C2  UNL     1       7.554  15.695  20.698  1.00  0.00     0.030 C 
HETATM    7  C1  UNL     1       7.556  16.112  22.137  1.00  0.00     0.007 C 
ENDBRANCH   5   6
BRANCH   5   8
HETATM    8  C17 UNL     1       7.973  16.292  18.371  1.00  0.00     0.241 C 
HETATM    9  O6  UNL     1       8.285  15.109  18.151  1.00  0.00    -0.271 OA
HETATM   10  N4  UNL     1       7.638  17.126  17.255  1.00  0.00    -0.345 N 
ATOM     11  H4  UNL     1       7.389  18.100  17.433  1.00  0.00     0.163 HD
BRANCH  10  12
HETATM   12  C18 UNL     1       7.636  16.664  15.918  1.00  0.00     0.184 C 
BRANCH  12  13
HETATM   13  C19 UNL     1       6.342  16.343  15.252  1.00  0.00     0.040 C 
BRANCH  13  14
HETATM   14  C20 UNL     1       6.072  14.935  14.900  1.00  0.00    -0.016 C 
HETATM   15  C21 UNL     1       7.293  14.254  14.222  1.00  0.00     0.010 C 
BRANCH  14  16
HETATM   16  C22 UNL     1       5.671  14.001  15.997  1.00  0.00     0.008 C 
BRANCH  16  17
HETATM   17  C23 UNL     1       4.498  13.134  15.818  1.00  0.00    -0.023 C 
HETATM   18  C24 UNL     1       4.666  11.812  15.137  1.00  0.00     0.009 C 
HETATM   19  C25 UNL     1       3.376  13.893  15.056  1.00  0.00     0.009 C 
ENDBRANCH  16  17
ENDBRANCH  14  16
ENDBRANCH  13  14
ENDBRANCH  12  13
BRANCH  12  20
HETATM   20  C26 UNL     1       8.482  17.520  15.022  1.00  0.00     0.281 C 
HETATM   21  O7  UNL     1       8.473  18.763  15.148  1.00  0.00    -0.263 OA
BRANCH  20  22
HETATM   22  O8  UNL     1       9.274  16.953  14.051  1.00  0.00    -0.325 OA
HETATM   23  C27 UNL     1      10.582  16.533  14.354  1.00  0.00     0.213 C 
ENDBRANCH  20  22
ENDBRANCH  12  20
ENDBRANCH  10  12
ENDBRANCH   5   8
ENDBRANCH   1   5
BRANCH   3  24
HETATM   24  C5  UNL     1      10.758  19.416  20.179  1.00  0.00     0.221 C 
HETATM   25  C6  UNL     1      10.846  20.871  19.949  1.00  0.00     0.050 C 
BRANCH  24  26
HETATM   26  O2  UNL     1      11.816  18.748  19.533  1.00  0.00    -0.289 OA
BRANCH  26  27
HETATM   27  C7  UNL     1      12.059  18.646  18.184  1.00  0.00     0.363 C 
HETATM   28  O3  UNL     1      11.177  17.993  17.513  1.00  0.00    -0.238 OA
HETATM   29  N2  UNL     1      13.184  19.219  17.564  1.00  0.00    -0.326 N 
HETATM   30  C8  UNL     1      13.535  19.255  16.180  1.00  0.00     0.130 C 
HETATM   31  C16 UNL     1      14.253  19.898  18.248  1.00  0.00     0.153 C 
HETATM   32  C9  UNL     1      14.147  20.673  16.038  1.00  0.00     0.047 C 
HETATM   33  C10 UNL     1      14.212  21.226  17.434  1.00  0.00     0.106 C 
BRANCH  33  34
HETATM   34  N3  UNL     1      15.395  21.990  17.729  1.00  0.00    -0.331 N 
HETATM   35  C11 UNL     1      15.462  22.937  18.788  1.00  0.00     0.361 C 
HETATM   36  O4  UNL     1      14.456  23.140  19.527  1.00  0.00    -0.238 OA
ATOM     37  H3  UNL     1      16.223  21.846  17.152  1.00  0.00     0.165 HD
BRANCH  35  38
HETATM   38  O5  UNL     1      16.582  23.658  19.068  1.00  0.00    -0.294 OA
BRANCH  38  39
HETATM   39  C12 UNL     1      16.760  25.036  19.104  1.00  0.00     0.061 C 
HETATM   40  C13 UNL     1      18.225  25.278  18.693  1.00  0.00     0.046 C 
HETATM   41  C14 UNL     1      15.890  25.853  18.227  1.00  0.00     0.046 C 
HETATM   42  C15 UNL     1      16.624  25.564  20.544  1.00  0.00     0.046 C 
ENDBRANCH  38  39
ENDBRANCH  35  38
ENDBRANCH  33  34
ENDBRANCH  26  27
ENDBRANCH  24  26
ENDBRANCH   3  24
TORSDOF 16
ENDMDL
MODEL 2
REMARK VINA RESULT: -8.465868066      2.707     10.793
REMARK  16 active torsions:
REMARK  status: ('A' for Active; 'I' for Inactive)
REMARK    1  A    between atoms: C2_2  and  C3_3 
REMARK    2  A    between atoms: C3_3  and  N1_4 
REMARK    3  A    between atoms: C3_3  and  C17_27 
REMARK       I    between atoms: N1_4  and  C4_6 
REMARK    4  A    between atoms: C4_6  and  C5_8 
REMARK    5  A    between atoms: C5_8  and  O2_10 
REMARK    6  A    between atoms: O2_10  and  C7_11 
REMARK       I    between atoms: C7_11  and  N2_13 
REMARK    7  A    between atoms: C10_16  and  N3_17 
REMARK       I    between atoms: N3_17  and  C11_19 
REMARK    8  A    between atoms: C11_19  and  O5_21 
REMARK    9  A    between atoms: O5_21  and  C12_22 
REMARK       I    between atoms: C17_27  and  N4_29 
REMARK   10  A    between atoms: N4_29  and  C18_31 
REMARK   11  A    between atoms: C18_31  and  C19_32 
REMARK   12  A    between atoms: C18_31  and  C26_39 
REMARK   13  A    between atoms: C19_32  and  C20_33 
REMARK   14  A    between atoms: C20_33  and  C22_35 
REMARK   15  A    between atoms: C22_35  and  C23_36 
REMARK   16  A    between atoms: C26_39  and  O8_41 
ROOT
HETATM    1  N1  UNL     1      13.568  21.984  16.749  1.00  0.00    -0.346 N 
ATOM      2  H1  UNL     1      14.373  21.840  17.358  1.00  0.00     0.163 HD
HETATM    3  C4  UNL     1      12.294  22.230  17.308  1.00  0.00     0.247 C 
HETATM    4  O1  UNL     1      11.306  22.391  16.576  1.00  0.00    -0.271 OA
ENDROOT
BRANCH   1   5
HETATM    5  C3  UNL     1      13.733  21.935  15.295  1.00  0.00     0.176 C 
BRANCH   5   6
HETATM    6  C2  UNL     1      13.798  20.511  14.772  1.00  0.00     0.030 C 
HETATM    7  C1  UNL     1      14.765  19.643  15.521  1.00  0.00     0.007 C 
ENDBRANCH   5   6
BRANCH   5   8
HETATM    8  C17 UNL     1      14.920  22.674  14.853  1.00  0.00     0.241 C 
HETATM    9  O6  UNL     1      14.974  23.144  13.704  1.00  0.00    -0.271 OA
HETATM   10  N4  UNL     1      16.043  22.872  15.722  1.00  0.00    -0.345 N 
ATOM     11  H4  UNL     1      16.005  22.480  16.663  1.00  0.00     0.163 HD
BRANCH  10  12
HETATM   12  C18 UNL     1      17.202  23.587  15.336  1.00  0.00     0.184 C 
BRANCH  12  13
HETATM   13  C19 UNL     1      17.780  24.604  16.259  1.00  0.00     0.040 C 
BRANCH  13  14
HETATM   14  C20 UNL     1      17.803  24.299  17.703  1.00  0.00    -0.016 C 
HETATM   15  C21 UNL     1      18.356  25.483  18.544  1.00  0.00     0.010 C 
BRANCH  14  16
HETATM   16  C22 UNL     1      16.513  23.928  18.364  1.00  0.00     0.008 C 
BRANCH  16  17
HETATM   17  C23 UNL     1      15.761  24.948  19.108  1.00  0.00    -0.023 C 
HETATM   18  C24 UNL     1      15.354  24.666  20.521  1.00  0.00     0.009 C 
HETATM   19  C25 UNL     1      14.471  25.338  18.337  1.00  0.00     0.009 C 
ENDBRANCH  16  17
ENDBRANCH  14  16
ENDBRANCH  13  14
ENDBRANCH  12  13
BRANCH  12  20
HETATM   20  C26 UNL     1      18.280  22.681  14.821  1.00  0.00     0.281 C 
HETATM   21  O7  UNL     1      19.103  22.171  15.611  1.00  0.00    -0.263 OA
BRANCH  20  22
HETATM   22  O8  UNL     1      18.381  22.400  13.478  1.00  0.00    -0.325 OA
HETATM   23  C27 UNL     1      18.130  23.400  12.521  1.00  0.00     0.213 C 
ENDBRANCH  20  22
ENDBRANCH  12  20
ENDBRANCH  10  12
ENDBRANCH   5   8
ENDBRANCH   1   5
BRANCH   3  24
HETATM   24  C5  UNL     1      12.119  22.305  18.776  1.00  0.00     0.221 C 
HETATM   25  C6  UNL     1      13.130  21.592  19.580  1.00  0.00     0.050 C 
BRANCH  24  26
HETATM   26  O2  UNL     1      10.821  21.889  19.134  1.00  0.00    -0.289 OA
BRANCH  26  27
HETATM   27  C7  UNL     1      10.439  21.139  20.220  1.00  0.00     0.363 C 
HETATM   28  O3  UNL     1      10.244  21.800  21.306  1.00  0.00    -0.238 OA
HETATM   29  N2  UNL     1      10.259  19.745  20.161  1.00  0.00    -0.326 N 
HETATM   30  C8  UNL     1       9.805  18.847  21.175  1.00  0.00     0.130 C 
HETATM   31  C16 UNL     1      10.527  18.922  19.012  1.00  0.00     0.153 C 
HETATM   32  C9  UNL     1       8.935  17.854  20.361  1.00  0.00     0.047 C 
HETATM   33  C10 UNL     1       9.133  18.231  18.920  1.00  0.00     0.106 C 
BRANCH  33  34
HETATM   34  N3  UNL     1       9.223  17.120  18.010  1.00  0.00    -0.331 N 
HETATM   35  C11 UNL     1       8.097  16.345  17.620  1.00  0.00     0.361 C 
HETATM   36  O4  UNL     1       6.947  16.617  18.072  1.00  0.00    -0.238 OA
ATOM     37  H3  UNL     1      10.137  16.878  17.626  1.00  0.00     0.165 HD
BRANCH  35  38
HETATM   38  O5  UNL     1       8.182  15.295  16.757  1.00  0.00    -0.294 OA
BRANCH  38  39
HETATM   39  C12 UNL     1       8.023  15.270  15.377  1.00  0.00     0.061 C 
HETATM   40  C13 UNL     1       9.447  15.343  14.793  1.00  0.00     0.046 C 
HETATM   41  C14 UNL     1       7.341  14.091  14.795  1.00  0.00     0.046 C 
HETATM   42  C15 UNL     1       7.294  16.537  14.891  1.00  0.00     0.046 C 
ENDBRANCH  38  39
ENDBRANCH  35  38
ENDBRANCH  33  34
ENDBRANCH  26  27
ENDBRANCH  24  26
ENDBRANCH   3  24
TORSDOF 16
ENDMDL
MODEL 3
REMARK VINA RESULT: -8.460640672      2.528     10.168
REMARK  16 active torsions:
REMARK  status: ('A' for Active; 'I' for Inactive)
REMARK    1  A    between atoms: C2_2  and  C3_3 
REMARK    2  A    between atoms: C3_3  and  N1_4 
REMARK    3  A    between atoms: C3_3  and  C17_27 
REMARK       I    between atoms: N1_4  and  C4_6 
REMARK    4  A    between atoms: C4_6  and  C5_8 
REMARK    5  A    between atoms: C5_8  and  O2_10 
REMARK    6  A    between atoms: O2_10  and  C7_11 
REMARK       I    between atoms: C7_11  and  N2_13 
REMARK    7  A    between atoms: C10_16  and  N3_17 
REMARK       I    between atoms: N3_17  and  C11_19 
REMARK    8  A    between atoms: C11_19  and  O5_21 
REMARK    9  A    between atoms: O5_21  and  C12_22 
REMARK       I    between atoms: C17_27  and  N4_29 
REMARK   10  A    between atoms: N4_29  and  C18_31 
REMARK   11  A    between atoms: C18_31  and  C19_32 
REMARK   12  A    between atoms: C18_31  and  C26_39 
REMARK   13  A    between atoms: C19_32  and  C20_33 
REMARK   14  A    between atoms: C20_33  and  C22_35 
REMARK   15  A    between atoms: C22_35  and  C23_36 
REMARK   16  A    between atoms: C26_39  and  O8_41 
ROOT
HETATM    1  N1  UNL     1      11.890  20.607  16.907  1.00  0.00    -0.346 N 
ATOM      2  H1  UNL     1      12.247  19.890  17.538  1.00  0.00     0.163 HD
HETATM    3  C4  UNL     1      11.323  21.790  17.432  1.00  0.00     0.247 C 
HETATM    4  O1  UNL     1      10.872  22.661  16.674  1.00  0.00    -0.271 OA
ENDROOT
BRANCH   1   5
HETATM    5  C3  UNL     1      11.966  20.411  15.458  1.00  0.00     0.176 C 
BRANCH   5   6
HETATM    6  C2  UNL     1      11.952  18.942  15.077  1.00  0.00     0.030 C 
HETATM    7  C1  UNL     1      10.672  18.245  15.426  1.00  0.00     0.007 C 
ENDBRANCH   5   6
BRANCH   5   8
HETATM    8  C17 UNL     1      13.149  21.057  14.879  1.00  0.00     0.241 C 
HETATM    9  O6  UNL     1      13.235  21.220  13.650  1.00  0.00    -0.271 OA
HETATM   10  N4  UNL     1      14.230  21.513  15.703  1.00  0.00    -0.345 N 
ATOM     11  H4  UNL     1      14.165  21.372  16.712  1.00  0.00     0.163 HD
BRANCH  10  12
HETATM   12  C18 UNL     1      15.383  22.148  15.184  1.00  0.00     0.184 C 
BRANCH  12  13
HETATM   13  C19 UNL     1      15.996  23.283  15.929  1.00  0.00     0.040 C 
BRANCH  13  14
HETATM   14  C20 UNL     1      16.431  23.047  17.320  1.00  0.00    -0.016 C 
HETATM   15  C21 UNL     1      17.766  23.771  17.648  1.00  0.00     0.010 C 
BRANCH  14  16
HETATM   16  C22 UNL     1      15.501  23.440  18.424  1.00  0.00     0.008 C 
BRANCH  16  17
HETATM   17  C23 UNL     1      15.591  24.788  19.003  1.00  0.00    -0.023 C 
HETATM   18  C24 UNL     1      15.518  24.948  20.489  1.00  0.00     0.009 C 
HETATM   19  C25 UNL     1      14.499  25.711  18.395  1.00  0.00     0.009 C 
ENDBRANCH  16  17
ENDBRANCH  14  16
ENDBRANCH  13  14
ENDBRANCH  12  13
BRANCH  12  20
HETATM   20  C26 UNL     1      16.438  21.162  14.779  1.00  0.00     0.281 C 
HETATM   21  O7  UNL     1      16.264  19.940  14.971  1.00  0.00    -0.263 OA
BRANCH  20  22
HETATM   22  O8  UNL     1      17.609  21.586  14.196  1.00  0.00    -0.325 OA
HETATM   23  C27 UNL     1      18.833  21.454  14.877  1.00  0.00     0.213 C 
ENDBRANCH  20  22
ENDBRANCH  12  20
ENDBRANCH  10  12
ENDBRANCH   5   8
ENDBRANCH   1   5
BRANCH   3  24
HETATM   24  C5  UNL     1      11.261  22.011  18.894  1.00  0.00     0.221 C 
HETATM   25  C6  UNL     1      12.414  21.512  19.668  1.00  0.00     0.050 C 
BRANCH  24  26
HETATM   26  O2  UNL     1      10.058  21.496  19.415  1.00  0.00    -0.289 OA
BRANCH  26  27
HETATM   27  C7  UNL     1       9.884  20.683  20.510  1.00  0.00     0.363 C 
HETATM   28  O3  UNL     1       9.786  21.292  21.639  1.00  0.00    -0.238 OA
HETATM   29  N2  UNL     1       9.810  19.282  20.417  1.00  0.00    -0.326 N 
HETATM   30  C8  UNL     1       9.568  18.318  21.444  1.00  0.00     0.130 C 
HETATM   31  C16 UNL     1       9.985  18.519  19.210  1.00  0.00     0.153 C 
HETATM   32  C9  UNL     1       8.678  17.281  20.710  1.00  0.00     0.047 C 
HETATM   33  C10 UNL     1       8.651  17.717  19.272  1.00  0.00     0.106 C 
BRANCH  33  34
HETATM   34  N3  UNL     1       8.705  16.646  18.313  1.00  0.00    -0.331 N 
HETATM   35  C11 UNL     1       7.573  15.860  17.963  1.00  0.00     0.361 C 
HETATM   36  O4  UNL     1       6.450  16.086  18.498  1.00  0.00    -0.238 OA
ATOM     37  H3  UNL     1       9.598  16.441  17.863  1.00  0.00     0.165 HD
BRANCH  35  38
HETATM   38  O5  UNL     1       7.625  14.848  17.055  1.00  0.00    -0.294 OA
BRANCH  38  39
HETATM   39  C12 UNL     1       7.449  14.888  15.676  1.00  0.00     0.061 C 
HETATM   40  C13 UNL     1       8.866  14.857  15.074  1.00  0.00     0.046 C 
HETATM   41  C14 UNL     1       6.659  13.794  15.064  1.00  0.00     0.046 C 
HETATM   42  C15 UNL     1       6.827  16.230  15.247  1.00  0.00     0.046 C 
ENDBRANCH  38  39
ENDBRANCH  35  38
ENDBRANCH  33  34
ENDBRANCH  26  27
ENDBRANCH  24  26
ENDBRANCH   3  24
TORSDOF 16
ENDMDL
MODEL 4
REMARK VINA RESULT: -8.233920954      2.501      4.875
REMARK  16 active torsions:
REMARK  status: ('A' for Active; 'I' for Inactive)
REMARK    1  A    between atoms: C2_2  and  C3_3 
REMARK    2  A    between atoms: C3_3  and  N1_4 
REMARK    3  A    between atoms: C3_3  and  C17_27 
REMARK       I    between atoms: N1_4  and  C4_6 
REMARK    4  A    between atoms: C4_6  and  C5_8 
REMARK    5  A    between atoms: C5_8  and  O2_10 
REMARK    6  A    between atoms: O2_10  and  C7_11 
REMARK       I    between atoms: C7_11  and  N2_13 
REMARK    7  A    between atoms: C10_16  and  N3_17 
REMARK       I    between atoms: N3_17  and  C11_19 
REMARK    8  A    between atoms: C11_19  and  O5_21 
REMARK    9  A    between atoms: O5_21  and  C12_22 
REMARK       I    between atoms: C17_27  and  N4_29 
REMARK   10  A    between atoms: N4_29  and  C18_31 
REMARK   11  A    between atoms: C18_31  and  C19_32 
REMARK   12  A    between atoms: C18_31  and  C26_39 
REMARK   13  A    between atoms: C19_32  and  C20_33 
REMARK   14  A    between atoms: C20_33  and  C22_35 
REMARK   15  A    between atoms: C22_35  and  C23_36 
REMARK   16  A    between atoms: C26_39  and  O8_41 
ROOT
HETATM    1  N1  UNL     1      11.810  20.662  17.761  1.00  0.00    -0.346 N 
ATOM      2  H1  UNL     1      12.575  20.011  17.936  1.00  0.00     0.163 HD
HETATM    3  C4  UNL     1      12.013  21.782  16.925  1.00  0.00     0.247 C 
HETATM    4  O1  UNL     1      11.095  22.589  16.718  1.00  0.00    -0.271 OA
ENDROOT
BRANCH   1   5
HETATM    5  C3  UNL     1      10.501  20.437  18.377  1.00  0.00     0.176 C 
BRANCH   5   6
HETATM    6  C2  UNL     1      10.612  20.077  19.848  1.00  0.00     0.030 C 
HETATM    7  C1  UNL     1      10.441  21.251  20.764  1.00  0.00     0.007 C 
ENDBRANCH   5   6
BRANCH   5   8
HETATM    8  C17 UNL     1       9.738  19.398  17.676  1.00  0.00     0.241 C 
HETATM    9  O6  UNL     1       9.196  19.648  16.586  1.00  0.00    -0.271 OA
HETATM   10  N4  UNL     1       9.594  18.080  18.221  1.00  0.00    -0.345 N 
ATOM     11  H4  UNL     1      10.032  17.875  19.120  1.00  0.00     0.163 HD
BRANCH  10  12
HETATM   12  C18 UNL     1       8.875  17.049  17.571  1.00  0.00     0.184 C 
BRANCH  12  13
HETATM   13  C19 UNL     1       9.545  16.237  16.517  1.00  0.00     0.040 C 
BRANCH  13  14
HETATM   14  C20 UNL     1       9.190  16.495  15.108  1.00  0.00    -0.016 C 
HETATM   15  C21 UNL     1      10.428  16.878  14.251  1.00  0.00     0.010 C 
BRANCH  14  16
HETATM   16  C22 UNL     1       8.516  15.401  14.341  1.00  0.00     0.008 C 
BRANCH  16  17
HETATM   17  C23 UNL     1       7.060  15.238  14.440  1.00  0.00    -0.023 C 
HETATM   18  C24 UNL     1       6.263  16.248  15.205  1.00  0.00     0.009 C 
HETATM   19  C25 UNL     1       6.711  13.845  15.034  1.00  0.00     0.009 C 
ENDBRANCH  16  17
ENDBRANCH  14  16
ENDBRANCH  13  14
ENDBRANCH  12  13
BRANCH  12  20
HETATM   20  C26 UNL     1       8.166  16.155  18.543  1.00  0.00     0.281 C 
HETATM   21  O7  UNL     1       7.890  14.977  18.228  1.00  0.00    -0.263 OA
BRANCH  20  22
HETATM   22  O8  UNL     1       7.807  16.614  19.789  1.00  0.00    -0.325 OA
HETATM   23  C27 UNL     1       7.648  15.718  20.861  1.00  0.00     0.213 C 
ENDBRANCH  20  22
ENDBRANCH  12  20
ENDBRANCH  10  12
ENDBRANCH   5   8
ENDBRANCH   1   5
BRANCH   3  24
HETATM   24  C5  UNL     1      13.326  22.010  16.278  1.00  0.00     0.221 C 
HETATM   25  C6  UNL     1      13.567  21.255  15.034  1.00  0.00     0.050 C 
BRANCH  24  26
HETATM   26  O2  UNL     1      14.369  21.790  17.199  1.00  0.00    -0.289 OA
BRANCH  26  27
HETATM   27  C7  UNL     1      14.478  22.259  18.486  1.00  0.00     0.363 C 
HETATM   28  O3  UNL     1      14.258  21.391  19.410  1.00  0.00    -0.238 OA
HETATM   29  N2  UNL     1      14.817  23.590  18.789  1.00  0.00    -0.326 N 
HETATM   30  C8  UNL     1      15.032  24.203  20.061  1.00  0.00     0.130 C 
HETATM   31  C16 UNL     1      15.005  24.639  17.822  1.00  0.00     0.153 C 
HETATM   32  C9  UNL     1      16.212  25.164  19.762  1.00  0.00     0.047 C 
HETATM   33  C10 UNL     1      16.426  25.090  18.276  1.00  0.00     0.106 C 
BRANCH  33  34
HETATM   34  N3  UNL     1      16.740  26.345  17.645  1.00  0.00    -0.331 N 
HETATM   35  C11 UNL     1      17.829  26.509  16.746  1.00  0.00     0.361 C 
HETATM   36  O4  UNL     1      18.575  25.528  16.462  1.00  0.00    -0.238 OA
ATOM     37  H3  UNL     1      16.154  27.154  17.853  1.00  0.00     0.165 HD
BRANCH  35  38
HETATM   38  O5  UNL     1      18.125  27.696  16.149  1.00  0.00    -0.294 OA
BRANCH  38  39
HETATM   39  C12 UNL     1      19.156  28.588  16.418  1.00  0.00     0.061 C 
HETATM   40  C13 UNL     1      18.695  29.942  15.845  1.00  0.00     0.046 C 
HETATM   41  C14 UNL     1      19.525  28.786  17.839  1.00  0.00     0.046 C 
HETATM   42  C15 UNL     1      20.426  28.202  15.640  1.00  0.00     0.046 C 
ENDBRANCH  38  39
ENDBRANCH  35  38
ENDBRANCH  33  34
ENDBRANCH  26  27
ENDBRANCH  24  26
ENDBRANCH   3  24
TORSDOF 16
ENDMDL
MODEL 5
REMARK VINA RESULT: -8.211748529      2.377     10.481
REMARK  16 active torsions:
REMARK  status: ('A' for Active; 'I' for Inactive)
REMARK    1  A    between atoms: C2_2  and  C3_3 
REMARK    2  A    between atoms: C3_3  and  N1_4 
REMARK    3  A    between atoms: C3_3  and  C17_27 
REMARK       I    between atoms: N1_4  and  C4_6 
REMARK    4  A    between atoms: C4_6  and  C5_8 
REMARK    5  A    between atoms: C5_8  and  O2_10 
REMARK    6  A    between atoms: O2_10  and  C7_11 
REMARK       I    between atoms: C7_11  and  N2_13 
REMARK    7  A    between atoms: C10_16  and  N3_17 
REMARK       I    between atoms: N3_17  and  C11_19 
REMARK    8  A    between atoms: C11_19  and  O5_21 
REMARK    9  A    between atoms: O5_21  and  C12_22 
REMARK       I    between atoms: C17_27  and  N4_29 
REMARK   10  A    between atoms: N4_29  and  C18_31 
REMARK   11  A    between atoms: C18_31  and  C19_32 
REMARK   12  A    between atoms: C18_31  and  C26_39 
REMARK   13  A    between atoms: C19_32  and  C20_33 
REMARK   14  A    between atoms: C20_33  and  C22_35 
REMARK   15  A    between atoms: C22_35  and  C23_36 
REMARK   16  A    between atoms: C26_39  and  O8_41 
ROOT
HETATM    1  N1  UNL     1      14.009  23.387  18.683  1.00  0.00    -0.346 N 
ATOM      2  H1  UNL     1      13.458  24.065  18.156  1.00  0.00     0.163 HD
HETATM    3  C4  UNL     1      13.514  22.079  18.883  1.00  0.00     0.247 C 
HETATM    4  O1  UNL     1      14.168  21.252  19.535  1.00  0.00    -0.271 OA
ENDROOT
BRANCH   1   5
HETATM    5  C3  UNL     1      15.312  23.769  19.230  1.00  0.00     0.176 C 
BRANCH   5   6
HETATM    6  C2  UNL     1      15.303  25.173  19.807  1.00  0.00     0.030 C 
HETATM    7  C1  UNL     1      16.461  25.453  20.717  1.00  0.00     0.007 C 
ENDBRANCH   5   6
BRANCH   5   8
HETATM    8  C17 UNL     1      16.380  23.658  18.231  1.00  0.00     0.241 C 
HETATM    9  O6  UNL     1      17.459  23.114  18.524  1.00  0.00    -0.271 OA
HETATM   10  N4  UNL     1      16.215  24.167  16.901  1.00  0.00    -0.345 N 
ATOM     11  H4  UNL     1      15.334  24.620  16.660  1.00  0.00     0.163 HD
BRANCH  10  12
HETATM   12  C18 UNL     1      17.217  24.070  15.906  1.00  0.00     0.184 C 
BRANCH  12  13
HETATM   13  C19 UNL     1      16.860  23.570  14.549  1.00  0.00     0.040 C 
BRANCH  13  14
HETATM   14  C20 UNL     1      16.978  22.122  14.288  1.00  0.00    -0.016 C 
HETATM   15  C21 UNL     1      18.447  21.625  14.384  1.00  0.00     0.010 C 
BRANCH  14  16
HETATM   16  C22 UNL     1      16.198  21.186  15.156  1.00  0.00     0.008 C 
BRANCH  16  17
HETATM   17  C23 UNL     1      14.996  20.532  14.620  1.00  0.00    -0.023 C 
HETATM   18  C24 UNL     1      13.952  21.366  13.947  1.00  0.00     0.009 C 
HETATM   19  C25 UNL     1      14.277  19.726  15.737  1.00  0.00     0.009 C 
ENDBRANCH  16  17
ENDBRANCH  14  16
ENDBRANCH  13  14
ENDBRANCH  12  13
BRANCH  12  20
HETATM   20  C26 UNL     1      18.031  25.325  15.799  1.00  0.00     0.281 C 
HETATM   21  O7  UNL     1      18.921  25.425  14.929  1.00  0.00    -0.263 OA
BRANCH  20  22
HETATM   22  O8  UNL     1      17.813  26.379  16.656  1.00  0.00    -0.325 OA
HETATM   23  C27 UNL     1      18.677  26.604  17.743  1.00  0.00     0.213 C 
ENDBRANCH  20  22
ENDBRANCH  12  20
ENDBRANCH  10  12
ENDBRANCH   5   8
ENDBRANCH   1   5
BRANCH   3  24
HETATM   24  C5  UNL     1      12.208  21.674  18.316  1.00  0.00     0.221 C 
HETATM   25  C6  UNL     1      11.894  22.213  16.979  1.00  0.00     0.050 C 
BRANCH  24  26
HETATM   26  O2  UNL     1      11.170  21.965  19.222  1.00  0.00    -0.289 OA
BRANCH  26  27
HETATM   27  C7  UNL     1      10.709  21.195  20.263  1.00  0.00     0.363 C 
HETATM   28  O3  UNL     1      10.479  21.828  21.358  1.00  0.00    -0.238 OA
HETATM   29  N2  UNL     1      10.489  19.810  20.149  1.00  0.00    -0.326 N 
HETATM   30  C8  UNL     1       9.955  18.897  21.110  1.00  0.00     0.130 C 
HETATM   31  C16 UNL     1      10.790  19.014  18.989  1.00  0.00     0.153 C 
HETATM   32  C9  UNL     1       9.098  17.958  20.221  1.00  0.00     0.047 C 
HETATM   33  C10 UNL     1       9.382  18.372  18.804  1.00  0.00     0.106 C 
BRANCH  33  34
HETATM   34  N3  UNL     1       9.483  17.288  17.864  1.00  0.00    -0.331 N 
HETATM   35  C11 UNL     1       8.352  16.589  17.362  1.00  0.00     0.361 C 
HETATM   36  O4  UNL     1       7.187  16.911  17.733  1.00  0.00    -0.238 OA
ATOM     37  H3  UNL     1      10.410  17.007  17.544  1.00  0.00     0.165 HD
BRANCH  35  38
HETATM   38  O5  UNL     1       8.448  15.564  16.471  1.00  0.00    -0.294 OA
BRANCH  38  39
HETATM   39  C12 UNL     1       8.354  15.586  15.084  1.00  0.00     0.061 C 
HETATM   40  C13 UNL     1       9.799  15.737  14.571  1.00  0.00     0.046 C 
HETATM   41  C14 UNL     1       7.748  14.404  14.429  1.00  0.00     0.046 C 
HETATM   42  C15 UNL     1       7.596  16.841  14.612  1.00  0.00     0.046 C 
ENDBRANCH  38  39
ENDBRANCH  35  38
ENDBRANCH  33  34
ENDBRANCH  26  27
ENDBRANCH  24  26
ENDBRANCH   3  24
TORSDOF 16
ENDMDL
