MODEL 1
REMARK VINA RESULT: -10.404781733      0.000      0.000
REMARK  14 active torsions:
REMARK  status: ('A' for Active; 'I' for Inactive)
REMARK       I    between atoms: N1_2  and  C2_4 
REMARK    1  A    between atoms: C2_4  and  C3_6 
REMARK    2  A    between atoms: N2_8  and  C5_9 
REMARK    3  A    between atoms: C5_9  and  C6_10 
REMARK    4  A    between atoms: C6_10  and  O2_11 
REMARK    5  A    between atoms: C6_10  and  C7_13 
REMARK    6  A    between atoms: C7_13  and  C8_15 
REMARK    7  A    between atoms: C8_15  and  C9_17 
REMARK    8  A    between atoms: C11_19  and  O5_20 
REMARK    9  A    between atoms: C14_25  and  C15_26 
REMARK   10  A    between atoms: C15_26  and  O7_27 
REMARK   11  A    between atoms: C15_26  and  C16_29 
REMARK   12  A    between atoms: C21_34  and  O8_35 
REMARK   13  A    between atoms: C22_37  and  O9_38 
REMARK   14  A    between atoms: N3_40  and  O10_41 
ROOT
HETATM    1  C9  UNL     1      -7.894  18.794 -30.769  1.00  0.00     0.023 A 
HETATM    2  C10 UNL     1      -6.711  19.334 -30.387  1.00  0.00     0.053 A 
HETATM    3  C11 UNL     1      -5.631  19.423 -31.288  1.00  0.00     0.083 A 
HETATM    4  C12 UNL     1      -5.715  18.973 -32.581  1.00  0.00     0.077 A 
HETATM    5  C13 UNL     1      -4.699  19.037 -33.507  1.00  0.00     0.200 A 
HETATM    6  O6  UNL     1      -3.600  19.546 -33.132  1.00  0.00    -0.287 OA
HETATM    7  C14 UNL     1      -4.844  18.571 -34.805  1.00  0.00     0.079 A 
HETATM    8  C22 UNL     1      -6.048  18.038 -35.137  1.00  0.00     0.180 A 
HETATM    9  N3  UNL     1      -7.065  17.969 -34.226  1.00  0.00    -0.200 N 
HETATM   10  C23 UNL     1      -6.921  18.424 -32.963  1.00  0.00     0.083 A 
HETATM   11  C24 UNL     1      -7.987  18.329 -32.097  1.00  0.00     0.049 A 
ENDROOT
BRANCH   1  12
HETATM   12  C8  UNL     1      -9.069  18.669 -29.935  1.00  0.00     0.230 C 
HETATM   13  O4  UNL     1     -10.212  18.654 -30.534  1.00  0.00    -0.283 OA
BRANCH  12  14
HETATM   14  C7  UNL     1      -9.113  18.559 -28.522  1.00  0.00     0.230 C 
HETATM   15  O3  UNL     1      -9.632  19.409 -27.784  1.00  0.00    -0.286 OA
BRANCH  14  16
HETATM   16  C6  UNL     1      -8.516  17.367 -27.826  1.00  0.00     0.215 C 
BRANCH  16  17
HETATM   17  C5  UNL     1      -7.256  17.865 -27.101  1.00  0.00     0.189 C 
BRANCH  17  18
HETATM   18  N2  UNL     1      -7.561  18.043 -25.680  1.00  0.00    -0.284 N 
HETATM   19  C4  UNL     1      -7.556  17.016 -24.797  1.00  0.00     0.148 A 
HETATM   20  C3  UNL     1      -7.877  17.528 -23.565  1.00  0.00     0.134 A 
HETATM   21  N5  UNL     1      -8.064  18.839 -23.753  1.00  0.00    -0.280 N 
HETATM   22  N4  UNL     1      -7.869  19.137 -25.036  1.00  0.00    -0.240 N 
ATOM     23  H5  UNL     1      -8.317  19.508 -23.025  1.00  0.00     0.189 HD
ATOM     24  H4  UNL     1      -7.948  20.067 -25.448  1.00  0.00     0.208 HD
BRANCH  20  25
HETATM   25  C2  UNL     1      -8.000  16.833 -22.287  1.00  0.00     0.270 C 
HETATM   26  N1  UNL     1      -8.585  15.544 -22.211  1.00  0.00    -0.360 N 
HETATM   27  C1  UNL     1      -8.714  14.840 -20.954  1.00  0.00     0.149 C 
ATOM     28  H1  UNL     1      -8.925  15.100 -23.065  1.00  0.00     0.162 HD
HETATM   29  O1  UNL     1      -7.588  17.362 -21.225  1.00  0.00    -0.266 OA
ENDBRANCH  20  25
ENDBRANCH  17  18
ENDBRANCH  16  17
BRANCH  16  30
HETATM   30  O2  UNL     1      -8.113  16.442 -28.795  1.00  0.00    -0.386 OA
ATOM     31  H2  UNL     1      -8.833  16.328 -29.403  1.00  0.00     0.210 HD
ENDBRANCH  16  30
ENDBRANCH  14  16
ENDBRANCH  12  14
ENDBRANCH   1  12
BRANCH   3  32
HETATM   32  O5  UNL     1      -4.431  19.980 -30.872  1.00  0.00    -0.360 OA
ATOM     33  H5  UNL     1      -3.736  19.417 -30.550  1.00  0.00     0.217 HD
ENDBRANCH   3  32
BRANCH   9  34
HETATM   34  O10 UNL     1      -8.246  17.427 -34.613  1.00  0.00    -0.280 OA
ATOM     35  H10 UNL     1      -8.954  18.010 -34.862  1.00  0.00     0.245 HD
ENDBRANCH   9  34
BRANCH   8  36
HETATM   36  O9  UNL     1      -6.231  17.559 -36.430  1.00  0.00    -0.344 OA
ATOM     37  H9  UNL     1      -7.071  17.180 -36.660  1.00  0.00     0.219 HD
ENDBRANCH   8  36
BRANCH   7  38
HETATM   38  C15 UNL     1      -3.707  18.680 -35.739  1.00  0.00     0.195 C 
BRANCH  38  39
HETATM   39  O7  UNL     1      -4.235  18.838 -37.003  1.00  0.00    -0.386 OA
ATOM     40  H7  UNL     1      -4.097  18.021 -37.468  1.00  0.00     0.210 HD
ENDBRANCH  38  39
BRANCH  38  41
HETATM   41  C16 UNL     1      -2.664  17.680 -35.568  1.00  0.00     0.008 A 
HETATM   42  C17 UNL     1      -2.917  16.659 -34.636  1.00  0.00     0.013 A 
HETATM   43  C18 UNL     1      -2.013  15.657 -34.370  1.00  0.00     0.001 A 
HETATM   44  C19 UNL     1      -0.804  15.629 -35.028  1.00  0.00     0.003 A 
HETATM   45  C20 UNL     1      -0.540  16.610 -35.934  1.00  0.00     0.037 A 
HETATM   46  C21 UNL     1      -1.463  17.653 -36.222  1.00  0.00     0.074 A 
BRANCH  46  47
HETATM   47  O8  UNL     1      -1.071  18.566 -37.150  1.00  0.00    -0.360 OA
ATOM     48  H8  UNL     1      -0.175  18.856 -37.274  1.00  0.00     0.217 HD
ENDBRANCH  46  47
ENDBRANCH  38  41
ENDBRANCH   7  38
TORSDOF 14
ENDMDL
MODEL 2
REMARK VINA RESULT: -10.304840282      2.535      5.147
REMARK  14 active torsions:
REMARK  status: ('A' for Active; 'I' for Inactive)
REMARK       I    between atoms: N1_2  and  C2_4 
REMARK    1  A    between atoms: C2_4  and  C3_6 
REMARK    2  A    between atoms: N2_8  and  C5_9 
REMARK    3  A    between atoms: C5_9  and  C6_10 
REMARK    4  A    between atoms: C6_10  and  O2_11 
REMARK    5  A    between atoms: C6_10  and  C7_13 
REMARK    6  A    between atoms: C7_13  and  C8_15 
REMARK    7  A    between atoms: C8_15  and  C9_17 
REMARK    8  A    between atoms: C11_19  and  O5_20 
REMARK    9  A    between atoms: C14_25  and  C15_26 
REMARK   10  A    between atoms: C15_26  and  O7_27 
REMARK   11  A    between atoms: C15_26  and  C16_29 
REMARK   12  A    between atoms: C21_34  and  O8_35 
REMARK   13  A    between atoms: C22_37  and  O9_38 
REMARK   14  A    between atoms: N3_40  and  O10_41 
ROOT
HETATM    1  C9  UNL     1      -6.233  16.514 -27.787  1.00  0.00     0.023 A 
HETATM    2  C10 UNL     1      -6.849  15.551 -28.517  1.00  0.00     0.053 A 
HETATM    3  C11 UNL     1      -7.104  15.736 -29.890  1.00  0.00     0.083 A 
HETATM    4  C12 UNL     1      -6.750  16.882 -30.554  1.00  0.00     0.077 A 
HETATM    5  C13 UNL     1      -6.968  17.118 -31.893  1.00  0.00     0.200 A 
HETATM    6  O6  UNL     1      -7.544  16.206 -32.559  1.00  0.00    -0.287 OA
HETATM    7  C14 UNL     1      -6.582  18.296 -32.515  1.00  0.00     0.079 A 
HETATM    8  C22 UNL     1      -5.970  19.229 -31.740  1.00  0.00     0.180 A 
HETATM    9  N3  UNL     1      -5.749  19.006 -30.408  1.00  0.00    -0.200 N 
HETATM   10  C23 UNL     1      -6.126  17.857 -29.807  1.00  0.00     0.083 A 
HETATM   11  C24 UNL     1      -5.867  17.696 -28.464  1.00  0.00     0.049 A 
ENDROOT
BRANCH   1  12
HETATM   12  C8  UNL     1      -5.908  16.424 -26.381  1.00  0.00     0.230 C 
HETATM   13  O4  UNL     1      -4.863  15.737 -26.065  1.00  0.00    -0.283 OA
BRANCH  12  14
HETATM   14  C7  UNL     1      -6.612  17.010 -25.296  1.00  0.00     0.230 C 
HETATM   15  O3  UNL     1      -6.112  17.202 -24.179  1.00  0.00    -0.286 OA
BRANCH  14  16
HETATM   16  C6  UNL     1      -8.044  17.441 -25.454  1.00  0.00     0.215 C 
BRANCH  16  17
HETATM   17  C5  UNL     1      -8.105  18.922 -25.050  1.00  0.00     0.189 C 
BRANCH  17  18
HETATM   18  N2  UNL     1      -8.668  19.698 -26.157  1.00  0.00    -0.284 N 
HETATM   19  C4  UNL     1      -9.039  19.133 -27.331  1.00  0.00     0.148 A 
HETATM   20  C3  UNL     1      -9.523  20.133 -28.136  1.00  0.00     0.134 A 
HETATM   21  N5  UNL     1      -9.424  21.259 -27.419  1.00  0.00    -0.280 N 
HETATM   22  N4  UNL     1      -8.905  20.981 -26.225  1.00  0.00    -0.240 N 
ATOM     23  H5  UNL     1      -9.702  22.186 -27.738  1.00  0.00     0.189 HD
ATOM     24  H4  UNL     1      -8.723  21.658 -25.484  1.00  0.00     0.208 HD
BRANCH  20  25
HETATM   25  C2  UNL     1     -10.050  20.043 -29.494  1.00  0.00     0.270 C 
HETATM   26  N1  UNL     1      -9.649  18.997 -30.364  1.00  0.00    -0.360 N 
HETATM   27  C1  UNL     1     -10.162  18.892 -31.712  1.00  0.00     0.149 C 
ATOM     28  H1  UNL     1      -8.982  18.302 -30.030  1.00  0.00     0.162 HD
HETATM   29  O1  UNL     1     -10.873  20.890 -29.923  1.00  0.00    -0.266 OA
ENDBRANCH  20  25
ENDBRANCH  17  18
ENDBRANCH  16  17
BRANCH  16  30
HETATM   30  O2  UNL     1      -8.829  16.719 -24.549  1.00  0.00    -0.386 OA
ATOM     31  H2  UNL     1      -8.630  15.797 -24.666  1.00  0.00     0.210 HD
ENDBRANCH  16  30
ENDBRANCH  14  16
ENDBRANCH  12  14
ENDBRANCH   1  12
BRANCH   3  32
HETATM   32  O5  UNL     1      -7.736  14.735 -30.614  1.00  0.00    -0.360 OA
ATOM     33  H5  UNL     1      -7.701  14.745 -31.563  1.00  0.00     0.217 HD
ENDBRANCH   3  32
BRANCH   9  34
HETATM   34  O10 UNL     1      -5.134  19.973 -29.684  1.00  0.00    -0.280 OA
ATOM     35  H10 UNL     1      -4.232  19.836 -29.417  1.00  0.00     0.245 HD
ENDBRANCH   9  34
BRANCH   8  36
HETATM   36  O9  UNL     1      -5.569  20.424 -32.327  1.00  0.00    -0.344 OA
ATOM     37  H9  UNL     1      -5.420  21.177 -31.768  1.00  0.00     0.219 HD
ENDBRANCH   8  36
BRANCH   7  38
HETATM   38  C15 UNL     1      -6.847  18.469 -33.955  1.00  0.00     0.195 C 
BRANCH  38  39
HETATM   39  O7  UNL     1      -8.132  18.024 -34.187  1.00  0.00    -0.386 OA
ATOM     40  H7  UNL     1      -8.110  17.074 -34.147  1.00  0.00     0.210 HD
ENDBRANCH  38  39
BRANCH  38  41
HETATM   41  C16 UNL     1      -5.800  17.987 -34.842  1.00  0.00     0.008 A 
HETATM   42  C17 UNL     1      -4.574  17.647 -34.244  1.00  0.00     0.013 A 
HETATM   43  C18 UNL     1      -3.497  17.189 -34.966  1.00  0.00     0.001 A 
HETATM   44  C19 UNL     1      -3.596  17.046 -36.332  1.00  0.00     0.003 A 
HETATM   45  C20 UNL     1      -4.775  17.370 -36.930  1.00  0.00     0.037 A 
HETATM   46  C21 UNL     1      -5.899  17.845 -36.199  1.00  0.00     0.074 A 
BRANCH  46  47
HETATM   47  O8  UNL     1      -7.013  18.129 -36.924  1.00  0.00    -0.360 OA
ATOM     48  H8  UNL     1      -7.347  17.591 -37.631  1.00  0.00     0.217 HD
ENDBRANCH  46  47
ENDBRANCH  38  41
ENDBRANCH   7  38
TORSDOF 14
ENDMDL
MODEL 3
REMARK VINA RESULT: -10.229711923      2.283      3.355
REMARK  14 active torsions:
REMARK  status: ('A' for Active; 'I' for Inactive)
REMARK       I    between atoms: N1_2  and  C2_4 
REMARK    1  A    between atoms: C2_4  and  C3_6 
REMARK    2  A    between atoms: N2_8  and  C5_9 
REMARK    3  A    between atoms: C5_9  and  C6_10 
REMARK    4  A    between atoms: C6_10  and  O2_11 
REMARK    5  A    between atoms: C6_10  and  C7_13 
REMARK    6  A    between atoms: C7_13  and  C8_15 
REMARK    7  A    between atoms: C8_15  and  C9_17 
REMARK    8  A    between atoms: C11_19  and  O5_20 
REMARK    9  A    between atoms: C14_25  and  C15_26 
REMARK   10  A    between atoms: C15_26  and  O7_27 
REMARK   11  A    between atoms: C15_26  and  C16_29 
REMARK   12  A    between atoms: C21_34  and  O8_35 
REMARK   13  A    between atoms: C22_37  and  O9_38 
REMARK   14  A    between atoms: N3_40  and  O10_41 
ROOT
HETATM    1  C9  UNL     1      -6.554  16.689 -31.018  1.00  0.00     0.023 A 
HETATM    2  C10 UNL     1      -7.449  17.230 -31.881  1.00  0.00     0.053 A 
HETATM    3  C11 UNL     1      -7.064  17.604 -33.184  1.00  0.00     0.083 A 
HETATM    4  C12 UNL     1      -5.782  17.444 -33.644  1.00  0.00     0.077 A 
HETATM    5  C13 UNL     1      -5.347  17.784 -34.905  1.00  0.00     0.200 A 
HETATM    6  O6  UNL     1      -6.199  18.288 -35.698  1.00  0.00    -0.287 OA
HETATM    7  C14 UNL     1      -4.037  17.594 -35.318  1.00  0.00     0.079 A 
HETATM    8  C22 UNL     1      -3.180  17.050 -34.416  1.00  0.00     0.180 A 
HETATM    9  N3  UNL     1      -3.599  16.709 -33.160  1.00  0.00    -0.200 N 
HETATM   10  C23 UNL     1      -4.876  16.895 -32.761  1.00  0.00     0.083 A 
HETATM   11  C24 UNL     1      -5.233  16.523 -31.485  1.00  0.00     0.049 A 
ENDROOT
BRANCH   1  12
HETATM   12  C8  UNL     1      -6.843  16.257 -29.668  1.00  0.00     0.230 C 
HETATM   13  O4  UNL     1      -7.618  15.234 -29.536  1.00  0.00    -0.283 OA
BRANCH  12  14
HETATM   14  C7  UNL     1      -6.369  16.831 -28.461  1.00  0.00     0.230 C 
HETATM   15  O3  UNL     1      -5.694  16.212 -27.626  1.00  0.00    -0.286 OA
BRANCH  14  16
HETATM   16  C6  UNL     1      -6.670  18.265 -28.124  1.00  0.00     0.215 C 
BRANCH  16  17
HETATM   17  C5  UNL     1      -8.077  18.288 -27.508  1.00  0.00     0.189 C 
BRANCH  17  18
HETATM   18  N2  UNL     1      -7.959  18.350 -26.049  1.00  0.00    -0.284 N 
HETATM   19  C4  UNL     1      -7.958  17.243 -25.268  1.00  0.00     0.148 A 
HETATM   20  C3  UNL     1      -7.831  17.656 -23.966  1.00  0.00     0.134 A 
HETATM   21  N5  UNL     1      -7.763  18.991 -24.012  1.00  0.00    -0.280 N 
HETATM   22  N4  UNL     1      -7.842  19.397 -25.277  1.00  0.00    -0.240 N 
ATOM     23  H5  UNL     1      -7.666  19.604 -23.202  1.00  0.00     0.189 HD
ATOM     24  H4  UNL     1      -7.815  20.367 -25.593  1.00  0.00     0.208 HD
BRANCH  20  25
HETATM   25  C2  UNL     1      -7.774  16.850 -22.750  1.00  0.00     0.270 C 
HETATM   26  N1  UNL     1      -8.784  15.899 -22.457  1.00  0.00    -0.360 N 
HETATM   27  C1  UNL     1      -8.744  15.092 -21.258  1.00  0.00     0.149 C 
ATOM     28  H1  UNL     1      -9.561  15.782 -23.108  1.00  0.00     0.162 HD
HETATM   29  O1  UNL     1      -6.826  16.979 -21.936  1.00  0.00    -0.266 OA
ENDBRANCH  20  25
ENDBRANCH  17  18
ENDBRANCH  16  17
BRANCH  16  30
HETATM   30  O2  UNL     1      -6.713  19.002 -29.312  1.00  0.00    -0.386 OA
ATOM     31  H2  UNL     1      -5.918  18.816 -29.797  1.00  0.00     0.210 HD
ENDBRANCH  16  30
ENDBRANCH  14  16
ENDBRANCH  12  14
ENDBRANCH   1  12
BRANCH   3  32
HETATM   32  O5  UNL     1      -7.999  18.155 -34.047  1.00  0.00    -0.360 OA
ATOM     33  H5  UNL     1      -8.710  17.618 -34.377  1.00  0.00     0.217 HD
ENDBRANCH   3  32
BRANCH   9  34
HETATM   34  O10 UNL     1      -2.700  16.170 -32.301  1.00  0.00    -0.280 OA
ATOM     35  H10 UNL     1      -2.833  16.292 -31.368  1.00  0.00     0.245 HD
ENDBRANCH   9  34
BRANCH   8  36
HETATM   36  O9  UNL     1      -1.857  16.845 -34.794  1.00  0.00    -0.344 OA
ATOM     37  H9  UNL     1      -1.500  15.967 -34.742  1.00  0.00     0.219 HD
ENDBRANCH   8  36
BRANCH   7  38
HETATM   38  C15 UNL     1      -3.653  17.981 -36.689  1.00  0.00     0.195 C 
BRANCH  38  39
HETATM   39  O7  UNL     1      -3.530  19.354 -36.703  1.00  0.00    -0.386 OA
ATOM     40  H7  UNL     1      -2.865  19.569 -37.347  1.00  0.00     0.210 HD
ENDBRANCH  38  39
BRANCH  38  41
HETATM   41  C16 UNL     1      -4.436  17.367 -37.750  1.00  0.00     0.008 A 
HETATM   42  C17 UNL     1      -4.610  15.974 -37.680  1.00  0.00     0.013 A 
HETATM   43  C18 UNL     1      -5.319  15.266 -38.623  1.00  0.00     0.001 A 
HETATM   44  C19 UNL     1      -5.891  15.923 -39.689  1.00  0.00     0.003 A 
HETATM   45  C20 UNL     1      -5.733  17.272 -39.775  1.00  0.00     0.037 A 
HETATM   46  C21 UNL     1      -5.004  18.020 -38.809  1.00  0.00     0.074 A 
BRANCH  46  47
HETATM   47  O8  UNL     1      -4.926  19.361 -39.018  1.00  0.00    -0.360 OA
ATOM     48  H8  UNL     1      -5.069  19.784 -39.857  1.00  0.00     0.217 HD
ENDBRANCH  46  47
ENDBRANCH  38  41
ENDBRANCH   7  38
TORSDOF 14
ENDMDL
MODEL 4
REMARK VINA RESULT: -10.189359415      1.504      1.753
REMARK  14 active torsions:
REMARK  status: ('A' for Active; 'I' for Inactive)
REMARK       I    between atoms: N1_2  and  C2_4 
REMARK    1  A    between atoms: C2_4  and  C3_6 
REMARK    2  A    between atoms: N2_8  and  C5_9 
REMARK    3  A    between atoms: C5_9  and  C6_10 
REMARK    4  A    between atoms: C6_10  and  O2_11 
REMARK    5  A    between atoms: C6_10  and  C7_13 
REMARK    6  A    between atoms: C7_13  and  C8_15 
REMARK    7  A    between atoms: C8_15  and  C9_17 
REMARK    8  A    between atoms: C11_19  and  O5_20 
REMARK    9  A    between atoms: C14_25  and  C15_26 
REMARK   10  A    between atoms: C15_26  and  O7_27 
REMARK   11  A    between atoms: C15_26  and  C16_29 
REMARK   12  A    between atoms: C21_34  and  O8_35 
REMARK   13  A    between atoms: C22_37  and  O9_38 
REMARK   14  A    between atoms: N3_40  and  O10_41 
ROOT
HETATM    1  C9  UNL     1      -8.598  19.124 -31.701  1.00  0.00     0.023 A 
HETATM    2  C10 UNL     1      -7.495  19.697 -31.160  1.00  0.00     0.053 A 
HETATM    3  C11 UNL     1      -6.273  19.720 -31.861  1.00  0.00     0.083 A 
HETATM    4  C12 UNL     1      -6.134  19.172 -33.110  1.00  0.00     0.077 A 
HETATM    5  C13 UNL     1      -4.970  19.167 -33.846  1.00  0.00     0.200 A 
HETATM    6  O6  UNL     1      -3.949  19.709 -33.323  1.00  0.00    -0.287 OA
HETATM    7  C14 UNL     1      -4.890  18.601 -35.109  1.00  0.00     0.079 A 
HETATM    8  C22 UNL     1      -6.022  18.039 -35.605  1.00  0.00     0.180 A 
HETATM    9  N3  UNL     1      -7.184  18.036 -34.884  1.00  0.00    -0.200 N 
HETATM   10  C23 UNL     1      -7.259  18.589 -33.654  1.00  0.00     0.083 A 
HETATM   11  C24 UNL     1      -8.462  18.557 -32.984  1.00  0.00     0.049 A 
ENDROOT
BRANCH   1  12
HETATM   12  C8  UNL     1      -9.903  19.059 -31.078  1.00  0.00     0.230 C 
HETATM   13  O4  UNL     1     -10.690  18.116 -31.472  1.00  0.00    -0.283 OA
BRANCH  12  14
HETATM   14  C7  UNL     1     -10.422  19.919 -30.077  1.00  0.00     0.230 C 
HETATM   15  O3  UNL     1     -10.886  21.043 -30.312  1.00  0.00    -0.286 OA
BRANCH  14  16
HETATM   16  C6  UNL     1     -10.438  19.494 -28.634  1.00  0.00     0.215 C 
BRANCH  16  17
HETATM   17  C5  UNL     1      -9.018  19.012 -28.301  1.00  0.00     0.189 C 
BRANCH  17  18
HETATM   18  N2  UNL     1      -8.680  19.424 -26.936  1.00  0.00    -0.284 N 
HETATM   19  C4  UNL     1      -8.218  18.557 -26.004  1.00  0.00     0.148 A 
HETATM   20  C3  UNL     1      -8.002  19.267 -24.850  1.00  0.00     0.134 A 
HETATM   21  N5  UNL     1      -8.343  20.531 -25.130  1.00  0.00    -0.280 N 
HETATM   22  N4  UNL     1      -8.751  20.611 -26.395  1.00  0.00    -0.240 N 
ATOM     23  H5  UNL     1      -8.297  21.311 -24.475  1.00  0.00     0.189 HD
ATOM     24  H4  UNL     1      -9.066  21.460 -26.864  1.00  0.00     0.208 HD
BRANCH  20  25
HETATM   25  C2  UNL     1      -7.505  18.794 -23.562  1.00  0.00     0.270 C 
HETATM   26  N1  UNL     1      -8.309  18.867 -22.397  1.00  0.00    -0.360 N 
HETATM   27  C1  UNL     1      -7.833  18.402 -21.113  1.00  0.00     0.149 C 
ATOM     28  H1  UNL     1      -9.249  19.259 -22.466  1.00  0.00     0.162 HD
HETATM   29  O1  UNL     1      -6.351  18.308 -23.458  1.00  0.00    -0.266 OA
ENDBRANCH  20  25
ENDBRANCH  17  18
ENDBRANCH  16  17
BRANCH  16  30
HETATM   30  O2  UNL     1     -11.300  18.401 -28.501  1.00  0.00    -0.386 OA
ATOM     31  H2  UNL     1     -10.869  17.644 -28.881  1.00  0.00     0.210 HD
ENDBRANCH  16  30
ENDBRANCH  14  16
ENDBRANCH  12  14
ENDBRANCH   1  12
BRANCH   3  32
HETATM   32  O5  UNL     1      -5.159  20.313 -31.285  1.00  0.00    -0.360 OA
ATOM     33  H5  UNL     1      -5.206  20.636 -30.392  1.00  0.00     0.217 HD
ENDBRANCH   3  32
BRANCH   9  34
HETATM   34  O10 UNL     1      -8.284  17.461 -35.429  1.00  0.00    -0.280 OA
ATOM     35  H10 UNL     1      -9.136  17.677 -35.068  1.00  0.00     0.245 HD
ENDBRANCH   9  34
BRANCH   8  36
HETATM   36  O9  UNL     1      -5.980  17.461 -36.869  1.00  0.00    -0.344 OA
ATOM     37  H9  UNL     1      -5.509  16.644 -36.980  1.00  0.00     0.219 HD
ENDBRANCH   8  36
BRANCH   7  38
HETATM   38  C15 UNL     1      -3.606  18.643 -35.834  1.00  0.00     0.195 C 
BRANCH  38  39
HETATM   39  O7  UNL     1      -3.900  18.833 -37.168  1.00  0.00    -0.386 OA
ATOM     40  H7  UNL     1      -3.139  19.239 -37.567  1.00  0.00     0.210 HD
ENDBRANCH  38  39
BRANCH  38  41
HETATM   41  C16 UNL     1      -2.668  17.582 -35.499  1.00  0.00     0.008 A 
HETATM   42  C17 UNL     1      -3.063  16.688 -34.489  1.00  0.00     0.013 A 
HETATM   43  C18 UNL     1      -2.269  15.647 -34.067  1.00  0.00     0.001 A 
HETATM   44  C19 UNL     1      -1.033  15.449 -34.641  1.00  0.00     0.003 A 
HETATM   45  C20 UNL     1      -0.633  16.304 -35.621  1.00  0.00     0.037 A 
HETATM   46  C21 UNL     1      -1.441  17.386 -36.070  1.00  0.00     0.074 A 
BRANCH  46  47
HETATM   47  O8  UNL     1      -0.917  18.160 -37.057  1.00  0.00    -0.360 OA
ATOM     48  H8  UNL     1      -1.431  18.678 -37.664  1.00  0.00     0.217 HD
ENDBRANCH  46  47
ENDBRANCH  38  41
ENDBRANCH   7  38
TORSDOF 14
ENDMDL
MODEL 5
REMARK VINA RESULT: -10.120496335      3.569      5.871
REMARK  14 active torsions:
REMARK  status: ('A' for Active; 'I' for Inactive)
REMARK       I    between atoms: N1_2  and  C2_4 
REMARK    1  A    between atoms: C2_4  and  C3_6 
REMARK    2  A    between atoms: N2_8  and  C5_9 
REMARK    3  A    between atoms: C5_9  and  C6_10 
REMARK    4  A    between atoms: C6_10  and  O2_11 
REMARK    5  A    between atoms: C6_10  and  C7_13 
REMARK    6  A    between atoms: C7_13  and  C8_15 
REMARK    7  A    between atoms: C8_15  and  C9_17 
REMARK    8  A    between atoms: C11_19  and  O5_20 
REMARK    9  A    between atoms: C14_25  and  C15_26 
REMARK   10  A    between atoms: C15_26  and  O7_27 
REMARK   11  A    between atoms: C15_26  and  C16_29 
REMARK   12  A    between atoms: C21_34  and  O8_35 
REMARK   13  A    between atoms: C22_37  and  O9_38 
REMARK   14  A    between atoms: N3_40  and  O10_41 
ROOT
HETATM    1  C9  UNL     1      -7.381  18.108 -29.848  1.00  0.00     0.023 A 
HETATM    2  C10 UNL     1      -6.247  18.842 -29.734  1.00  0.00     0.053 A 
HETATM    3  C11 UNL     1      -5.430  19.091 -30.855  1.00  0.00     0.083 A 
HETATM    4  C12 UNL     1      -5.732  18.610 -32.103  1.00  0.00     0.077 A 
HETATM    5  C13 UNL     1      -4.977  18.824 -33.235  1.00  0.00     0.200 A 
HETATM    6  O6  UNL     1      -3.920  19.513 -33.110  1.00  0.00    -0.287 OA
HETATM    7  C14 UNL     1      -5.335  18.317 -34.476  1.00  0.00     0.079 A 
HETATM    8  C22 UNL     1      -6.479  17.588 -34.536  1.00  0.00     0.180 A 
HETATM    9  N3  UNL     1      -7.237  17.369 -33.419  1.00  0.00    -0.200 N 
HETATM   10  C23 UNL     1      -6.885  17.864 -32.212  1.00  0.00     0.083 A 
HETATM   11  C24 UNL     1      -7.697  17.610 -31.129  1.00  0.00     0.049 A 
ENDROOT
BRANCH   1  12
HETATM   12  C8  UNL     1      -8.299  17.806 -28.771  1.00  0.00     0.230 C 
HETATM   13  O4  UNL     1      -8.111  16.698 -28.138  1.00  0.00    -0.283 OA
BRANCH  12  14
HETATM   14  C7  UNL     1      -9.392  18.593 -28.326  1.00  0.00     0.230 C 
HETATM   15  O3  UNL     1      -9.394  19.220 -27.257  1.00  0.00    -0.286 OA
BRANCH  14  16
HETATM   16  C6  UNL     1     -10.641  18.710 -29.155  1.00  0.00     0.215 C 
BRANCH  16  17
HETATM   17  C5  UNL     1     -10.644  20.126 -29.749  1.00  0.00     0.189 C 
BRANCH  17  18
HETATM   18  N2  UNL     1     -11.131  20.065 -31.130  1.00  0.00    -0.284 N 
HETATM   19  C4  UNL     1     -10.351  19.666 -32.162  1.00  0.00     0.148 A 
HETATM   20  C3  UNL     1     -11.113  19.723 -33.302  1.00  0.00     0.134 A 
HETATM   21  N5  UNL     1     -12.318  20.156 -32.914  1.00  0.00    -0.280 N 
HETATM   22  N4  UNL     1     -12.315  20.359 -31.598  1.00  0.00    -0.240 N 
ATOM     23  H5  UNL     1     -13.116  20.307 -33.530  1.00  0.00     0.189 HD
ATOM     24  H4  UNL     1     -13.106  20.688 -31.045  1.00  0.00     0.208 HD
BRANCH  20  25
HETATM   25  C2  UNL     1     -10.738  19.392 -34.673  1.00  0.00     0.270 C 
HETATM   26  N1  UNL     1     -10.971  20.303 -35.734  1.00  0.00    -0.360 N 
HETATM   27  C1  UNL     1     -10.605  19.991 -37.098  1.00  0.00     0.149 C 
ATOM     28  H1  UNL     1     -11.407  21.202 -35.530  1.00  0.00     0.162 HD
HETATM   29  O1  UNL     1     -10.199  18.290 -34.944  1.00  0.00    -0.266 OA
ENDBRANCH  20  25
ENDBRANCH  17  18
ENDBRANCH  16  17
BRANCH  16  30
HETATM   30  O2  UNL     1     -11.749  18.601 -28.308  1.00  0.00    -0.386 OA
ATOM     31  H2  UNL     1     -12.362  17.997 -28.711  1.00  0.00     0.210 HD
ENDBRANCH  16  30
ENDBRANCH  14  16
ENDBRANCH  12  14
ENDBRANCH   1  12
BRANCH   3  32
HETATM   32  O5  UNL     1      -4.274  19.845 -30.711  1.00  0.00    -0.360 OA
ATOM     33  H5  UNL     1      -4.266  20.753 -30.991  1.00  0.00     0.217 HD
ENDBRANCH   3  32
BRANCH   9  34
HETATM   34  O10 UNL     1      -8.369  16.633 -33.538  1.00  0.00    -0.280 OA
ATOM     35  H10 UNL     1      -8.808  16.343 -32.747  1.00  0.00     0.245 HD
ENDBRANCH   9  34
BRANCH   8  36
HETATM   36  O9  UNL     1      -6.871  17.063 -35.763  1.00  0.00    -0.344 OA
ATOM     37  H9  UNL     1      -7.412  17.595 -36.334  1.00  0.00     0.219 HD
ENDBRANCH   8  36
BRANCH   7  38
HETATM   38  C15 UNL     1      -4.475  18.595 -35.641  1.00  0.00     0.195 C 
BRANCH  38  39
HETATM   39  O7  UNL     1      -5.271  18.502 -36.764  1.00  0.00    -0.386 OA
ATOM     40  H7  UNL     1      -4.692  18.371 -37.506  1.00  0.00     0.210 HD
ENDBRANCH  38  39
BRANCH  38  41
HETATM   41  C16 UNL     1      -3.204  17.887 -35.658  1.00  0.00     0.008 A 
HETATM   42  C17 UNL     1      -3.192  16.601 -35.091  1.00  0.00     0.013 A 
HETATM   43  C18 UNL     1      -2.057  15.826 -35.033  1.00  0.00     0.001 A 
HETATM   44  C19 UNL     1      -0.871  16.304 -35.543  1.00  0.00     0.003 A 
HETATM   45  C20 UNL     1      -0.863  17.549 -36.096  1.00  0.00     0.037 A 
HETATM   46  C21 UNL     1      -2.026  18.363 -36.166  1.00  0.00     0.074 A 
BRANCH  46  47
HETATM   47  O8  UNL     1      -1.875  19.583 -36.746  1.00  0.00    -0.360 OA
ATOM     48  H8  UNL     1      -2.057  19.772 -37.658  1.00  0.00     0.217 HD
ENDBRANCH  46  47
ENDBRANCH  38  41
ENDBRANCH   7  38
TORSDOF 14
ENDMDL
