MODEL 1
REMARK VINA RESULT: -8.536847668      0.000      0.000
REMARK  1 active torsions:
REMARK  status: ('A' for Active; 'I' for Inactive)
REMARK    1  A    between atoms: C7_7  and  C8_8 
ROOT
HETATM    1  C8  UNL     1       2.697  20.032  19.340  1.00  0.00     0.168 C 
HETATM    2  C9  UNL     1       2.027  18.656  19.347  1.00  0.00     0.076 C 
HETATM    3  C10 UNL     1       0.718  19.062  18.647  1.00  0.00     0.099 C 
HETATM    4  C11 UNL     1      -0.399  18.434  19.379  1.00  0.00     0.041 C 
HETATM    5  C12 UNL     1      -1.254  17.509  18.551  1.00  0.00     0.003 C 
HETATM    6  C13 UNL     1      -1.611  18.320  17.297  1.00  0.00     0.000 C 
HETATM    7  C14 UNL     1      -0.353  18.327  16.482  1.00  0.00     0.003 C 
HETATM    8  C15 UNL     1       0.864  18.745  17.212  1.00  0.00     0.041 C 
HETATM    9  O1  UNL     1       0.635  20.446  18.797  1.00  0.00    -0.229 OA
HETATM   10  O2  UNL     1       1.577  20.829  19.585  1.00  0.00    -0.234 OA
ENDROOT
BRANCH   1  11
HETATM   11  C7  UNL     1       3.638  20.208  20.491  1.00  0.00     0.023 C 
HETATM   12  C6  UNL     1       3.891  18.884  21.222  1.00  0.00     0.012 C 
HETATM   13  C5  UNL     1       5.388  18.630  21.035  1.00  0.00    -0.013 C 
HETATM   14  C4  UNL     1       6.214  19.633  21.780  1.00  0.00     0.013 C 
HETATM   15  C17 UNL     1       5.539  19.169  19.601  1.00  0.00     0.010 C 
HETATM   16  C2  UNL     1       5.878  20.953  21.071  1.00  0.00    -0.043 C 
HETATM   17  C1  UNL     1       5.155  21.833  22.068  1.00  0.00     0.015 C 
HETATM   18  C3  UNL     1       7.115  21.658  20.611  1.00  0.00     0.015 C 
HETATM   19  C16 UNL     1       4.987  20.568  19.920  1.00  0.00     0.000 C 
ENDBRANCH   1  11
TORSDOF 1
ENDMDL
MODEL 2
REMARK VINA RESULT: -7.845868024      1.616      6.478
REMARK  1 active torsions:
REMARK  status: ('A' for Active; 'I' for Inactive)
REMARK    1  A    between atoms: C7_7  and  C8_8 
ROOT
HETATM    1  C8  UNL     1       2.411  19.038  19.182  1.00  0.00     0.168 C 
HETATM    2  C9  UNL     1       2.773  19.686  20.520  1.00  0.00     0.076 C 
HETATM    3  C10 UNL     1       4.301  19.697  20.335  1.00  0.00     0.099 C 
HETATM    4  C11 UNL     1       4.912  19.242  21.599  1.00  0.00     0.041 C 
HETATM    5  C12 UNL     1       5.848  20.235  22.240  1.00  0.00     0.003 C 
HETATM    6  C13 UNL     1       6.805  20.656  21.115  1.00  0.00     0.000 C 
HETATM    7  C14 UNL     1       5.991  21.571  20.251  1.00  0.00     0.003 C 
HETATM    8  C15 UNL     1       4.678  21.033  19.831  1.00  0.00     0.041 C 
HETATM    9  O1  UNL     1       4.558  18.752  19.343  1.00  0.00    -0.229 OA
HETATM   10  O2  UNL     1       3.465  18.127  19.080  1.00  0.00    -0.234 OA
ENDROOT
BRANCH   1  11
HETATM   11  C7  UNL     1       1.139  18.252  19.261  1.00  0.00     0.023 C 
HETATM   12  C6  UNL     1      -0.082  19.165  19.421  1.00  0.00     0.012 C 
HETATM   13  C5  UNL     1      -0.909  18.914  18.159  1.00  0.00    -0.013 C 
HETATM   14  C4  UNL     1      -1.478  17.529  18.140  1.00  0.00     0.013 C 
HETATM   15  C17 UNL     1       0.245  18.745  17.154  1.00  0.00     0.010 C 
HETATM   16  C2  UNL     1      -0.227  16.642  18.056  1.00  0.00    -0.043 C 
HETATM   17  C1  UNL     1      -0.145  15.849  19.343  1.00  0.00     0.015 C 
HETATM   18  C3  UNL     1      -0.307  15.690  16.904  1.00  0.00     0.015 C 
HETATM   19  C16 UNL     1       0.927  17.599  17.918  1.00  0.00     0.000 C 
ENDBRANCH   1  11
TORSDOF 1
ENDMDL
MODEL 3
REMARK VINA RESULT: -7.755522888      1.016      1.701
REMARK  1 active torsions:
REMARK  status: ('A' for Active; 'I' for Inactive)
REMARK    1  A    between atoms: C7_7  and  C8_8 
ROOT
HETATM    1  C8  UNL     1       2.713  19.745  19.421  1.00  0.00     0.168 C 
HETATM    2  C9  UNL     1       2.422  18.418  18.714  1.00  0.00     0.076 C 
HETATM    3  C10 UNL     1       0.886  18.508  18.737  1.00  0.00     0.099 C 
HETATM    4  C11 UNL     1       0.364  17.188  19.140  1.00  0.00     0.041 C 
HETATM    5  C12 UNL     1      -0.551  16.537  18.133  1.00  0.00     0.003 C 
HETATM    6  C13 UNL     1      -1.584  17.618  17.784  1.00  0.00     0.000 C 
HETATM    7  C14 UNL     1      -0.842  18.574  16.898  1.00  0.00     0.003 C 
HETATM    8  C15 UNL     1       0.452  19.050  17.434  1.00  0.00     0.041 C 
HETATM    9  O1  UNL     1       0.587  19.435  19.734  1.00  0.00    -0.229 OA
HETATM   10  O2  UNL     1       1.674  19.736  20.352  1.00  0.00    -0.234 OA
ENDROOT
BRANCH   1  11
HETATM   11  C7  UNL     1       4.003  19.708  20.181  1.00  0.00     0.023 C 
HETATM   12  C6  UNL     1       5.214  19.801  19.245  1.00  0.00     0.012 C 
HETATM   13  C5  UNL     1       5.904  21.105  19.650  1.00  0.00    -0.013 C 
HETATM   14  C4  UNL     1       6.497  21.011  21.022  1.00  0.00     0.013 C 
HETATM   15  C17 UNL     1       4.652  21.947  19.955  1.00  0.00     0.010 C 
HETATM   16  C2  UNL     1       5.263  20.843  21.921  1.00  0.00    -0.043 C 
HETATM   17  C1  UNL     1       5.339  19.466  22.543  1.00  0.00     0.015 C 
HETATM   18  C3  UNL     1       5.238  21.868  23.012  1.00  0.00     0.015 C 
HETATM   19  C16 UNL     1       4.081  20.973  20.998  1.00  0.00     0.000 C 
ENDBRANCH   1  11
TORSDOF 1
ENDMDL
MODEL 4
REMARK VINA RESULT: -7.591535409      1.224      2.146
REMARK  1 active torsions:
REMARK  status: ('A' for Active; 'I' for Inactive)
REMARK    1  A    between atoms: C7_7  and  C8_8 
ROOT
HETATM    1  C8  UNL     1       2.828  19.210  19.398  1.00  0.00     0.168 C 
HETATM    2  C9  UNL     1       2.368  18.099  18.450  1.00  0.00     0.076 C 
HETATM    3  C10 UNL     1       0.853  18.273  18.652  1.00  0.00     0.099 C 
HETATM    4  C11 UNL     1       0.261  16.930  18.807  1.00  0.00     0.041 C 
HETATM    5  C12 UNL     1      -0.788  16.581  17.782  1.00  0.00     0.003 C 
HETATM    6  C13 UNL     1      -1.756  17.773  17.789  1.00  0.00     0.000 C 
HETATM    7  C14 UNL     1      -1.020  18.860  17.064  1.00  0.00     0.003 C 
HETATM    8  C15 UNL     1       0.351  19.122  17.553  1.00  0.00     0.041 C 
HETATM    9  O1  UNL     1       0.719  18.966  19.855  1.00  0.00    -0.229 OA
HETATM   10  O2  UNL     1       1.878  19.052  20.407  1.00  0.00    -0.234 OA
ENDROOT
BRANCH   1  11
HETATM   11  C7  UNL     1       4.172  18.924  19.992  1.00  0.00     0.023 C 
HETATM   12  C6  UNL     1       5.252  19.855  19.426  1.00  0.00     0.012 C 
HETATM   13  C5  UNL     1       5.738  20.649  20.640  1.00  0.00    -0.013 C 
HETATM   14  C4  UNL     1       6.470  19.775  21.612  1.00  0.00     0.013 C 
HETATM   15  C17 UNL     1       4.394  20.801  21.374  1.00  0.00     0.010 C 
HETATM   16  C2  UNL     1       5.379  18.810  22.099  1.00  0.00    -0.043 C 
HETATM   17  C1  UNL     1       5.755  17.423  21.626  1.00  0.00     0.015 C 
HETATM   18  C3  UNL     1       5.281  18.803  23.593  1.00  0.00     0.015 C 
HETATM   19  C16 UNL     1       4.108  19.293  21.453  1.00  0.00     0.000 C 
ENDBRANCH   1  11
TORSDOF 1
ENDMDL
MODEL 5
REMARK VINA RESULT: -7.527287702      1.120      6.415
REMARK  1 active torsions:
REMARK  status: ('A' for Active; 'I' for Inactive)
REMARK    1  A    between atoms: C7_7  and  C8_8 
ROOT
HETATM    1  C8  UNL     1       2.217  19.046  19.716  1.00  0.00     0.168 C 
HETATM    2  C9  UNL     1       3.715  18.735  19.752  1.00  0.00     0.076 C 
HETATM    3  C10 UNL     1       4.202  20.128  20.188  1.00  0.00     0.099 C 
HETATM    4  C11 UNL     1       5.373  20.476  19.361  1.00  0.00     0.041 C 
HETATM    5  C12 UNL     1       6.638  20.741  20.139  1.00  0.00     0.003 C 
HETATM    6  C13 UNL     1       6.229  21.746  21.225  1.00  0.00     0.000 C 
HETATM    7  C14 UNL     1       5.463  20.931  22.223  1.00  0.00     0.003 C 
HETATM    8  C15 UNL     1       4.380  20.100  21.654  1.00  0.00     0.041 C 
HETATM    9  O1  UNL     1       3.156  20.997  19.878  1.00  0.00    -0.229 OA
HETATM   10  O2  UNL     1       2.268  20.346  19.212  1.00  0.00    -0.234 OA
ENDROOT
BRANCH   1  11
HETATM   11  C7  UNL     1       1.490  18.201  18.716  1.00  0.00     0.023 C 
HETATM   12  C6  UNL     1       1.267  16.775  19.235  1.00  0.00     0.012 C 
HETATM   13  C5  UNL     1      -0.254  16.634  19.311  1.00  0.00    -0.013 C 
HETATM   14  C4  UNL     1      -0.876  16.638  17.949  1.00  0.00     0.013 C 
HETATM   15  C17 UNL     1      -0.598  18.063  19.768  1.00  0.00     0.010 C 
HETATM   16  C2  UNL     1      -0.569  18.052  17.432  1.00  0.00    -0.043 C 
HETATM   17  C1  UNL     1       0.366  17.910  16.251  1.00  0.00     0.015 C 
HETATM   18  C3  UNL     1      -1.813  18.754  16.985  1.00  0.00     0.015 C 
HETATM   19  C16 UNL     1       0.094  18.758  18.585  1.00  0.00     0.000 C 
ENDBRANCH   1  11
TORSDOF 1
ENDMDL
