MODEL 1
REMARK VINA RESULT: -6.140132699      0.000      0.000
REMARK  2 active torsions:
REMARK  status: ('A' for Active; 'I' for Inactive)
REMARK    1  A    between atoms: C2_2  and  C3_3 
REMARK    2  A    between atoms: C7_7  and  C8_8 
ROOT
HETATM    1  C3  UNL     1      50.564  22.552  30.122  1.00  0.00     0.025 C 
HETATM    2  C4  UNL     1      52.038  22.285  30.443  1.00  0.00    -0.001 A 
HETATM    3  C5  UNL     1      52.572  21.451  31.463  1.00  0.00     0.011 A 
HETATM    4  C6  UNL     1      51.326  22.004  31.836  1.00  0.00     0.004 A 
HETATM    5  C7  UNL     1      50.731  23.363  31.424  1.00  0.00     0.087 C 
ENDROOT
BRANCH   5   6
HETATM    6  C8  UNL     1      49.476  23.624  32.151  1.00  0.00     0.236 C 
HETATM    7  N1  UNL     1      48.719  24.795  32.006  1.00  0.00    -0.062 NA
HETATM    8  O1  UNL     1      49.051  22.741  32.958  1.00  0.00    -0.276 OA
ENDBRANCH   5   6
BRANCH   1   9
HETATM    9  C2  UNL     1      50.453  23.364  28.897  1.00  0.00    -0.031 C 
HETATM   10  C1  UNL     1      51.419  23.543  28.012  1.00  0.00     0.007 C 
ENDBRANCH   1   9
TORSDOF 2
ENDMDL
MODEL 2
REMARK VINA RESULT: -6.052254092      1.027      1.027
REMARK  2 active torsions:
REMARK  status: ('A' for Active; 'I' for Inactive)
REMARK    1  A    between atoms: C2_2  and  C3_3 
REMARK    2  A    between atoms: C7_7  and  C8_8 
ROOT
HETATM    1  C3  UNL     1      50.620  22.511  30.100  1.00  0.00     0.025 C 
HETATM    2  C4  UNL     1      52.106  22.278  30.398  1.00  0.00    -0.001 A 
HETATM    3  C5  UNL     1      52.676  21.433  31.389  1.00  0.00     0.011 A 
HETATM    4  C6  UNL     1      51.418  21.940  31.790  1.00  0.00     0.004 A 
HETATM    5  C7  UNL     1      50.779  23.290  31.422  1.00  0.00     0.087 C 
ENDROOT
BRANCH   5   6
HETATM    6  C8  UNL     1      49.525  23.494  32.169  1.00  0.00     0.236 C 
HETATM    7  N1  UNL     1      48.906  22.501  32.941  1.00  0.00    -0.062 NA
HETATM    8  O1  UNL     1      48.969  24.634  32.115  1.00  0.00    -0.276 OA
ENDBRANCH   5   6
BRANCH   1   9
HETATM    9  C2  UNL     1      50.472  23.351  28.899  1.00  0.00    -0.031 C 
HETATM   10  C1  UNL     1      51.415  23.567  27.998  1.00  0.00     0.007 C 
ENDBRANCH   1   9
TORSDOF 2
ENDMDL
MODEL 3
REMARK VINA RESULT: -5.703833623      2.102      3.150
REMARK  2 active torsions:
REMARK  status: ('A' for Active; 'I' for Inactive)
REMARK    1  A    between atoms: C2_2  and  C3_3 
REMARK    2  A    between atoms: C7_7  and  C8_8 
ROOT
HETATM    1  C3  UNL     1      50.487  22.705  29.006  1.00  0.00     0.025 C 
HETATM    2  C4  UNL     1      51.442  23.432  28.052  1.00  0.00    -0.001 A 
HETATM    3  C5  UNL     1      52.581  22.901  27.387  1.00  0.00     0.011 A 
HETATM    4  C6  UNL     1      52.352  22.261  28.626  1.00  0.00     0.004 A 
HETATM    5  C7  UNL     1      51.734  22.860  29.902  1.00  0.00     0.087 C 
ENDROOT
BRANCH   5   6
HETATM    6  C8  UNL     1      51.811  21.901  31.019  1.00  0.00     0.236 C 
HETATM    7  N1  UNL     1      51.701  22.263  32.368  1.00  0.00    -0.062 NA
HETATM    8  O1  UNL     1      51.988  20.674  30.748  1.00  0.00    -0.276 OA
ENDBRANCH   5   6
BRANCH   1   9
HETATM    9  C2  UNL     1      49.359  23.585  29.357  1.00  0.00    -0.031 C 
HETATM   10  C1  UNL     1      49.038  23.961  30.584  1.00  0.00     0.007 C 
ENDBRANCH   1   9
TORSDOF 2
ENDMDL
MODEL 4
REMARK VINA RESULT: -5.620195736      2.196      3.042
REMARK  2 active torsions:
REMARK  status: ('A' for Active; 'I' for Inactive)
REMARK    1  A    between atoms: C2_2  and  C3_3 
REMARK    2  A    between atoms: C7_7  and  C8_8 
ROOT
HETATM    1  C3  UNL     1      51.099  23.263  29.192  1.00  0.00     0.025 C 
HETATM    2  C4  UNL     1      49.569  23.342  29.130  1.00  0.00    -0.001 A 
HETATM    3  C5  UNL     1      48.692  24.007  30.030  1.00  0.00     0.011 A 
HETATM    4  C6  UNL     1      49.862  23.549  30.678  1.00  0.00     0.004 A 
HETATM    5  C7  UNL     1      50.709  22.309  30.341  1.00  0.00     0.087 C 
ENDROOT
BRANCH   5   6
HETATM    6  C8  UNL     1      51.760  22.105  31.354  1.00  0.00     0.236 C 
HETATM    7  N1  UNL     1      52.944  21.393  31.117  1.00  0.00    -0.062 NA
HETATM    8  O1  UNL     1      51.588  22.599  32.510  1.00  0.00    -0.276 OA
ENDBRANCH   5   6
BRANCH   1   9
HETATM    9  C2  UNL     1      51.619  22.598  27.985  1.00  0.00    -0.031 C 
HETATM   10  C1  UNL     1      52.654  23.011  27.274  1.00  0.00     0.007 C 
ENDBRANCH   1   9
TORSDOF 2
ENDMDL
MODEL 5
REMARK VINA RESULT: -5.585859721      2.260      3.287
REMARK  2 active torsions:
REMARK  status: ('A' for Active; 'I' for Inactive)
REMARK    1  A    between atoms: C2_2  and  C3_3 
REMARK    2  A    between atoms: C7_7  and  C8_8 
ROOT
HETATM    1  C3  UNL     1      50.558  22.692  28.993  1.00  0.00     0.025 C 
HETATM    2  C4  UNL     1      51.508  23.423  28.038  1.00  0.00    -0.001 A 
HETATM    3  C5  UNL     1      52.626  22.889  27.340  1.00  0.00     0.011 A 
HETATM    4  C6  UNL     1      52.408  22.225  28.569  1.00  0.00     0.004 A 
HETATM    5  C7  UNL     1      51.823  22.806  29.869  1.00  0.00     0.087 C 
ENDROOT
BRANCH   5   6
HETATM    6  C8  UNL     1      51.904  21.820  30.962  1.00  0.00     0.236 C 
HETATM    7  N1  UNL     1      52.062  20.442  30.761  1.00  0.00    -0.062 NA
HETATM    8  O1  UNL     1      51.826  22.238  32.158  1.00  0.00    -0.276 OA
ENDBRANCH   5   6
BRANCH   1   9
HETATM    9  C2  UNL     1      49.451  23.582  29.384  1.00  0.00    -0.031 C 
HETATM   10  C1  UNL     1      49.084  23.841  30.627  1.00  0.00     0.007 C 
ENDBRANCH   1   9
TORSDOF 2
ENDMDL
