MODEL 1
REMARK VINA RESULT: -6.707128852      0.000      0.000
REMARK  8 active torsions:
REMARK  status: ('A' for Active; 'I' for Inactive)
REMARK    1  A    between atoms: S1_2  and  C2_3 
REMARK    2  A    between atoms: N3_9  and  C4_11 
REMARK    3  A    between atoms: C5_13  and  C6_14 
REMARK    4  A    between atoms: C9_22  and  C10_23 
REMARK    5  A    between atoms: C10_23  and  N8_24 
REMARK    6  A    between atoms: N8_24  and  N9_26 
REMARK       I    between atoms: N9_26  and  C11_28 
REMARK       I    between atoms: C11_28  and  N10_30 
REMARK    7  A    between atoms: N10_30  and  N11_32 
REMARK    8  A    between atoms: N11_32  and  O3_34 
ROOT
HETATM    1  C6  UNL     1     113.677  55.152  13.853  1.00  0.00     0.122 C 
HETATM    2  N4  UNL     1     114.115  55.910  12.953  1.00  0.00    -0.304 N 
ATOM      3  H4  UNL     1     114.233  55.481  12.035  1.00  0.00     0.177 HD
HETATM    4  C7  UNL     1     114.456  57.239  13.034  1.00  0.00     0.181 C 
HETATM    5  N5  UNL     1     114.746  58.345  13.077  1.00  0.00    -0.172 NA
ENDROOT
BRANCH   1   6
HETATM    6  C5  UNL     1     113.451  55.650  15.241  1.00  0.00     0.271 C 
HETATM    7  O1  UNL     1     112.185  56.123  15.450  1.00  0.00    -0.336 OA
HETATM    8  C4  UNL     1     111.280  55.162  15.790  1.00  0.00     0.271 C 
HETATM    9  C12 UNL     1     111.726  54.379  16.980  1.00  0.00     0.325 C 
HETATM   10  N7  UNL     1     113.091  54.770  17.364  1.00  0.00    -0.196 NA
HETATM   11  N12 UNL     1     112.023  52.981  16.582  1.00  0.00    -0.046 N 
HETATM   12  N6  UNL     1     113.838  54.689  16.215  1.00  0.00    -0.125 NA
HETATM   13  C8  UNL     1     113.437  53.667  18.242  1.00  0.00     0.147 C 
HETATM   14  C9  UNL     1     112.492  52.524  17.866  1.00  0.00     0.221 C 
ATOM     15 2H12 UNL     1     112.649  52.849  15.787  1.00  0.00     0.279 HD
ATOM     16 1H12 UNL     1     111.265  52.451  16.151  1.00  0.00     0.279 HD
BRANCH   8  17
HETATM   17  N3  UNL     1     110.897  54.254  14.764  1.00  0.00    -0.340 N 
HETATM   18  C3  UNL     1     110.001  54.469  13.874  1.00  0.00     0.163 A 
HETATM   19  N2  UNL     1     109.548  53.741  12.877  1.00  0.00    -0.278 N 
HETATM   20  S2  UNL     1     109.057  55.892  13.724  1.00  0.00    -0.027 SA
HETATM   21  N1  UNL     1     108.627  54.209  12.127  1.00  0.00    -0.286 N 
ATOM     22  H2  UNL     1     109.929  52.811  12.705  1.00  0.00     0.189 HD
HETATM   23  C2  UNL     1     108.135  55.414  12.349  1.00  0.00     0.129 A 
ATOM     24  H1  UNL     1     108.270  53.649  11.353  1.00  0.00     0.188 HD
ATOM     25  H3  UNL     1     111.377  53.355  14.734  1.00  0.00     0.164 HD
BRANCH  23  26
HETATM   26  S1  UNL     1     106.854  56.315  11.447  1.00  0.00    -0.108 SA
HETATM   27  C1  UNL     1     106.635  57.872  12.394  1.00  0.00     0.097 C 
ENDBRANCH  23  26
ENDBRANCH   8  17
BRANCH  14  28
HETATM   28  C10 UNL     1     113.205  51.204  17.907  1.00  0.00     0.173 C 
BRANCH  28  29
HETATM   29  N8  UNL     1     112.577  50.340  16.949  1.00  0.00    -0.330 N 
ATOM     30  H8  UNL     1     112.753  50.452  15.950  1.00  0.00     0.180 HD
BRANCH  29  31
HETATM   31  N9  UNL     1     111.744  49.374  17.402  1.00  0.00    -0.255 N 
HETATM   32  C11 UNL     1     110.347  49.509  17.287  1.00  0.00     0.354 C 
HETATM   33  O2  UNL     1     109.845  50.536  16.743  1.00  0.00    -0.244 OA
HETATM   34  N10 UNL     1     109.497  48.500  17.783  1.00  0.00    -0.231 N 
ATOM     35  H10 UNL     1     109.908  47.676  18.220  1.00  0.00     0.193 HD
ATOM     36  H9  UNL     1     112.134  48.536  17.833  1.00  0.00     0.191 HD
BRANCH  34  37
HETATM   37  N11 UNL     1     108.113  48.599  17.692  1.00  0.00    -0.206 N 
ATOM     38  H11 UNL     1     107.532  48.880  18.481  1.00  0.00     0.215 HD
BRANCH  37  39
HETATM   39  O3  UNL     1     107.601  48.300  16.499  1.00  0.00    -0.274 OA
ATOM     40  H3  UNL     1     107.988  48.763  15.766  1.00  0.00     0.246 HD
ENDBRANCH  37  39
ENDBRANCH  34  37
ENDBRANCH  29  31
ENDBRANCH  28  29
ENDBRANCH  14  28
ENDBRANCH   1   6
TORSDOF 8
ENDMDL
MODEL 2
REMARK VINA RESULT: -6.151157735      3.791      5.918
REMARK  8 active torsions:
REMARK  status: ('A' for Active; 'I' for Inactive)
REMARK    1  A    between atoms: S1_2  and  C2_3 
REMARK    2  A    between atoms: N3_9  and  C4_11 
REMARK    3  A    between atoms: C5_13  and  C6_14 
REMARK    4  A    between atoms: C9_22  and  C10_23 
REMARK    5  A    between atoms: C10_23  and  N8_24 
REMARK    6  A    between atoms: N8_24  and  N9_26 
REMARK       I    between atoms: N9_26  and  C11_28 
REMARK       I    between atoms: C11_28  and  N10_30 
REMARK    7  A    between atoms: N10_30  and  N11_32 
REMARK    8  A    between atoms: N11_32  and  O3_34 
ROOT
HETATM    1  C6  UNL     1     113.199  53.263  14.614  1.00  0.00     0.122 C 
HETATM    2  N4  UNL     1     113.393  53.674  13.444  1.00  0.00    -0.304 N 
ATOM      3  H4  UNL     1     112.902  54.533  13.193  1.00  0.00     0.177 HD
HETATM    4  C7  UNL     1     114.176  53.128  12.455  1.00  0.00     0.181 C 
HETATM    5  N5  UNL     1     114.822  52.693  11.617  1.00  0.00    -0.172 NA
ENDROOT
BRANCH   1   6
HETATM    6  C5  UNL     1     113.859  52.022  15.117  1.00  0.00     0.271 C 
HETATM    7  O1  UNL     1     114.751  52.250  16.127  1.00  0.00    -0.336 OA
HETATM    8  C4  UNL     1     114.188  52.294  17.368  1.00  0.00     0.271 C 
HETATM    9  C12 UNL     1     113.402  51.060  17.662  1.00  0.00     0.325 C 
HETATM   10  N7  UNL     1     113.335  50.202  16.468  1.00  0.00    -0.196 NA
HETATM   11  N12 UNL     1     111.958  51.390  17.752  1.00  0.00    -0.046 N 
HETATM   12  N6  UNL     1     112.908  51.018  15.449  1.00  0.00    -0.125 NA
HETATM   13  C8  UNL     1     112.258  49.310  16.853  1.00  0.00     0.147 C 
HETATM   14  C9  UNL     1     111.478  50.044  17.946  1.00  0.00     0.221 C 
ATOM     15 2H12 UNL     1     111.555  51.919  16.979  1.00  0.00     0.279 HD
ATOM     16 1H12 UNL     1     111.685  52.084  18.449  1.00  0.00     0.279 HD
BRANCH   8  17
HETATM   17  N3  UNL     1     113.383  53.429  17.664  1.00  0.00    -0.340 N 
HETATM   18  C3  UNL     1     113.816  54.575  18.038  1.00  0.00     0.163 A 
HETATM   19  N2  UNL     1     113.207  55.700  18.338  1.00  0.00    -0.278 N 
HETATM   20  S2  UNL     1     115.461  54.997  18.273  1.00  0.00    -0.027 SA
HETATM   21  N1  UNL     1     113.898  56.714  18.690  1.00  0.00    -0.286 N 
ATOM     22  H2  UNL     1     112.190  55.762  18.291  1.00  0.00     0.189 HD
HETATM   23  C2  UNL     1     115.215  56.634  18.749  1.00  0.00     0.129 A 
ATOM     24  H1  UNL     1     113.431  57.589  18.926  1.00  0.00     0.188 HD
ATOM     25  H3  UNL     1     112.373  53.321  17.571  1.00  0.00     0.164 HD
BRANCH  23  26
HETATM   26  S1  UNL     1     116.423  57.902  19.197  1.00  0.00    -0.108 SA
HETATM   27  C1  UNL     1     115.655  58.790  20.608  1.00  0.00     0.097 C 
ENDBRANCH  23  26
ENDBRANCH   8  17
BRANCH  14  28
HETATM   28  C10 UNL     1     110.002  49.815  17.797  1.00  0.00     0.173 C 
BRANCH  28  29
HETATM   29  N8  UNL     1     109.658  50.067  16.427  1.00  0.00    -0.330 N 
ATOM     30  H8  UNL     1     109.685  49.317  15.736  1.00  0.00     0.180 HD
BRANCH  29  31
HETATM   31  N9  UNL     1     109.297  51.323  16.074  1.00  0.00    -0.255 N 
HETATM   32  C11 UNL     1     109.417  51.765  14.743  1.00  0.00     0.354 C 
HETATM   33  O2  UNL     1     109.854  50.985  13.846  1.00  0.00    -0.244 OA
HETATM   34  N10 UNL     1     109.054  53.083  14.400  1.00  0.00    -0.231 N 
ATOM     35  H10 UNL     1     108.703  53.705  15.128  1.00  0.00     0.193 HD
ATOM     36  H9  UNL     1     108.933  51.959  16.784  1.00  0.00     0.191 HD
BRANCH  34  37
HETATM   37  N11 UNL     1     109.161  53.557  13.098  1.00  0.00    -0.206 N 
ATOM     38  H11 UNL     1     108.345  53.781  12.529  1.00  0.00     0.215 HD
BRANCH  37  39
HETATM   39  O3  UNL     1     110.407  53.697  12.648  1.00  0.00    -0.274 OA
ATOM     40  H3  UNL     1     110.742  54.586  12.658  1.00  0.00     0.246 HD
ENDBRANCH  37  39
ENDBRANCH  34  37
ENDBRANCH  29  31
ENDBRANCH  28  29
ENDBRANCH  14  28
ENDBRANCH   1   6
TORSDOF 8
ENDMDL
MODEL 3
REMARK VINA RESULT: -6.007222319      4.669      8.982
REMARK  8 active torsions:
REMARK  status: ('A' for Active; 'I' for Inactive)
REMARK    1  A    between atoms: S1_2  and  C2_3 
REMARK    2  A    between atoms: N3_9  and  C4_11 
REMARK    3  A    between atoms: C5_13  and  C6_14 
REMARK    4  A    between atoms: C9_22  and  C10_23 
REMARK    5  A    between atoms: C10_23  and  N8_24 
REMARK    6  A    between atoms: N8_24  and  N9_26 
REMARK       I    between atoms: N9_26  and  C11_28 
REMARK       I    between atoms: C11_28  and  N10_30 
REMARK    7  A    between atoms: N10_30  and  N11_32 
REMARK    8  A    between atoms: N11_32  and  O3_34 
ROOT
HETATM    1  C6  UNL     1     111.030  48.472  18.035  1.00  0.00     0.122 C 
HETATM    2  N4  UNL     1     110.705  47.778  19.029  1.00  0.00    -0.304 N 
ATOM      3  H4  UNL     1     110.322  46.856  18.815  1.00  0.00     0.177 HD
HETATM    4  C7  UNL     1     110.792  48.088  20.365  1.00  0.00     0.181 C 
HETATM    5  N5  UNL     1     110.857  48.322  21.483  1.00  0.00    -0.172 NA
ENDROOT
BRANCH   1   6
HETATM    6  C5  UNL     1     111.608  49.838  18.202  1.00  0.00     0.271 C 
HETATM    7  O1  UNL     1     112.962  49.884  18.016  1.00  0.00    -0.336 OA
HETATM    8  C4  UNL     1     113.340  50.028  16.714  1.00  0.00     0.271 C 
HETATM    9  C12 UNL     1     112.705  51.223  16.084  1.00  0.00     0.325 C 
HETATM   10  N7  UNL     1     111.732  51.829  17.006  1.00  0.00    -0.196 NA
HETATM   11  N12 UNL     1     111.748  50.792  15.036  1.00  0.00    -0.046 N 
HETATM   12  N6  UNL     1     110.918  50.800  17.414  1.00  0.00    -0.125 NA
HETATM   13  C8  UNL     1     111.004  52.682  16.085  1.00  0.00     0.147 C 
HETATM   14  C9  UNL     1     111.256  52.103  14.691  1.00  0.00     0.221 C 
ATOM     15 2H12 UNL     1     111.054  50.093  15.301  1.00  0.00     0.279 HD
ATOM     16 1H12 UNL     1     112.119  50.223  14.275  1.00  0.00     0.279 HD
BRANCH   8  17
HETATM   17  N3  UNL     1     113.143  48.904  15.863  1.00  0.00    -0.340 N 
HETATM   18  C3  UNL     1     113.964  47.935  15.706  1.00  0.00     0.163 A 
HETATM   19  N2  UNL     1     113.920  46.845  14.972  1.00  0.00    -0.278 N 
HETATM   20  S2  UNL     1     115.487  47.775  16.476  1.00  0.00    -0.027 SA
HETATM   21  N1  UNL     1     114.900  46.027  15.003  1.00  0.00    -0.286 N 
ATOM     22  H2  UNL     1     113.110  46.654  14.383  1.00  0.00     0.189 HD
HETATM   23  C2  UNL     1     115.949  46.273  15.767  1.00  0.00     0.129 A 
ATOM     24  H1  UNL     1     114.873  45.181  14.435  1.00  0.00     0.188 HD
ATOM     25  H3  UNL     1     112.272  48.868  15.334  1.00  0.00     0.164 HD
BRANCH  23  26
HETATM   26  S1  UNL     1     117.449  45.294  16.010  1.00  0.00    -0.108 SA
HETATM   27  C1  UNL     1     118.726  46.522  16.488  1.00  0.00     0.097 C 
ENDBRANCH  23  26
ENDBRANCH   8  17
BRANCH  14  28
HETATM   28  C10 UNL     1     110.016  52.172  13.849  1.00  0.00     0.173 C 
BRANCH  28  29
HETATM   29  N8  UNL     1     109.971  53.474  13.246  1.00  0.00    -0.330 N 
ATOM     30  H8  UNL     1     110.708  54.156  13.422  1.00  0.00     0.180 HD
BRANCH  29  31
HETATM   31  N9  UNL     1     108.928  53.773  12.437  1.00  0.00    -0.255 N 
HETATM   32  C11 UNL     1     108.367  55.064  12.425  1.00  0.00     0.354 C 
HETATM   33  O2  UNL     1     108.841  55.975  13.166  1.00  0.00    -0.244 OA
HETATM   34  N10 UNL     1     107.269  55.350  11.590  1.00  0.00    -0.231 N 
ATOM     35  H10 UNL     1     106.892  54.611  10.996  1.00  0.00     0.193 HD
ATOM     36  H9  UNL     1     108.542  53.051  11.827  1.00  0.00     0.191 HD
BRANCH  34  37
HETATM   37  N11 UNL     1     106.685  56.610  11.553  1.00  0.00    -0.206 N 
ATOM     38  H11 UNL     1     106.853  57.312  12.274  1.00  0.00     0.215 HD
BRANCH  37  39
HETATM   39  O3  UNL     1     105.891  56.837  10.508  1.00  0.00    -0.274 OA
ATOM     40  H3  UNL     1     105.142  57.395  10.683  1.00  0.00     0.246 HD
ENDBRANCH  37  39
ENDBRANCH  34  37
ENDBRANCH  29  31
ENDBRANCH  28  29
ENDBRANCH  14  28
ENDBRANCH   1   6
TORSDOF 8
ENDMDL
MODEL 4
REMARK VINA RESULT: -6.005770823      2.914      4.736
REMARK  8 active torsions:
REMARK  status: ('A' for Active; 'I' for Inactive)
REMARK    1  A    between atoms: S1_2  and  C2_3 
REMARK    2  A    between atoms: N3_9  and  C4_11 
REMARK    3  A    between atoms: C5_13  and  C6_14 
REMARK    4  A    between atoms: C9_22  and  C10_23 
REMARK    5  A    between atoms: C10_23  and  N8_24 
REMARK    6  A    between atoms: N8_24  and  N9_26 
REMARK       I    between atoms: N9_26  and  C11_28 
REMARK       I    between atoms: C11_28  and  N10_30 
REMARK    7  A    between atoms: N10_30  and  N11_32 
REMARK    8  A    between atoms: N11_32  and  O3_34 
ROOT
HETATM    1  C6  UNL     1     110.311  53.473  15.490  1.00  0.00     0.122 C 
HETATM    2  N4  UNL     1     109.404  54.127  14.920  1.00  0.00    -0.304 N 
ATOM      3  H4  UNL     1     108.693  54.522  15.536  1.00  0.00     0.177 HD
HETATM    4  C7  UNL     1     109.237  54.386  13.581  1.00  0.00     0.181 C 
HETATM    5  N5  UNL     1     109.078  54.616  12.471  1.00  0.00    -0.172 NA
ENDROOT
BRANCH   1   6
HETATM    6  C5  UNL     1     111.418  52.845  14.711  1.00  0.00     0.271 C 
HETATM    7  O1  UNL     1     112.480  53.681  14.502  1.00  0.00    -0.336 OA
HETATM    8  C4  UNL     1     113.385  53.696  15.522  1.00  0.00     0.271 C 
HETATM    9  C12 UNL     1     113.881  52.325  15.840  1.00  0.00     0.325 C 
HETATM   10  N7  UNL     1     113.141  51.322  15.059  1.00  0.00    -0.196 NA
HETATM   11  N12 UNL     1     113.410  51.918  17.187  1.00  0.00    -0.046 N 
HETATM   12  N6  UNL     1     111.811  51.597  15.267  1.00  0.00    -0.125 NA
HETATM   13  C8  UNL     1     113.501  50.117  15.784  1.00  0.00     0.147 C 
HETATM   14  C9  UNL     1     113.949  50.581  17.171  1.00  0.00     0.221 C 
ATOM     15 2H12 UNL     1     112.412  52.012  17.376  1.00  0.00     0.279 HD
ATOM     16 1H12 UNL     1     113.676  52.515  17.971  1.00  0.00     0.279 HD
BRANCH   8  17
HETATM   17  N3  UNL     1     112.976  54.326  16.730  1.00  0.00    -0.340 N 
HETATM   18  C3  UNL     1     113.234  55.535  17.066  1.00  0.00     0.163 A 
HETATM   19  N2  UNL     1     112.925  56.246  18.128  1.00  0.00    -0.278 N 
HETATM   20  S2  UNL     1     114.135  56.662  16.142  1.00  0.00    -0.027 SA
HETATM   21  N1  UNL     1     113.321  57.456  18.210  1.00  0.00    -0.286 N 
ATOM     22  H2  UNL     1     112.375  55.833  18.881  1.00  0.00     0.189 HD
HETATM   23  C2  UNL     1     114.033  57.992  17.234  1.00  0.00     0.129 A 
ATOM     24  H1  UNL     1     113.087  58.013  19.031  1.00  0.00     0.188 HD
ATOM     25  H3  UNL     1     112.429  53.767  17.385  1.00  0.00     0.164 HD
BRANCH  23  26
HETATM   26  S1  UNL     1     114.703  59.664  17.084  1.00  0.00    -0.108 SA
HETATM   27  C1  UNL     1     113.940  60.328  15.553  1.00  0.00     0.097 C 
ENDBRANCH  23  26
ENDBRANCH   8  17
BRANCH  14  28
HETATM   28  C10 UNL     1     113.472  49.635  18.233  1.00  0.00     0.173 C 
BRANCH  28  29
HETATM   29  N8  UNL     1     112.120  49.991  18.557  1.00  0.00    -0.330 N 
ATOM     30  H8  UNL     1     111.870  50.958  18.763  1.00  0.00     0.180 HD
BRANCH  29  31
HETATM   31  N9  UNL     1     111.186  49.012  18.584  1.00  0.00    -0.255 N 
HETATM   32  C11 UNL     1     109.919  49.204  18.001  1.00  0.00     0.354 C 
HETATM   33  O2  UNL     1     109.635  50.297  17.428  1.00  0.00    -0.244 OA
HETATM   34  N10 UNL     1     108.953  48.179  18.056  1.00  0.00    -0.231 N 
ATOM     35  H10 UNL     1     109.187  47.301  18.519  1.00  0.00     0.193 HD
ATOM     36  H9  UNL     1     111.403  48.122  19.032  1.00  0.00     0.191 HD
BRANCH  34  37
HETATM   37  N11 UNL     1     107.690  48.332  17.496  1.00  0.00    -0.206 N 
ATOM     38  H11 UNL     1     106.845  48.395  18.064  1.00  0.00     0.215 HD
BRANCH  37  39
HETATM   39  O3  UNL     1     107.663  48.391  16.166  1.00  0.00    -0.274 OA
ATOM     40  H3  UNL     1     108.493  48.217  15.737  1.00  0.00     0.246 HD
ENDBRANCH  37  39
ENDBRANCH  34  37
ENDBRANCH  29  31
ENDBRANCH  28  29
ENDBRANCH  14  28
ENDBRANCH   1   6
TORSDOF 8
ENDMDL
MODEL 5
REMARK VINA RESULT: -5.974154737      3.211      4.966
REMARK  8 active torsions:
REMARK  status: ('A' for Active; 'I' for Inactive)
REMARK    1  A    between atoms: S1_2  and  C2_3 
REMARK    2  A    between atoms: N3_9  and  C4_11 
REMARK    3  A    between atoms: C5_13  and  C6_14 
REMARK    4  A    between atoms: C9_22  and  C10_23 
REMARK    5  A    between atoms: C10_23  and  N8_24 
REMARK    6  A    between atoms: N8_24  and  N9_26 
REMARK       I    between atoms: N9_26  and  C11_28 
REMARK       I    between atoms: C11_28  and  N10_30 
REMARK    7  A    between atoms: N10_30  and  N11_32 
REMARK    8  A    between atoms: N11_32  and  O3_34 
ROOT
HETATM    1  C6  UNL     1     110.177  55.608  15.007  1.00  0.00     0.122 C 
HETATM    2  N4  UNL     1     109.747  56.757  14.737  1.00  0.00    -0.304 N 
ATOM      3  H4  UNL     1     110.176  57.521  15.260  1.00  0.00     0.177 HD
HETATM    4  C7  UNL     1     108.779  57.126  13.834  1.00  0.00     0.181 C 
HETATM    5  N5  UNL     1     107.977  57.458  13.088  1.00  0.00    -0.172 NA
ENDROOT
BRANCH   1   6
HETATM    6  C5  UNL     1     109.642  54.400  14.313  1.00  0.00     0.271 C 
HETATM    7  O1  UNL     1     110.342  54.064  13.186  1.00  0.00    -0.336 OA
HETATM    8  C4  UNL     1     111.434  53.283  13.421  1.00  0.00     0.271 C 
HETATM    9  C12 UNL     1     111.076  52.047  14.177  1.00  0.00     0.325 C 
HETATM   10  N7  UNL     1     109.663  52.090  14.585  1.00  0.00    -0.196 NA
HETATM   11  N12 UNL     1     111.678  52.091  15.533  1.00  0.00    -0.046 N 
HETATM   12  N6  UNL     1     109.493  53.304  15.206  1.00  0.00    -0.125 NA
HETATM   13  C8  UNL     1     109.652  51.035  15.581  1.00  0.00     0.147 C 
HETATM   14  C9  UNL     1     111.106  50.863  16.024  1.00  0.00     0.221 C 
ATOM     15 2H12 UNL     1     111.511  52.933  16.085  1.00  0.00     0.279 HD
ATOM     16 1H12 UNL     1     112.692  52.184  15.586  1.00  0.00     0.279 HD
BRANCH   8  17
HETATM   17  N3  UNL     1     112.540  53.907  14.064  1.00  0.00    -0.340 N 
HETATM   18  C3  UNL     1     113.414  54.648  13.492  1.00  0.00     0.163 A 
HETATM   19  N2  UNL     1     114.470  55.286  13.946  1.00  0.00    -0.278 N 
HETATM   20  S2  UNL     1     113.454  55.049  11.826  1.00  0.00    -0.027 SA
HETATM   21  N1  UNL     1     115.186  55.968  13.139  1.00  0.00    -0.286 N 
ATOM     22  H2  UNL     1     114.715  55.236  14.935  1.00  0.00     0.189 HD
HETATM   23  C2  UNL     1     114.867  56.034  11.859  1.00  0.00     0.129 A 
ATOM     24  H1  UNL     1     116.007  56.464  13.484  1.00  0.00     0.188 HD
ATOM     25  H3  UNL     1     112.645  53.750  15.066  1.00  0.00     0.164 HD
BRANCH  23  26
HETATM   26  S1  UNL     1     115.686  56.925  10.516  1.00  0.00    -0.108 SA
HETATM   27  C1  UNL     1     114.330  57.354   9.356  1.00  0.00     0.097 C 
ENDBRANCH  23  26
ENDBRANCH   8  17
BRANCH  14  28
HETATM   28  C10 UNL     1     111.190  50.609  17.501  1.00  0.00     0.173 C 
BRANCH  28  29
HETATM   29  N8  UNL     1     110.866  49.229  17.724  1.00  0.00    -0.330 N 
ATOM     30  H8  UNL     1     110.882  48.558  16.956  1.00  0.00     0.180 HD
BRANCH  29  31
HETATM   31  N9  UNL     1     110.539  48.839  18.979  1.00  0.00    -0.255 N 
HETATM   32  C11 UNL     1     111.521  48.368  19.870  1.00  0.00     0.354 C 
HETATM   33  O2  UNL     1     112.735  48.313  19.516  1.00  0.00    -0.244 OA
HETATM   34  N10 UNL     1     111.157  47.950  21.166  1.00  0.00    -0.231 N 
ATOM     35  H10 UNL     1     110.177  47.996  21.445  1.00  0.00     0.193 HD
ATOM     36  H9  UNL     1     109.566  48.888  19.282  1.00  0.00     0.191 HD
BRANCH  34  37
HETATM   37  N11 UNL     1     112.096  47.475  22.073  1.00  0.00    -0.206 N 
ATOM     38  H11 UNL     1     112.236  47.902  22.989  1.00  0.00     0.215 HD
BRANCH  37  39
HETATM   39  O3  UNL     1     112.800  46.422  21.661  1.00  0.00    -0.274 OA
ATOM     40  H3  UNL     1     113.415  46.597  20.959  1.00  0.00     0.246 HD
ENDBRANCH  37  39
ENDBRANCH  34  37
ENDBRANCH  29  31
ENDBRANCH  28  29
ENDBRANCH  14  28
ENDBRANCH   1   6
TORSDOF 8
ENDMDL
