MODEL 1
REMARK VINA RESULT: -7.767896250      0.000      0.000
REMARK  5 active torsions:
REMARK  status: ('A' for Active; 'I' for Inactive)
REMARK    1  A    between atoms: O1_1  and  C1_3 
REMARK    2  A    between atoms: C5_7  and  N1_8 
REMARK    3  A    between atoms: C7_13  and  N3_14 
REMARK    4  A    between atoms: C12_19  and  C13_20 
REMARK    5  A    between atoms: C16_32  and  O2_33 
ROOT
HETATM    1  N1  UNL     1      -3.741   2.472  13.342  1.00  0.00    -0.216 N 
ATOM      2  H1  UNL     1      -3.471   3.353  13.782  1.00  0.00     0.178 HD
HETATM    3  C6  UNL     1      -3.025   2.223  12.353  1.00  0.00     0.729 A 
HETATM    4  N2  UNL     1      -2.063   3.170  12.090  1.00  0.00    -0.020 N 
ATOM      5  H2  UNL     1      -2.010   3.981  12.706  1.00  0.00     0.203 HD
HETATM    6  C7  UNL     1      -1.201   3.095  11.087  1.00  0.00     0.710 A 
HETATM    7  N4  UNL     1      -1.300   1.998  10.285  1.00  0.00    -0.019 N 
ATOM      8  H4  UNL     1      -0.664   1.884   9.497  1.00  0.00     0.203 HD
HETATM    9  C14 UNL     1      -2.255   1.049  10.538  1.00  0.00     0.734 A 
HETATM   10  N5  UNL     1      -2.533  -0.099   9.881  1.00  0.00    -0.184 N 
ATOM     11  H5  UNL     1      -2.051  -0.455   9.056  1.00  0.00     0.185 HD
HETATM   12  C15 UNL     1      -3.559  -0.683  10.512  1.00  0.00     0.216 A 
HETATM   13  N6  UNL     1      -3.920   0.082  11.545  1.00  0.00    -0.260 N 
ATOM     14  H6  UNL     1      -4.674  -0.113  12.203  1.00  0.00     0.189 HD
HETATM   15  N7  UNL     1      -3.117   1.145  11.558  1.00  0.00     0.092 N 
ENDROOT
BRANCH   1  16
HETATM   16  C5  UNL     1      -4.820   1.871  14.020  1.00  0.00     0.130 C 
HETATM   17  C4  UNL     1      -5.661   2.913  14.692  1.00  0.00     0.028 C 
HETATM   18  C3  UNL     1      -6.360   2.553  15.935  1.00  0.00     0.005 C 
HETATM   19  C2  UNL     1      -6.156   1.124  16.391  1.00  0.00     0.034 C 
HETATM   20  C1  UNL     1      -4.631   0.949  16.366  1.00  0.00     0.148 C 
HETATM   21  C16 UNL     1      -4.287   0.803  14.918  1.00  0.00     0.170 C 
BRANCH  20  22
HETATM   22  O1  UNL     1      -4.084   2.049  16.978  1.00  0.00    -0.393 OA
ATOM     23  H1  UNL     1      -3.141   1.982  16.889  1.00  0.00     0.210 HD
ENDBRANCH  20  22
BRANCH  21  24
HETATM   24  O2  UNL     1      -4.790  -0.467  14.540  1.00  0.00    -0.391 OA
ATOM     25  H2  UNL     1      -4.211  -0.769  13.850  1.00  0.00     0.210 HD
ENDBRANCH  21  24
ENDBRANCH   1  16
BRANCH   6  26
HETATM   26  N3  UNL     1      -0.228   4.060  10.773  1.00  0.00    -0.207 N 
HETATM   27  C8  UNL     1      -0.516   5.456  10.921  1.00  0.00     0.142 C 
HETATM   28  C9  UNL     1       0.528   6.094  11.771  1.00  0.00     0.020 C 
HETATM   29  C10 UNL     1       1.932   5.660  11.558  1.00  0.00     0.004 C 
HETATM   30  C11 UNL     1       2.153   4.233  11.211  1.00  0.00     0.031 C 
HETATM   31  C12 UNL     1       1.069   3.637  10.327  1.00  0.00     0.167 C 
BRANCH  31  32
HETATM   32  C13 UNL     1       1.383   4.027   8.896  1.00  0.00     0.376 C 
HETATM   33  F1  UNL     1       2.690   3.785   8.552  1.00  0.00    -0.212 F 
HETATM   34  F2  UNL     1       0.468   3.512   7.996  1.00  0.00    -0.212 F 
ENDBRANCH  31  32
ENDBRANCH   6  26
TORSDOF 5
ENDMDL
MODEL 2
REMARK VINA RESULT: -7.612375660      4.354      8.174
REMARK  5 active torsions:
REMARK  status: ('A' for Active; 'I' for Inactive)
REMARK    1  A    between atoms: O1_1  and  C1_3 
REMARK    2  A    between atoms: C5_7  and  N1_8 
REMARK    3  A    between atoms: C7_13  and  N3_14 
REMARK    4  A    between atoms: C12_19  and  C13_20 
REMARK    5  A    between atoms: C16_32  and  O2_33 
ROOT
HETATM    1  N1  UNL     1      -0.244   4.517  11.957  1.00  0.00    -0.216 N 
ATOM      2  H1  UNL     1      -0.312   3.535  11.688  1.00  0.00     0.178 HD
HETATM    3  C6  UNL     1      -1.168   4.837  12.731  1.00  0.00     0.729 A 
HETATM    4  N2  UNL     1      -2.041   3.819  13.032  1.00  0.00    -0.020 N 
ATOM      5  H2  UNL     1      -1.872   2.905  12.612  1.00  0.00     0.203 HD
HETATM    6  C7  UNL     1      -3.087   3.949  13.834  1.00  0.00     0.710 A 
HETATM    7  N4  UNL     1      -3.281   5.183  14.378  1.00  0.00    -0.019 N 
ATOM      8  H4  UNL     1      -4.070   5.346  15.004  1.00  0.00     0.203 HD
HETATM    9  C14 UNL     1      -2.418   6.205  14.084  1.00  0.00     0.734 A 
HETATM   10  N5  UNL     1      -2.421   7.491  14.500  1.00  0.00    -0.184 N 
ATOM     11  H5  UNL     1      -3.098   7.921  15.130  1.00  0.00     0.185 HD
HETATM   12  C15 UNL     1      -1.371   8.098  13.933  1.00  0.00     0.216 A 
HETATM   13  N6  UNL     1      -0.720   7.213  13.176  1.00  0.00    -0.260 N 
ATOM     14  H6  UNL     1       0.119   7.393  12.624  1.00  0.00     0.189 HD
HETATM   15  N7  UNL     1      -1.366   6.050  13.270  1.00  0.00     0.092 N 
ENDROOT
BRANCH   1  16
HETATM   16  C5  UNL     1       0.867   5.139  11.354  1.00  0.00     0.130 C 
HETATM   17  C4  UNL     1       0.446   5.872  10.116  1.00  0.00     0.028 C 
HETATM   18  C3  UNL     1       1.411   5.992   9.013  1.00  0.00     0.005 C 
HETATM   19  C2  UNL     1       2.761   5.359   9.274  1.00  0.00     0.034 C 
HETATM   20  C1  UNL     1       2.412   3.942   9.751  1.00  0.00     0.148 C 
HETATM   21  C16 UNL     1       1.940   4.119  11.159  1.00  0.00     0.170 C 
BRANCH  20  22
HETATM   22  O1  UNL     1       1.469   3.442   8.887  1.00  0.00    -0.393 OA
ATOM     23  H1  UNL     1       1.394   2.511   9.059  1.00  0.00     0.210 HD
ENDBRANCH  20  22
BRANCH  21  24
HETATM   24  O2  UNL     1       3.097   4.460  11.901  1.00  0.00    -0.391 OA
ATOM     25  H2  UNL     1       3.158   3.805  12.585  1.00  0.00     0.210 HD
ENDBRANCH  21  24
ENDBRANCH   1  16
BRANCH   6  26
HETATM   26  N3  UNL     1      -4.015   2.938  14.136  1.00  0.00    -0.207 N 
HETATM   27  C8  UNL     1      -4.384   1.970  13.146  1.00  0.00     0.142 C 
HETATM   28  C9  UNL     1      -4.180   0.598  13.688  1.00  0.00     0.020 C 
HETATM   29  C10 UNL     1      -4.560   0.367  15.105  1.00  0.00     0.004 C 
HETATM   30  C11 UNL     1      -4.335   1.487  16.055  1.00  0.00     0.031 C 
HETATM   31  C12 UNL     1      -4.574   2.864  15.456  1.00  0.00     0.167 C 
BRANCH  31  32
HETATM   32  C13 UNL     1      -6.066   3.129  15.508  1.00  0.00     0.376 C 
HETATM   33  F1  UNL     1      -6.632   2.764  16.704  1.00  0.00    -0.212 F 
HETATM   34  F2  UNL     1      -6.386   4.414  15.112  1.00  0.00    -0.212 F 
ENDBRANCH  31  32
ENDBRANCH   6  26
TORSDOF 5
ENDMDL
MODEL 3
REMARK VINA RESULT: -7.577882970      5.160      6.897
REMARK  5 active torsions:
REMARK  status: ('A' for Active; 'I' for Inactive)
REMARK    1  A    between atoms: O1_1  and  C1_3 
REMARK    2  A    between atoms: C5_7  and  N1_8 
REMARK    3  A    between atoms: C7_13  and  N3_14 
REMARK    4  A    between atoms: C12_19  and  C13_20 
REMARK    5  A    between atoms: C16_32  and  O2_33 
ROOT
HETATM    1  N1  UNL     1      -4.292   3.556  10.537  1.00  0.00    -0.216 N 
ATOM      2  H1  UNL     1      -4.826   3.216   9.737  1.00  0.00     0.178 HD
HETATM    3  C6  UNL     1      -4.380   4.794  10.645  1.00  0.00     0.729 A 
HETATM    4  N2  UNL     1      -5.155   5.399   9.684  1.00  0.00    -0.020 N 
ATOM      5  H2  UNL     1      -5.587   4.806   8.975  1.00  0.00     0.203 HD
HETATM    6  C7  UNL     1      -5.376   6.704   9.620  1.00  0.00     0.710 A 
HETATM    7  N4  UNL     1      -4.784   7.465  10.582  1.00  0.00    -0.019 N 
ATOM      8  H4  UNL     1      -4.918   8.476  10.586  1.00  0.00     0.203 HD
HETATM    9  C14 UNL     1      -4.010   6.873  11.544  1.00  0.00     0.734 A 
HETATM   10  N5  UNL     1      -3.334   7.426  12.576  1.00  0.00    -0.184 N 
ATOM     11  H5  UNL     1      -3.296   8.418  12.812  1.00  0.00     0.185 HD
HETATM   12  C15 UNL     1      -2.724   6.432  13.233  1.00  0.00     0.216 A 
HETATM   13  N6  UNL     1      -3.009   5.277  12.627  1.00  0.00    -0.260 N 
ATOM     14  H6  UNL     1      -2.680   4.353  12.908  1.00  0.00     0.189 HD
HETATM   15  N7  UNL     1      -3.799   5.552  11.590  1.00  0.00     0.092 N 
ENDROOT
BRANCH   1  16
HETATM   16  C5  UNL     1      -3.658   2.497  11.218  1.00  0.00     0.130 C 
HETATM   17  C4  UNL     1      -2.468   2.019  10.444  1.00  0.00     0.028 C 
HETATM   18  C3  UNL     1      -2.088   0.601  10.551  1.00  0.00     0.005 C 
HETATM   19  C2  UNL     1      -2.961  -0.225  11.471  1.00  0.00     0.034 C 
HETATM   20  C1  UNL     1      -4.387   0.087  10.997  1.00  0.00     0.148 C 
HETATM   21  C16 UNL     1      -4.678   1.452  11.534  1.00  0.00     0.170 C 
BRANCH  20  22
HETATM   22  O1  UNL     1      -4.391  -0.004   9.627  1.00  0.00    -0.393 OA
ATOM     23  H1  UNL     1      -5.170  -0.488   9.378  1.00  0.00     0.210 HD
ENDBRANCH  20  22
BRANCH  21  24
HETATM   24  O2  UNL     1      -4.805   1.284  12.934  1.00  0.00    -0.391 OA
ATOM     25  H2  UNL     1      -4.348   2.023  13.318  1.00  0.00     0.210 HD
ENDBRANCH  21  24
ENDBRANCH   1  16
BRANCH   6  26
HETATM   26  N3  UNL     1      -6.136   7.355   8.633  1.00  0.00    -0.207 N 
HETATM   27  C8  UNL     1      -7.394   6.815   8.211  1.00  0.00     0.142 C 
HETATM   28  C9  UNL     1      -8.452   7.857   8.332  1.00  0.00     0.020 C 
HETATM   29  C10 UNL     1      -8.087   9.240   7.936  1.00  0.00     0.004 C 
HETATM   30  C11 UNL     1      -6.697   9.681   8.224  1.00  0.00     0.031 C 
HETATM   31  C12 UNL     1      -5.656   8.584   8.068  1.00  0.00     0.167 C 
BRANCH  31  32
HETATM   32  C13 UNL     1      -5.313   8.489   6.594  1.00  0.00     0.376 C 
HETATM   33  F1  UNL     1      -4.563   9.550   6.151  1.00  0.00    -0.212 F 
HETATM   34  F2  UNL     1      -4.786   7.257   6.254  1.00  0.00    -0.212 F 
ENDBRANCH  31  32
ENDBRANCH   6  26
TORSDOF 5
ENDMDL
MODEL 4
REMARK VINA RESULT: -7.546092903      4.857      6.656
REMARK  5 active torsions:
REMARK  status: ('A' for Active; 'I' for Inactive)
REMARK    1  A    between atoms: O1_1  and  C1_3 
REMARK    2  A    between atoms: C5_7  and  N1_8 
REMARK    3  A    between atoms: C7_13  and  N3_14 
REMARK    4  A    between atoms: C12_19  and  C13_20 
REMARK    5  A    between atoms: C16_32  and  O2_33 
ROOT
HETATM    1  N1  UNL     1      -4.085   3.331  11.278  1.00  0.00    -0.216 N 
ATOM      2  H1  UNL     1      -4.801   3.168  10.569  1.00  0.00     0.178 HD
HETATM    3  C6  UNL     1      -3.994   4.542  11.558  1.00  0.00     0.729 A 
HETATM    4  N2  UNL     1      -4.856   5.357  10.863  1.00  0.00    -0.020 N 
ATOM      5  H2  UNL     1      -5.487   4.921  10.190  1.00  0.00     0.203 HD
HETATM    6  C7  UNL     1      -4.920   6.671  11.012  1.00  0.00     0.710 A 
HETATM    7  N4  UNL     1      -4.064   7.219  11.920  1.00  0.00    -0.019 N 
ATOM      8  H4  UNL     1      -4.066   8.226  12.080  1.00  0.00     0.203 HD
HETATM    9  C14 UNL     1      -3.200   6.417  12.618  1.00  0.00     0.734 A 
HETATM   10  N5  UNL     1      -2.275   6.740  13.549  1.00  0.00    -0.184 N 
ATOM     11  H5  UNL     1      -2.068   7.677  13.895  1.00  0.00     0.185 HD
HETATM   12  C15 UNL     1      -1.680   5.604  13.933  1.00  0.00     0.216 A 
HETATM   13  N6  UNL     1      -2.219   4.587  13.258  1.00  0.00    -0.260 N 
ATOM     14  H6  UNL     1      -1.962   3.603  13.345  1.00  0.00     0.189 HD
HETATM   15  N7  UNL     1      -3.152   5.089  12.451  1.00  0.00     0.092 N 
ENDROOT
BRANCH   1  16
HETATM   16  C5  UNL     1      -3.471   2.126  11.673  1.00  0.00     0.130 C 
HETATM   17  C4  UNL     1      -2.379   1.759  10.715  1.00  0.00     0.028 C 
HETATM   18  C3  UNL     1      -2.087   0.333  10.500  1.00  0.00     0.005 C 
HETATM   19  C2  UNL     1      -2.937  -0.622  11.311  1.00  0.00     0.034 C 
HETATM   20  C1  UNL     1      -4.372  -0.150  11.041  1.00  0.00     0.148 C 
HETATM   21  C16 UNL     1      -4.529   1.089  11.864  1.00  0.00     0.170 C 
BRANCH  20  22
HETATM   22  O1  UNL     1      -4.490   0.042   9.686  1.00  0.00    -0.393 OA
ATOM     23  H1  UNL     1      -4.442  -0.813   9.275  1.00  0.00     0.210 HD
ENDBRANCH  20  22
BRANCH  21  24
HETATM   24  O2  UNL     1      -4.557   0.643  13.208  1.00  0.00    -0.391 OA
ATOM     25  H2  UNL     1      -5.473   0.661  13.459  1.00  0.00     0.210 HD
ENDBRANCH  21  24
ENDBRANCH   1  16
BRANCH   6  26
HETATM   26  N3  UNL     1      -5.767   7.534  10.296  1.00  0.00    -0.207 N 
HETATM   27  C8  UNL     1      -6.348   8.677  10.935  1.00  0.00     0.142 C 
HETATM   28  C9  UNL     1      -6.042   9.902  10.145  1.00  0.00     0.020 C 
HETATM   29  C10 UNL     1      -6.106   9.786   8.666  1.00  0.00     0.004 C 
HETATM   30  C11 UNL     1      -5.672   8.497   8.070  1.00  0.00     0.031 C 
HETATM   31  C12 UNL     1      -6.026   7.278   8.907  1.00  0.00     0.167 C 
BRANCH  31  32
HETATM   32  C13 UNL     1      -7.469   6.924   8.607  1.00  0.00     0.376 C 
HETATM   33  F1  UNL     1      -8.243   8.023   8.334  1.00  0.00    -0.212 F 
HETATM   34  F2  UNL     1      -7.579   5.919   7.663  1.00  0.00    -0.212 F 
ENDBRANCH  31  32
ENDBRANCH   6  26
TORSDOF 5
ENDMDL
MODEL 5
REMARK VINA RESULT: -7.497890462      4.860      6.725
REMARK  5 active torsions:
REMARK  status: ('A' for Active; 'I' for Inactive)
REMARK    1  A    between atoms: O1_1  and  C1_3 
REMARK    2  A    between atoms: C5_7  and  N1_8 
REMARK    3  A    between atoms: C7_13  and  N3_14 
REMARK    4  A    between atoms: C12_19  and  C13_20 
REMARK    5  A    between atoms: C16_32  and  O2_33 
ROOT
HETATM    1  N1  UNL     1      -3.778   3.315  10.936  1.00  0.00    -0.216 N 
ATOM      2  H1  UNL     1      -3.619   3.373   9.930  1.00  0.00     0.178 HD
HETATM    3  C6  UNL     1      -4.283   4.366  11.375  1.00  0.00     0.729 A 
HETATM    4  N2  UNL     1      -4.502   5.336  10.425  1.00  0.00    -0.020 N 
ATOM      5  H2  UNL     1      -4.241   5.128   9.461  1.00  0.00     0.203 HD
HETATM    6  C7  UNL     1      -5.030   6.523  10.683  1.00  0.00     0.710 A 
HETATM    7  N4  UNL     1      -5.367   6.766  11.980  1.00  0.00    -0.019 N 
ATOM      8  H4  UNL     1      -5.778   7.662  12.241  1.00  0.00     0.203 HD
HETATM    9  C14 UNL     1      -5.154   5.807  12.935  1.00  0.00     0.734 A 
HETATM   10  N5  UNL     1      -5.403   5.833  14.263  1.00  0.00    -0.184 N 
ATOM     11  H5  UNL     1      -5.811   6.608  14.786  1.00  0.00     0.185 HD
HETATM   12  C15 UNL     1      -5.016   4.655  14.766  1.00  0.00     0.216 A 
HETATM   13  N6  UNL     1      -4.532   3.902  13.776  1.00  0.00    -0.260 N 
ATOM     14  H6  UNL     1      -4.163   2.955  13.864  1.00  0.00     0.189 HD
HETATM   15  N7  UNL     1      -4.618   4.613  12.652  1.00  0.00     0.092 N 
ENDROOT
BRANCH   1  16
HETATM   16  C5  UNL     1      -3.367   2.068  11.449  1.00  0.00     0.130 C 
HETATM   17  C4  UNL     1      -2.296   1.476  10.585  1.00  0.00     0.028 C 
HETATM   18  C3  UNL     1      -2.207   0.010  10.488  1.00  0.00     0.005 C 
HETATM   19  C2  UNL     1      -3.226  -0.747  11.312  1.00  0.00     0.034 C 
HETATM   20  C1  UNL     1      -4.561  -0.097  10.926  1.00  0.00     0.148 C 
HETATM   21  C16 UNL     1      -4.574   1.211  11.650  1.00  0.00     0.170 C 
BRANCH  20  22
HETATM   22  O1  UNL     1      -4.584   0.004   9.557  1.00  0.00    -0.393 OA
ATOM     23  H1  UNL     1      -4.844   0.893   9.344  1.00  0.00     0.210 HD
ENDBRANCH  20  22
BRANCH  21  24
HETATM   24  O2  UNL     1      -4.731   0.879  13.018  1.00  0.00    -0.391 OA
ATOM     25  H2  UNL     1      -3.856   0.683  13.330  1.00  0.00     0.210 HD
ENDBRANCH  21  24
ENDBRANCH   1  16
BRANCH   6  26
HETATM   26  N3  UNL     1      -5.236   7.546   9.741  1.00  0.00    -0.207 N 
HETATM   27  C8  UNL     1      -4.553   7.524   8.482  1.00  0.00     0.142 C 
HETATM   28  C9  UNL     1      -5.542   7.637   7.375  1.00  0.00     0.020 C 
HETATM   29  C10 UNL     1      -6.672   8.581   7.570  1.00  0.00     0.004 C 
HETATM   30  C11 UNL     1      -7.213   8.709   8.948  1.00  0.00     0.031 C 
HETATM   31  C12 UNL     1      -6.160   8.604  10.039  1.00  0.00     0.167 C 
BRANCH  31  32
HETATM   32  C13 UNL     1      -5.509   9.967  10.175  1.00  0.00     0.376 C 
HETATM   33  F1  UNL     1      -6.382  10.935  10.607  1.00  0.00    -0.212 F 
HETATM   34  F2  UNL     1      -4.332   9.919  10.899  1.00  0.00    -0.212 F 
ENDBRANCH  31  32
ENDBRANCH   6  26
TORSDOF 5
ENDMDL
