MODEL 1
REMARK VINA RESULT: -8.763488214      0.000      0.000
REMARK  11 active torsions:
REMARK  status: ('A' for Active; 'I' for Inactive)
REMARK    1  A    between atoms: C3_3  and  C4_4 
REMARK    2  A    between atoms: C4_4  and  C5_5 
REMARK    3  A    between atoms: C5_5  and  C6_6 
REMARK    4  A    between atoms: C6_6  and  N1_7 
REMARK    5  A    between atoms: C8_10  and  C9_11 
REMARK    6  A    between atoms: C11_13  and  C12_14 
REMARK    7  A    between atoms: C12_14  and  O2_15 
REMARK    8  A    between atoms: C15_18  and  C16_19 
REMARK       I    between atoms: C16_19  and  N2_21 
REMARK    9  A    between atoms: N2_21  and  C17_23 
REMARK   10  A    between atoms: C17_23  and  C18_24 
REMARK   11  A    between atoms: C18_24  and  N3_25 
ROOT
HETATM    1  C1  UNL     1       2.582   7.478  41.129  1.00  0.00     0.012 C 
HETATM    2  C2  UNL     1       2.763   7.925  42.231  1.00  0.00    -0.117 C 
HETATM    3  C3  UNL     1       2.972   8.466  43.601  1.00  0.00     0.093 C 
ENDROOT
BRANCH   3   4
HETATM    4  C4  UNL     1       3.662   7.380  44.393  1.00  0.00     0.014 C 
BRANCH   4   5
HETATM    5  C5  UNL     1       4.699   7.843  45.322  1.00  0.00     0.021 C 
BRANCH   5   6
HETATM    6  C6  UNL     1       6.132   7.579  45.044  1.00  0.00     0.134 C 
BRANCH   6   7
HETATM    7  N1  UNL     1       6.825   8.560  44.280  1.00  0.00    -0.298 N 
HETATM    8  C7  UNL     1       6.857   8.592  42.957  1.00  0.00     0.260 A 
HETATM    9  O1  UNL     1       6.221   7.779  42.228  1.00  0.00    -0.267 OA
HETATM   10  C8  UNL     1       7.592   9.528  42.245  1.00  0.00     0.049 A 
HETATM   11  C25 UNL     1       8.323  10.470  42.913  1.00  0.00    -0.030 A 
HETATM   12  C26 UNL     1       9.129  11.493  42.202  1.00  0.00     0.050 C 
HETATM   13  C27 UNL     1       8.279  10.428  44.308  1.00  0.00     0.032 A 
HETATM   14  C28 UNL     1       9.009  11.378  45.012  1.00  0.00     0.121 A 
HETATM   15  C30 UNL     1       7.547   9.496  44.976  1.00  0.00     0.138 A 
HETATM   16  N5  UNL     1       8.966  11.344  46.336  1.00  0.00    -0.201 N 
HETATM   17  C29 UNL     1       8.241  10.422  46.992  1.00  0.00     0.677 A 
ATOM     18  H5  UNL     1       9.495  12.034  46.868  1.00  0.00     0.183 HD
HETATM   19  N6  UNL     1       8.209  10.401  48.287  1.00  0.00    -0.234 N 
HETATM   20  N7  UNL     1       7.521   9.484  46.332  1.00  0.00    -0.176 N 
ATOM     21  H62 UNL     1       8.752  11.108  48.784  1.00  0.00     0.174 HD
ATOM     22  H61 UNL     1       7.659   9.701  48.785  1.00  0.00     0.174 HD
ATOM     23  H7  UNL     1       6.974   8.788  46.839  1.00  0.00     0.186 HD
BRANCH  10  24
HETATM   24  C9  UNL     1       7.556   9.510  40.792  1.00  0.00    -0.018 A 
HETATM   25  C10 UNL     1       8.728   9.330  40.051  1.00  0.00     0.022 A 
HETATM   26  C11 UNL     1       8.771   9.328  38.682  1.00  0.00    -0.033 A 
HETATM   27  C14 UNL     1       7.595   9.513  37.992  1.00  0.00     0.026 A 
HETATM   28  C15 UNL     1       6.393   9.698  38.686  1.00  0.00     0.033 A 
HETATM   29  C24 UNL     1       6.391   9.693  40.058  1.00  0.00     0.029 A 
BRANCH  26  30
HETATM   30  C12 UNL     1      10.048   9.136  37.930  1.00  0.00     0.205 C 
BRANCH  30  31
HETATM   31  O2  UNL     1      11.147   9.181  38.749  1.00  0.00    -0.391 OA
HETATM   32  C13 UNL     1      12.256   9.537  37.989  1.00  0.00     0.201 C 
ENDBRANCH  30  31
ENDBRANCH  26  30
BRANCH  28  33
HETATM   33  C16 UNL     1       5.189   9.901  37.896  1.00  0.00     0.251 C 
HETATM   34  O3  UNL     1       5.336  10.564  36.831  1.00  0.00    -0.268 OA
HETATM   35  N2  UNL     1       3.967   9.376  38.327  1.00  0.00    -0.355 N 
ATOM     36  H2  UNL     1       3.957   8.869  39.212  1.00  0.00     0.162 HD
BRANCH  35  37
HETATM   37  C17 UNL     1       2.700   9.499  37.603  1.00  0.00     0.153 C 
BRANCH  37  38
HETATM   38  C18 UNL     1       2.093   8.126  37.417  1.00  0.00     0.292 C 
BRANCH  38  39
HETATM   39  N3  UNL     1       0.803   7.970  38.061  1.00  0.00     0.093 N 
HETATM   40  C19 UNL     1      -0.086   7.487  37.008  1.00  0.00     0.302 C 
HETATM   41  C20 UNL     1      -1.526   7.562  37.384  1.00  0.00     0.302 C 
HETATM   42  N4  UNL     1      -1.837   8.963  37.667  1.00  0.00     0.087 N 
HETATM   43  C21 UNL     1      -3.269   9.135  37.867  1.00  0.00     0.310 C 
HETATM   44  C22 UNL     1      -1.082   9.329  38.849  1.00  0.00     0.302 C 
HETATM   45  C23 UNL     1       0.387   9.290  38.509  1.00  0.00     0.302 C 
ENDBRANCH  38  39
ENDBRANCH  37  38
ENDBRANCH  35  37
ENDBRANCH  28  33
ENDBRANCH  10  24
ENDBRANCH   6   7
ENDBRANCH   5   6
ENDBRANCH   4   5
ENDBRANCH   3   4
TORSDOF 11
ENDMDL
MODEL 2
REMARK VINA RESULT: -8.677858569      4.001      7.603
REMARK  11 active torsions:
REMARK  status: ('A' for Active; 'I' for Inactive)
REMARK    1  A    between atoms: C3_3  and  C4_4 
REMARK    2  A    between atoms: C4_4  and  C5_5 
REMARK    3  A    between atoms: C5_5  and  C6_6 
REMARK    4  A    between atoms: C6_6  and  N1_7 
REMARK    5  A    between atoms: C8_10  and  C9_11 
REMARK    6  A    between atoms: C11_13  and  C12_14 
REMARK    7  A    between atoms: C12_14  and  O2_15 
REMARK    8  A    between atoms: C15_18  and  C16_19 
REMARK       I    between atoms: C16_19  and  N2_21 
REMARK    9  A    between atoms: N2_21  and  C17_23 
REMARK   10  A    between atoms: C17_23  and  C18_24 
REMARK   11  A    between atoms: C18_24  and  N3_25 
ROOT
HETATM    1  C1  UNL     1       5.588   7.023  36.729  1.00  0.00     0.012 C 
HETATM    2  C2  UNL     1       6.416   7.087  37.600  1.00  0.00    -0.117 C 
HETATM    3  C3  UNL     1       7.454   7.163  38.663  1.00  0.00     0.093 C 
ENDROOT
BRANCH   3   4
HETATM    4  C4  UNL     1       8.100   8.524  38.538  1.00  0.00     0.014 C 
BRANCH   4   5
HETATM    5  C5  UNL     1       7.177   9.636  38.287  1.00  0.00     0.021 C 
BRANCH   5   6
HETATM    6  C6  UNL     1       6.323  10.166  39.378  1.00  0.00     0.134 C 
BRANCH   6   7
HETATM    7  N1  UNL     1       5.116   9.458  39.643  1.00  0.00    -0.298 N 
HETATM    8  C7  UNL     1       4.054   9.466  38.853  1.00  0.00     0.260 A 
HETATM    9  O1  UNL     1       4.024  10.065  37.739  1.00  0.00    -0.267 OA
HETATM   10  C8  UNL     1       2.874   8.814  39.172  1.00  0.00     0.049 A 
HETATM   11  C25 UNL     1       2.773   8.124  40.347  1.00  0.00    -0.030 A 
HETATM   12  C26 UNL     1       1.534   7.410  40.740  1.00  0.00     0.050 C 
HETATM   13  C27 UNL     1       3.901   8.120  41.171  1.00  0.00     0.032 A 
HETATM   14  C28 UNL     1       3.828   7.420  42.371  1.00  0.00     0.121 A 
HETATM   15  C30 UNL     1       5.044   8.770  40.828  1.00  0.00     0.138 A 
HETATM   16  N5  UNL     1       4.896   7.411  43.153  1.00  0.00    -0.201 N 
HETATM   17  C29 UNL     1       6.026   8.055  42.811  1.00  0.00     0.677 A 
ATOM     18  H5  UNL     1       4.861   6.903  44.037  1.00  0.00     0.183 HD
HETATM   19  N6  UNL     1       7.062   8.036  43.587  1.00  0.00    -0.234 N 
HETATM   20  N7  UNL     1       6.124   8.744  41.648  1.00  0.00    -0.176 N 
ATOM     21  H62 UNL     1       6.988   7.517  44.462  1.00  0.00     0.174 HD
ATOM     22  H61 UNL     1       7.919   8.525  43.327  1.00  0.00     0.174 HD
ATOM     23  H7  UNL     1       6.985   9.229  41.398  1.00  0.00     0.186 HD
BRANCH  10  24
HETATM   24  C9  UNL     1       1.761   8.853  38.237  1.00  0.00    -0.018 A 
HETATM   25  C10 UNL     1       0.463   9.127  38.682  1.00  0.00     0.022 A 
HETATM   26  C11 UNL     1      -0.633   9.153  37.862  1.00  0.00    -0.033 A 
HETATM   27  C14 UNL     1      -0.454   8.896  36.523  1.00  0.00     0.026 A 
HETATM   28  C15 UNL     1       0.825   8.616  36.026  1.00  0.00     0.033 A 
HETATM   29  C24 UNL     1       1.899   8.599  36.878  1.00  0.00     0.029 A 
BRANCH  26  30
HETATM   30  C12 UNL     1      -2.003   9.447  38.382  1.00  0.00     0.205 C 
BRANCH  30  31
HETATM   31  O2  UNL     1      -2.963   8.662  37.797  1.00  0.00    -0.391 OA
HETATM   32  C13 UNL     1      -3.992   9.479  37.342  1.00  0.00     0.201 C 
ENDBRANCH  30  31
ENDBRANCH  26  30
BRANCH  28  33
HETATM   33  C16 UNL     1       0.943   8.340  34.602  1.00  0.00     0.251 C 
HETATM   34  O3  UNL     1       1.833   7.506  34.276  1.00  0.00    -0.268 OA
HETATM   35  N2  UNL     1       0.100   8.981  33.689  1.00  0.00    -0.355 N 
ATOM     36  H2  UNL     1      -0.575   9.650  34.059  1.00  0.00     0.162 HD
BRANCH  35  37
HETATM   37  C17 UNL     1       0.114   8.764  32.241  1.00  0.00     0.153 C 
BRANCH  37  38
HETATM   38  C18 UNL     1      -1.220   8.198  31.806  1.00  0.00     0.292 C 
BRANCH  38  39
HETATM   39  N3  UNL     1      -2.028   9.135  31.049  1.00  0.00     0.093 N 
HETATM   40  C19 UNL     1      -3.029   9.618  31.996  1.00  0.00     0.302 C 
HETATM   41  C20 UNL     1      -4.147  10.350  31.338  1.00  0.00     0.302 C 
HETATM   42  N4  UNL     1      -4.785   9.429  30.398  1.00  0.00     0.087 N 
HETATM   43  C21 UNL     1      -5.997  10.021  29.850  1.00  0.00     0.310 C 
HETATM   44  C22 UNL     1      -3.811   9.145  29.362  1.00  0.00     0.302 C 
HETATM   45  C23 UNL     1      -2.666   8.381  29.980  1.00  0.00     0.302 C 
ENDBRANCH  38  39
ENDBRANCH  37  38
ENDBRANCH  35  37
ENDBRANCH  28  33
ENDBRANCH  10  24
ENDBRANCH   6   7
ENDBRANCH   5   6
ENDBRANCH   4   5
ENDBRANCH   3   4
TORSDOF 11
ENDMDL
MODEL 3
REMARK VINA RESULT: -8.616005789      4.265      9.759
REMARK  11 active torsions:
REMARK  status: ('A' for Active; 'I' for Inactive)
REMARK    1  A    between atoms: C3_3  and  C4_4 
REMARK    2  A    between atoms: C4_4  and  C5_5 
REMARK    3  A    between atoms: C5_5  and  C6_6 
REMARK    4  A    between atoms: C6_6  and  N1_7 
REMARK    5  A    between atoms: C8_10  and  C9_11 
REMARK    6  A    between atoms: C11_13  and  C12_14 
REMARK    7  A    between atoms: C12_14  and  O2_15 
REMARK    8  A    between atoms: C15_18  and  C16_19 
REMARK       I    between atoms: C16_19  and  N2_21 
REMARK    9  A    between atoms: N2_21  and  C17_23 
REMARK   10  A    between atoms: C17_23  and  C18_24 
REMARK   11  A    between atoms: C18_24  and  N3_25 
ROOT
HETATM    1  C1  UNL     1       3.463   9.274  36.798  1.00  0.00     0.012 C 
HETATM    2  C2  UNL     1       4.587   9.652  37.000  1.00  0.00    -0.117 C 
HETATM    3  C3  UNL     1       5.970  10.137  37.257  1.00  0.00     0.093 C 
ENDROOT
BRANCH   3   4
HETATM    4  C4  UNL     1       6.188  10.047  38.750  1.00  0.00     0.014 C 
BRANCH   4   5
HETATM    5  C5  UNL     1       7.148   9.025  39.182  1.00  0.00     0.021 C 
BRANCH   5   6
HETATM    6  C6  UNL     1       6.684   7.807  39.890  1.00  0.00     0.134 C 
BRANCH   6   7
HETATM    7  N1  UNL     1       6.123   7.998  41.185  1.00  0.00    -0.298 N 
HETATM    8  C7  UNL     1       6.824   8.309  42.265  1.00  0.00     0.260 A 
HETATM    9  O1  UNL     1       8.069   8.527  42.245  1.00  0.00    -0.267 OA
HETATM   10  C8  UNL     1       6.253   8.428  43.523  1.00  0.00     0.049 A 
HETATM   11  C25 UNL     1       4.912   8.222  43.685  1.00  0.00    -0.030 A 
HETATM   12  C26 UNL     1       4.250   8.333  45.007  1.00  0.00     0.050 C 
HETATM   13  C27 UNL     1       4.183   7.897  42.538  1.00  0.00     0.032 A 
HETATM   14  C28 UNL     1       2.816   7.688  42.672  1.00  0.00     0.121 A 
HETATM   15  C30 UNL     1       4.774   7.788  41.318  1.00  0.00     0.138 A 
HETATM   16  N5  UNL     1       2.121   7.384  41.587  1.00  0.00    -0.201 N 
HETATM   17  C29 UNL     1       2.708   7.278  40.382  1.00  0.00     0.677 A 
ATOM     18  H5  UNL     1       1.116   7.227  41.667  1.00  0.00     0.183 HD
HETATM   19  N6  UNL     1       2.015   6.980  39.330  1.00  0.00    -0.234 N 
HETATM   20  N7  UNL     1       4.039   7.476  40.222  1.00  0.00    -0.176 N 
ATOM     21  H62 UNL     1       1.013   6.831  39.451  1.00  0.00     0.174 HD
ATOM     22  H61 UNL     1       2.461   6.899  38.415  1.00  0.00     0.174 HD
ATOM     23  H7  UNL     1       4.475   7.393  39.304  1.00  0.00     0.186 HD
BRANCH  10  24
HETATM   24  C9  UNL     1       7.089   8.795  44.655  1.00  0.00    -0.018 A 
HETATM   25  C10 UNL     1       7.519  10.115  44.826  1.00  0.00     0.022 A 
HETATM   26  C11 UNL     1       8.327  10.525  45.852  1.00  0.00    -0.033 A 
HETATM   27  C14 UNL     1       8.744   9.589  46.770  1.00  0.00     0.026 A 
HETATM   28  C15 UNL     1       8.342   8.254  46.644  1.00  0.00     0.033 A 
HETATM   29  C24 UNL     1       7.531   7.881  45.602  1.00  0.00     0.029 A 
BRANCH  26  30
HETATM   30  C12 UNL     1       8.766  11.947  45.994  1.00  0.00     0.205 C 
BRANCH  30  31
HETATM   31  O2  UNL     1      10.105  12.108  45.747  1.00  0.00    -0.391 OA
HETATM   32  C13 UNL     1      10.264  12.627  44.467  1.00  0.00     0.201 C 
ENDBRANCH  30  31
ENDBRANCH  26  30
BRANCH  28  33
HETATM   33  C16 UNL     1       8.829   7.313  47.641  1.00  0.00     0.251 C 
HETATM   34  O3  UNL     1       8.763   7.700  48.840  1.00  0.00    -0.268 OA
HETATM   35  N2  UNL     1       9.328   6.067  47.248  1.00  0.00    -0.355 N 
ATOM     36  H2  UNL     1       9.351   5.861  46.249  1.00  0.00     0.162 HD
BRANCH  35  37
HETATM   37  C17 UNL     1       9.821   5.035  48.163  1.00  0.00     0.153 C 
BRANCH  37  38
HETATM   38  C18 UNL     1      10.260   3.827  47.366  1.00  0.00     0.292 C 
BRANCH  38  39
HETATM   39  N3  UNL     1      10.005   2.566  48.037  1.00  0.00     0.093 N 
HETATM   40  C19 UNL     1      10.435   1.542  47.089  1.00  0.00     0.302 C 
HETATM   41  C20 UNL     1       9.970   0.176  47.458  1.00  0.00     0.302 C 
HETATM   42  N4  UNL     1       8.508   0.204  47.501  1.00  0.00     0.087 N 
HETATM   43  C21 UNL     1       7.979  -1.141  47.680  1.00  0.00     0.310 C 
HETATM   44  C22 UNL     1       8.137   1.077  48.598  1.00  0.00     0.302 C 
HETATM   45  C23 UNL     1       8.570   2.481  48.258  1.00  0.00     0.302 C 
ENDBRANCH  38  39
ENDBRANCH  37  38
ENDBRANCH  35  37
ENDBRANCH  28  33
ENDBRANCH  10  24
ENDBRANCH   6   7
ENDBRANCH   5   6
ENDBRANCH   4   5
ENDBRANCH   3   4
TORSDOF 11
ENDMDL
MODEL 4
REMARK VINA RESULT: -8.374744980      2.153      9.438
REMARK  11 active torsions:
REMARK  status: ('A' for Active; 'I' for Inactive)
REMARK    1  A    between atoms: C3_3  and  C4_4 
REMARK    2  A    between atoms: C4_4  and  C5_5 
REMARK    3  A    between atoms: C5_5  and  C6_6 
REMARK    4  A    between atoms: C6_6  and  N1_7 
REMARK    5  A    between atoms: C8_10  and  C9_11 
REMARK    6  A    between atoms: C11_13  and  C12_14 
REMARK    7  A    between atoms: C12_14  and  O2_15 
REMARK    8  A    between atoms: C15_18  and  C16_19 
REMARK       I    between atoms: C16_19  and  N2_21 
REMARK    9  A    between atoms: N2_21  and  C17_23 
REMARK   10  A    between atoms: C17_23  and  C18_24 
REMARK   11  A    between atoms: C18_24  and  N3_25 
ROOT
HETATM    1  C1  UNL     1      -4.039   8.842  36.284  1.00  0.00     0.012 C 
HETATM    2  C2  UNL     1      -3.548   8.126  37.116  1.00  0.00    -0.117 C 
HETATM    3  C3  UNL     1      -2.921   7.248  38.141  1.00  0.00     0.093 C 
ENDROOT
BRANCH   3   4
HETATM    4  C4  UNL     1      -2.625   8.125  39.336  1.00  0.00     0.014 C 
BRANCH   4   5
HETATM    5  C5  UNL     1      -1.204   8.393  39.581  1.00  0.00     0.021 C 
BRANCH   5   6
HETATM    6  C6  UNL     1      -0.479   9.406  38.776  1.00  0.00     0.134 C 
BRANCH   6   7
HETATM    7  N1  UNL     1       0.821   9.045  38.318  1.00  0.00    -0.298 N 
HETATM    8  C7  UNL     1       1.929   9.182  39.029  1.00  0.00     0.260 A 
HETATM    9  O1  UNL     1       1.940   9.598  40.223  1.00  0.00    -0.267 OA
HETATM   10  C8  UNL     1       3.185   8.877  38.530  1.00  0.00     0.049 A 
HETATM   11  C25 UNL     1       3.315   8.412  37.251  1.00  0.00    -0.030 A 
HETATM   12  C26 UNL     1       4.635   8.072  36.665  1.00  0.00     0.050 C 
HETATM   13  C27 UNL     1       2.139   8.269  36.512  1.00  0.00     0.032 A 
HETATM   14  C28 UNL     1       2.241   7.792  35.210  1.00  0.00     0.121 A 
HETATM   15  C30 UNL     1       0.921   8.578  37.032  1.00  0.00     0.138 A 
HETATM   16  N5  UNL     1       1.127   7.652  34.507  1.00  0.00    -0.201 N 
HETATM   17  C29 UNL     1      -0.075   7.958  35.025  1.00  0.00     0.677 A 
ATOM     18  H5  UNL     1       1.184   7.304  33.551  1.00  0.00     0.183 HD
HETATM   19  N6  UNL     1      -1.155   7.815  34.325  1.00  0.00    -0.234 N 
HETATM   20  N7  UNL     1      -0.204   8.424  36.291  1.00  0.00    -0.176 N 
ATOM     21  H62 UNL     1      -1.057   7.464  33.373  1.00  0.00     0.174 HD
ATOM     22  H61 UNL     1      -2.067   8.047  34.718  1.00  0.00     0.174 HD
ATOM     23  H7  UNL     1      -1.121   8.653  36.675  1.00  0.00     0.186 HD
BRANCH  10  24
HETATM   24  C9  UNL     1       4.351   9.033  39.384  1.00  0.00    -0.018 A 
HETATM   25  C10 UNL     1       5.402   9.877  39.011  1.00  0.00     0.022 A 
HETATM   26  C11 UNL     1       6.540  10.050  39.754  1.00  0.00    -0.033 A 
HETATM   27  C14 UNL     1       6.660   9.357  40.936  1.00  0.00     0.026 A 
HETATM   28  C15 UNL     1       5.636   8.499  41.355  1.00  0.00     0.033 A 
HETATM   29  C24 UNL     1       4.512   8.352  40.584  1.00  0.00     0.029 A 
BRANCH  26  30
HETATM   30  C12 UNL     1       7.641  10.960  39.314  1.00  0.00     0.205 C 
BRANCH  30  31
HETATM   31  O2  UNL     1       7.454  12.250  39.741  1.00  0.00    -0.391 OA
HETATM   32  C13 UNL     1       8.658  12.734  40.241  1.00  0.00     0.201 C 
ENDBRANCH  30  31
ENDBRANCH  26  30
BRANCH  28  33
HETATM   33  C16 UNL     1       5.833   7.787  42.608  1.00  0.00     0.251 C 
HETATM   34  O3  UNL     1       5.939   6.532  42.516  1.00  0.00    -0.268 OA
HETATM   35  N2  UNL     1       5.896   8.490  43.816  1.00  0.00    -0.355 N 
ATOM     36  H2  UNL     1       5.782   9.503  43.778  1.00  0.00     0.162 HD
BRANCH  35  37
HETATM   37  C17 UNL     1       6.114   7.881  45.129  1.00  0.00     0.153 C 
BRANCH  37  38
HETATM   38  C18 UNL     1       7.477   8.281  45.648  1.00  0.00     0.292 C 
BRANCH  38  39
HETATM   39  N3  UNL     1       7.947   9.550  45.126  1.00  0.00     0.093 N 
HETATM   40  C19 UNL     1       9.221   9.244  44.482  1.00  0.00     0.302 C 
HETATM   41  C20 UNL     1      10.016  10.460  44.158  1.00  0.00     0.302 C 
HETATM   42  N4  UNL     1      10.273  11.168  45.412  1.00  0.00     0.087 N 
HETATM   43  C21 UNL     1      11.197  12.272  45.193  1.00  0.00     0.310 C 
HETATM   44  C22 UNL     1       8.990  11.632  45.902  1.00  0.00     0.302 C 
HETATM   45  C23 UNL     1       8.155  10.429  46.267  1.00  0.00     0.302 C 
ENDBRANCH  38  39
ENDBRANCH  37  38
ENDBRANCH  35  37
ENDBRANCH  28  33
ENDBRANCH  10  24
ENDBRANCH   6   7
ENDBRANCH   5   6
ENDBRANCH   4   5
ENDBRANCH   3   4
TORSDOF 11
ENDMDL
MODEL 5
REMARK VINA RESULT: -8.363585259      2.274      9.600
REMARK  11 active torsions:
REMARK  status: ('A' for Active; 'I' for Inactive)
REMARK    1  A    between atoms: C3_3  and  C4_4 
REMARK    2  A    between atoms: C4_4  and  C5_5 
REMARK    3  A    between atoms: C5_5  and  C6_6 
REMARK    4  A    between atoms: C6_6  and  N1_7 
REMARK    5  A    between atoms: C8_10  and  C9_11 
REMARK    6  A    between atoms: C11_13  and  C12_14 
REMARK    7  A    between atoms: C12_14  and  O2_15 
REMARK    8  A    between atoms: C15_18  and  C16_19 
REMARK       I    between atoms: C16_19  and  N2_21 
REMARK    9  A    between atoms: N2_21  and  C17_23 
REMARK   10  A    between atoms: C17_23  and  C18_24 
REMARK   11  A    between atoms: C18_24  and  N3_25 
ROOT
HETATM    1  C1  UNL     1      -4.118   8.795  36.374  1.00  0.00     0.012 C 
HETATM    2  C2  UNL     1      -3.538   8.126  37.189  1.00  0.00    -0.117 C 
HETATM    3  C3  UNL     1      -2.803   7.308  38.191  1.00  0.00     0.093 C 
ENDROOT
BRANCH   3   4
HETATM    4  C4  UNL     1      -2.500   8.222  39.355  1.00  0.00     0.014 C 
BRANCH   4   5
HETATM    5  C5  UNL     1      -1.076   8.389  39.668  1.00  0.00     0.021 C 
BRANCH   5   6
HETATM    6  C6  UNL     1      -0.258   9.391  38.942  1.00  0.00     0.134 C 
BRANCH   6   7
HETATM    7  N1  UNL     1       1.028   8.966  38.503  1.00  0.00    -0.298 N 
HETATM    8  C7  UNL     1       2.138   9.080  39.216  1.00  0.00     0.260 A 
HETATM    9  O1  UNL     1       2.159   9.532  40.397  1.00  0.00    -0.267 OA
HETATM   10  C8  UNL     1       3.383   8.711  38.733  1.00  0.00     0.049 A 
HETATM   11  C25 UNL     1       3.501   8.203  37.470  1.00  0.00    -0.030 A 
HETATM   12  C26 UNL     1       4.809   7.794  36.902  1.00  0.00     0.050 C 
HETATM   13  C27 UNL     1       2.323   8.084  36.728  1.00  0.00     0.032 A 
HETATM   14  C28 UNL     1       2.413   7.565  35.442  1.00  0.00     0.121 A 
HETATM   15  C30 UNL     1       1.116   8.456  37.232  1.00  0.00     0.138 A 
HETATM   16  N5  UNL     1       1.298   7.447  34.737  1.00  0.00    -0.201 N 
HETATM   17  C29 UNL     1       0.106   7.816  35.239  1.00  0.00     0.677 A 
ATOM     18  H5  UNL     1       1.344   7.068  33.792  1.00  0.00     0.183 HD
HETATM   19  N6  UNL     1      -0.976   7.694  34.537  1.00  0.00    -0.234 N 
HETATM   20  N7  UNL     1      -0.011   8.325  36.489  1.00  0.00    -0.176 N 
ATOM     21  H62 UNL     1      -0.887   7.311  33.596  1.00  0.00     0.174 HD
ATOM     22  H61 UNL     1      -1.880   7.974  34.918  1.00  0.00     0.174 HD
ATOM     23  H7  UNL     1      -0.919   8.601  36.860  1.00  0.00     0.186 HD
BRANCH  10  24
HETATM   24  C9  UNL     1       4.551   8.847  39.590  1.00  0.00    -0.018 A 
HETATM   25  C10 UNL     1       4.769   7.957  40.646  1.00  0.00     0.022 A 
HETATM   26  C11 UNL     1       5.831   8.042  41.506  1.00  0.00    -0.033 A 
HETATM   27  C14 UNL     1       6.738   9.060  41.325  1.00  0.00     0.026 A 
HETATM   28  C15 UNL     1       6.566   9.978  40.282  1.00  0.00     0.033 A 
HETATM   29  C24 UNL     1       5.489   9.860  39.441  1.00  0.00     0.029 A 
BRANCH  26  30
HETATM   30  C12 UNL     1       6.023   7.070  42.625  1.00  0.00     0.205 C 
BRANCH  30  31
HETATM   31  O2  UNL     1       4.845   6.762  43.257  1.00  0.00    -0.391 OA
HETATM   32  C13 UNL     1       4.836   7.371  44.507  1.00  0.00     0.201 C 
ENDBRANCH  30  31
ENDBRANCH  26  30
BRANCH  28  33
HETATM   33  C16 UNL     1       7.554  11.038  40.155  1.00  0.00     0.251 C 
HETATM   34  O3  UNL     1       7.489  11.727  39.099  1.00  0.00    -0.268 OA
HETATM   35  N2  UNL     1       8.498  11.245  41.166  1.00  0.00    -0.355 N 
ATOM     36  H2  UNL     1       8.473  10.619  41.971  1.00  0.00     0.162 HD
BRANCH  35  37
HETATM   37  C17 UNL     1       9.522  12.292  41.155  1.00  0.00     0.153 C 
BRANCH  37  38
HETATM   38  C18 UNL     1      10.311  12.235  42.443  1.00  0.00     0.292 C 
BRANCH  38  39
HETATM   39  N3  UNL     1       9.571  11.663  43.552  1.00  0.00     0.093 N 
HETATM   40  C19 UNL     1       9.552  12.709  44.571  1.00  0.00     0.302 C 
HETATM   41  C20 UNL     1       9.114  12.213  45.905  1.00  0.00     0.302 C 
HETATM   42  N4  UNL     1      10.047  11.164  46.315  1.00  0.00     0.087 N 
HETATM   43  C21 UNL     1       9.783  10.758  47.688  1.00  0.00     0.310 C 
HETATM   44  C22 UNL     1       9.873  10.063  45.388  1.00  0.00     0.302 C 
HETATM   45  C23 UNL     1      10.328  10.513  44.022  1.00  0.00     0.302 C 
ENDBRANCH  38  39
ENDBRANCH  37  38
ENDBRANCH  35  37
ENDBRANCH  28  33
ENDBRANCH  10  24
ENDBRANCH   6   7
ENDBRANCH   5   6
ENDBRANCH   4   5
ENDBRANCH   3   4
TORSDOF 11
ENDMDL
