MODEL 1
REMARK VINA RESULT: -3.654780380      0.000      0.000
REMARK  2 active torsions:
REMARK  status: ('A' for Active; 'I' for Inactive)
REMARK    1  A    between atoms: N1_1  and  C1_5 
REMARK    2  A    between atoms: C1_5  and  C2_6 
ROOT
HETATM    1  C2  UNL     1      61.488  75.960  27.820  1.00  0.00     0.087 A 
HETATM    2  C3  UNL     1      60.547  76.337  26.754  1.00  0.00     0.071 A 
HETATM    3  N2  UNL     1      60.310  75.161  26.409  1.00  0.00    -0.381 N 
ATOM      4  H2  UNL     1      59.710  74.753  25.692  1.00  0.00     0.164 HD
HETATM    5  C4  UNL     1      61.171  74.601  27.373  1.00  0.00     0.071 A 
ENDROOT
BRANCH   1   6
HETATM    6  C1  UNL     1      62.865  76.495  27.491  1.00  0.00     0.244 C 
BRANCH   6   7
HETATM    7  N1  UNL     1      62.849  77.789  26.889  1.00  0.00    -0.078 N 
ATOM      8  H13 UNL     1      63.687  78.313  27.139  1.00  0.00     0.274 HD
ATOM      9  H12 UNL     1      62.986  77.719  25.881  1.00  0.00     0.274 HD
ATOM     10  H11 UNL     1      62.009  78.328  27.102  1.00  0.00     0.274 HD
ENDBRANCH   6   7
ENDBRANCH   1   6
TORSDOF 2
ENDMDL
MODEL 2
REMARK VINA RESULT: -3.017962225      1.455      2.817
REMARK  2 active torsions:
REMARK  status: ('A' for Active; 'I' for Inactive)
REMARK    1  A    between atoms: N1_1  and  C1_5 
REMARK    2  A    between atoms: C1_5  and  C2_6 
ROOT
HETATM    1  C2  UNL     1      60.481  75.359  27.562  1.00  0.00     0.087 A 
HETATM    2  C3  UNL     1      61.433  74.347  27.078  1.00  0.00     0.071 A 
HETATM    3  N2  UNL     1      62.433  75.084  27.198  1.00  0.00    -0.381 N 
ATOM      4  H2  UNL     1      63.427  74.945  27.013  1.00  0.00     0.164 HD
HETATM    5  C4  UNL     1      61.690  76.178  27.681  1.00  0.00     0.071 A 
ENDROOT
BRANCH   1   6
HETATM    6  C1  UNL     1      59.511  75.711  26.454  1.00  0.00     0.244 C 
BRANCH   6   7
HETATM    7  N1  UNL     1      59.721  74.970  25.252  1.00  0.00    -0.078 N 
ATOM      8  H13 UNL     1      59.585  73.973  25.416  1.00  0.00     0.274 HD
ATOM      9  H12 UNL     1      58.965  75.139  24.588  1.00  0.00     0.274 HD
ATOM     10  H11 UNL     1      60.628  75.144  24.818  1.00  0.00     0.274 HD
ENDBRANCH   6   7
ENDBRANCH   1   6
TORSDOF 2
ENDMDL
MODEL 3
REMARK VINA RESULT: -2.924053789      0.685      2.807
REMARK  2 active torsions:
REMARK  status: ('A' for Active; 'I' for Inactive)
REMARK    1  A    between atoms: N1_1  and  C1_5 
REMARK    2  A    between atoms: C1_5  and  C2_6 
ROOT
HETATM    1  C2  UNL     1      61.624  76.023  27.823  1.00  0.00     0.087 A 
HETATM    2  C3  UNL     1      63.049  76.132  27.476  1.00  0.00     0.071 A 
HETATM    3  N2  UNL     1      62.925  77.222  26.881  1.00  0.00    -0.381 N 
ATOM      4  H2  UNL     1      63.586  77.833  26.402  1.00  0.00     0.164 HD
HETATM    5  C4  UNL     1      61.538  77.302  27.113  1.00  0.00     0.071 A 
ENDROOT
BRANCH   1   6
HETATM    6  C1  UNL     1      61.029  74.809  27.140  1.00  0.00     0.244 C 
BRANCH   6   7
HETATM    7  N1  UNL     1      60.084  75.132  26.120  1.00  0.00    -0.078 N 
ATOM      8  H13 UNL     1      59.358  75.748  26.484  1.00  0.00     0.274 HD
ATOM      9  H12 UNL     1      60.501  75.752  25.425  1.00  0.00     0.274 HD
ATOM     10  H11 UNL     1      59.671  74.314  25.671  1.00  0.00     0.274 HD
ENDBRANCH   6   7
ENDBRANCH   1   6
TORSDOF 2
ENDMDL
MODEL 4
REMARK VINA RESULT: -2.804122999      1.130      1.382
REMARK  2 active torsions:
REMARK  status: ('A' for Active; 'I' for Inactive)
REMARK    1  A    between atoms: N1_1  and  C1_5 
REMARK    2  A    between atoms: C1_5  and  C2_6 
ROOT
HETATM    1  C2  UNL     1      61.758  76.162  27.841  1.00  0.00     0.087 A 
HETATM    2  C3  UNL     1      60.851  75.089  27.407  1.00  0.00     0.071 A 
HETATM    3  N2  UNL     1      61.767  74.321  27.049  1.00  0.00    -0.381 N 
ATOM      4  H2  UNL     1      61.772  73.383  26.647  1.00  0.00     0.164 HD
HETATM    5  C4  UNL     1      62.791  75.219  27.404  1.00  0.00     0.071 A 
ENDROOT
BRANCH   1   6
HETATM    6  C1  UNL     1      61.535  77.391  26.985  1.00  0.00     0.244 C 
BRANCH   6   7
HETATM    7  N1  UNL     1      62.703  78.194  26.819  1.00  0.00    -0.078 N 
ATOM      8  H13 UNL     1      62.697  78.653  25.909  1.00  0.00     0.274 HD
ATOM      9  H12 UNL     1      62.665  79.014  27.425  1.00  0.00     0.274 HD
ATOM     10  H11 UNL     1      63.574  77.682  26.960  1.00  0.00     0.274 HD
ENDBRANCH   6   7
ENDBRANCH   1   6
TORSDOF 2
ENDMDL
MODEL 5
REMARK VINA RESULT: -2.463039236      1.031      1.312
REMARK  2 active torsions:
REMARK  status: ('A' for Active; 'I' for Inactive)
REMARK    1  A    between atoms: N1_1  and  C1_5 
REMARK    2  A    between atoms: C1_5  and  C2_6 
ROOT
HETATM    1  C2  UNL     1      61.470  76.083  27.062  1.00  0.00     0.087 A 
HETATM    2  C3  UNL     1      61.977  74.717  26.860  1.00  0.00     0.071 A 
HETATM    3  N2  UNL     1      61.170  74.191  27.654  1.00  0.00    -0.381 N 
ATOM      4  H2  UNL     1      61.017  73.229  27.955  1.00  0.00     0.164 HD
HETATM    5  C4  UNL     1      60.549  75.411  27.983  1.00  0.00     0.071 A 
ENDROOT
BRANCH   1   6
HETATM    6  C1  UNL     1      62.558  76.940  27.673  1.00  0.00     0.244 C 
BRANCH   6   7
HETATM    7  N1  UNL     1      62.887  78.089  26.894  1.00  0.00    -0.078 N 
ATOM      8  H13 UNL     1      62.196  78.827  27.031  1.00  0.00     0.274 HD
ATOM      9  H12 UNL     1      63.712  78.557  27.270  1.00  0.00     0.274 HD
ATOM     10  H11 UNL     1      63.009  77.889  25.901  1.00  0.00     0.274 HD
ENDBRANCH   6   7
ENDBRANCH   1   6
TORSDOF 2
ENDMDL
