MODEL 1
REMARK VINA RESULT: -4.201457150      0.000      0.000
REMARK  9 active torsions:
REMARK  status: ('A' for Active; 'I' for Inactive)
REMARK    1  A    between atoms: C2_2  and  N1_3 
REMARK    2  A    between atoms: C2_2  and  N2_7 
REMARK    3  A    between atoms: N2_7  and  C3_10 
REMARK    4  A    between atoms: C5_12  and  C6_13 
REMARK    5  A    between atoms: C6_13  and  N3_14 
REMARK    6  A    between atoms: N4_18  and  O1_19 
REMARK    7  A    between atoms: O1_19  and  C7_20 
REMARK    8  A    between atoms: C7_20  and  C8_21 
REMARK    9  A    between atoms: C11_24  and  O2_25 
ROOT
HETATM    1  C3  UNL     1      59.834  32.708  47.865  1.00  0.00     0.240 C 
HETATM    2  C4  UNL     1      59.665  31.355  47.218  1.00  0.00     0.067 C 
HETATM    3  C5  UNL     1      58.277  30.846  47.643  1.00  0.00     0.139 C 
HETATM    4  N4  UNL     1      58.052  31.628  48.784  1.00  0.00    -0.257 N 
HETATM    5  C11 UNL     1      58.550  32.937  48.641  1.00  0.00     0.272 C 
ENDROOT
BRANCH   1   6
HETATM    6  N2  UNL     1      60.059  33.729  46.880  1.00  0.00    -0.038 N 
ATOM      7  H22 UNL     1      60.703  34.454  47.196  1.00  0.00     0.280 HD
ATOM      8  H21 UNL     1      59.248  34.329  46.732  1.00  0.00     0.280 HD
BRANCH   6   9
HETATM    9  C2  UNL     1      60.502  33.060  45.671  1.00  0.00     0.377 C 
HETATM   10  C1  UNL     1      59.574  33.310  44.501  1.00  0.00     0.071 C 
BRANCH   9  11
HETATM   11  N1  UNL     1      61.874  33.358  45.332  1.00  0.00    -0.051 N 
ATOM     12  H13 UNL     1      61.996  33.458  44.324  1.00  0.00     0.276 HD
ATOM     13  H12 UNL     1      62.132  34.303  45.617  1.00  0.00     0.276 HD
ATOM     14  H11 UNL     1      62.514  32.664  45.717  1.00  0.00     0.276 HD
ENDBRANCH   9  11
ENDBRANCH   6   9
ENDBRANCH   1   6
BRANCH   5  15
HETATM   15  O2  UNL     1      57.726  33.824  47.997  1.00  0.00    -0.373 OA
ATOM     16  H2  UNL     1      58.217  34.540  47.612  1.00  0.00     0.212 HD
ENDBRANCH   5  15
BRANCH   3  17
HETATM   17  C6  UNL     1      58.432  29.365  47.921  1.00  0.00     0.257 C 
BRANCH  17  18
HETATM   18  N3  UNL     1      59.807  28.926  47.784  1.00  0.00    -0.077 N 
ATOM     19  H33 UNL     1      60.381  29.640  47.337  1.00  0.00     0.274 HD
ATOM     20  H32 UNL     1      60.274  28.886  48.689  1.00  0.00     0.274 HD
ATOM     21  H31 UNL     1      59.879  28.034  47.293  1.00  0.00     0.274 HD
ENDBRANCH  17  18
ENDBRANCH   3  17
BRANCH   4  22
HETATM   22  O1  UNL     1      57.225  31.337  49.711  1.00  0.00    -0.279 OA
BRANCH  22  23
HETATM   23  C7  UNL     1      56.266  30.381  49.492  1.00  0.00     0.205 C 
BRANCH  23  24
HETATM   24  C8  UNL     1      55.226  30.513  50.591  1.00  0.00     0.012 A 
HETATM   25  C9  UNL     1      55.561  31.235  51.842  1.00  0.00     0.007 A 
HETATM   26  C10 UNL     1      55.562  29.728  51.841  1.00  0.00     0.007 A 
ENDBRANCH  23  24
ENDBRANCH  22  23
ENDBRANCH   4  22
TORSDOF 9
ENDMDL
MODEL 2
REMARK VINA RESULT: -4.144708573      0.720      1.054
REMARK  9 active torsions:
REMARK  status: ('A' for Active; 'I' for Inactive)
REMARK    1  A    between atoms: C2_2  and  N1_3 
REMARK    2  A    between atoms: C2_2  and  N2_7 
REMARK    3  A    between atoms: N2_7  and  C3_10 
REMARK    4  A    between atoms: C5_12  and  C6_13 
REMARK    5  A    between atoms: C6_13  and  N3_14 
REMARK    6  A    between atoms: N4_18  and  O1_19 
REMARK    7  A    between atoms: O1_19  and  C7_20 
REMARK    8  A    between atoms: C7_20  and  C8_21 
REMARK    9  A    between atoms: C11_24  and  O2_25 
ROOT
HETATM    1  C3  UNL     1      59.881  32.758  47.794  1.00  0.00     0.240 C 
HETATM    2  C4  UNL     1      59.585  31.388  47.236  1.00  0.00     0.067 C 
HETATM    3  C5  UNL     1      58.288  30.918  47.918  1.00  0.00     0.139 C 
HETATM    4  N4  UNL     1      58.278  31.741  49.052  1.00  0.00    -0.257 N 
HETATM    5  C11 UNL     1      58.757  33.035  48.776  1.00  0.00     0.272 C 
ENDROOT
BRANCH   1   6
HETATM    6  N2  UNL     1      59.939  33.741  46.749  1.00  0.00    -0.038 N 
ATOM      7  H22 UNL     1      60.465  34.575  47.012  1.00  0.00     0.280 HD
ATOM      8  H21 UNL     1      59.044  34.199  46.578  1.00  0.00     0.280 HD
BRANCH   6   9
HETATM    9  C2  UNL     1      60.474  33.078  45.574  1.00  0.00     0.377 C 
HETATM   10  C1  UNL     1      59.598  33.273  44.354  1.00  0.00     0.071 C 
BRANCH   9  11
HETATM   11  N1  UNL     1      61.847  33.433  45.301  1.00  0.00    -0.051 N 
ATOM     12  H13 UNL     1      62.228  32.885  44.530  1.00  0.00     0.276 HD
ATOM     13  H12 UNL     1      61.917  34.362  44.886  1.00  0.00     0.276 HD
ATOM     14  H11 UNL     1      62.426  33.354  46.137  1.00  0.00     0.276 HD
ENDBRANCH   9  11
ENDBRANCH   6   9
ENDBRANCH   1   6
BRANCH   5  15
HETATM   15  O2  UNL     1      57.842  33.915  48.256  1.00  0.00    -0.373 OA
ATOM     16  H2  UNL     1      57.314  34.312  48.939  1.00  0.00     0.212 HD
ENDBRANCH   5  15
BRANCH   3  17
HETATM   17  C6  UNL     1      58.473  29.445  48.217  1.00  0.00     0.257 C 
BRANCH  17  18
HETATM   18  N3  UNL     1      59.768  28.958  47.782  1.00  0.00    -0.077 N 
ATOM     19  H33 UNL     1      60.411  29.728  47.603  1.00  0.00     0.274 HD
ATOM     20  H32 UNL     1      60.268  28.504  48.546  1.00  0.00     0.274 HD
ATOM     21  H31 UNL     1      59.695  28.342  46.972  1.00  0.00     0.274 HD
ENDBRANCH  17  18
ENDBRANCH   3  17
BRANCH   4  22
HETATM   22  O1  UNL     1      57.625  31.496  50.121  1.00  0.00    -0.279 OA
BRANCH  22  23
HETATM   23  C7  UNL     1      56.256  31.579  50.116  1.00  0.00     0.205 C 
BRANCH  23  24
HETATM   24  C8  UNL     1      55.709  30.164  50.184  1.00  0.00     0.012 A 
HETATM   25  C9  UNL     1      54.981  29.598  49.023  1.00  0.00     0.007 A 
HETATM   26  C10 UNL     1      54.196  30.100  50.207  1.00  0.00     0.007 A 
ENDBRANCH  23  24
ENDBRANCH  22  23
ENDBRANCH   4  22
TORSDOF 9
ENDMDL
MODEL 3
REMARK VINA RESULT: -3.561559409      1.160      1.416
REMARK  9 active torsions:
REMARK  status: ('A' for Active; 'I' for Inactive)
REMARK    1  A    between atoms: C2_2  and  N1_3 
REMARK    2  A    between atoms: C2_2  and  N2_7 
REMARK    3  A    between atoms: N2_7  and  C3_10 
REMARK    4  A    between atoms: C5_12  and  C6_13 
REMARK    5  A    between atoms: C6_13  and  N3_14 
REMARK    6  A    between atoms: N4_18  and  O1_19 
REMARK    7  A    between atoms: O1_19  and  C7_20 
REMARK    8  A    between atoms: C7_20  and  C8_21 
REMARK    9  A    between atoms: C11_24  and  O2_25 
ROOT
HETATM    1  C3  UNL     1      59.919  32.644  48.203  1.00  0.00     0.240 C 
HETATM    2  C4  UNL     1      59.354  31.704  47.166  1.00  0.00     0.067 C 
HETATM    3  C5  UNL     1      58.012  31.204  47.727  1.00  0.00     0.139 C 
HETATM    4  N4  UNL     1      58.190  31.460  49.093  1.00  0.00    -0.257 N 
HETATM    5  C11 UNL     1      58.896  32.655  49.324  1.00  0.00     0.272 C 
ENDROOT
BRANCH   1   6
HETATM    6  N2  UNL     1      60.133  33.953  47.654  1.00  0.00    -0.038 N 
ATOM      7  H22 UNL     1      61.107  34.252  47.698  1.00  0.00     0.280 HD
ATOM      8  H21 UNL     1      59.742  34.699  48.229  1.00  0.00     0.280 HD
BRANCH   6   9
HETATM    9  C2  UNL     1      59.601  33.938  46.303  1.00  0.00     0.377 C 
HETATM   10  C1  UNL     1      58.469  34.926  46.118  1.00  0.00     0.071 C 
BRANCH   9  11
HETATM   11  N1  UNL     1      60.621  34.106  45.294  1.00  0.00    -0.051 N 
ATOM     12  H13 UNL     1      60.632  33.322  44.641  1.00  0.00     0.276 HD
ATOM     13  H12 UNL     1      60.380  34.852  44.641  1.00  0.00     0.276 HD
ATOM     14  H11 UNL     1      61.539  34.257  45.711  1.00  0.00     0.276 HD
ENDBRANCH   9  11
ENDBRANCH   6   9
ENDBRANCH   1   6
BRANCH   5  15
HETATM   15  O2  UNL     1      58.149  33.806  49.311  1.00  0.00    -0.373 OA
ATOM     16  H2  UNL     1      58.698  34.577  49.232  1.00  0.00     0.212 HD
ENDBRANCH   5  15
BRANCH   3  17
HETATM   17  C6  UNL     1      57.925  29.733  47.374  1.00  0.00     0.257 C 
BRANCH  17  18
HETATM   18  N3  UNL     1      58.978  28.958  48.000  1.00  0.00    -0.077 N 
ATOM     19  H33 UNL     1      59.877  29.125  47.550  1.00  0.00     0.274 HD
ATOM     20  H32 UNL     1      59.194  29.312  48.931  1.00  0.00     0.274 HD
ATOM     21  H31 UNL     1      58.758  27.962  48.027  1.00  0.00     0.274 HD
ENDBRANCH  17  18
ENDBRANCH   3  17
BRANCH   4  22
HETATM   22  O1  UNL     1      57.533  30.893  50.029  1.00  0.00    -0.279 OA
BRANCH  22  23
HETATM   23  C7  UNL     1      56.279  31.346  50.352  1.00  0.00     0.205 C 
BRANCH  23  24
HETATM   24  C8  UNL     1      55.398  30.132  50.587  1.00  0.00     0.012 A 
HETATM   25  C9  UNL     1      54.976  29.294  49.439  1.00  0.00     0.007 A 
HETATM   26  C10 UNL     1      53.999  30.281  50.026  1.00  0.00     0.007 A 
ENDBRANCH  23  24
ENDBRANCH  22  23
ENDBRANCH   4  22
TORSDOF 9
ENDMDL
MODEL 4
REMARK VINA RESULT: -3.465355054      1.557      2.526
REMARK  9 active torsions:
REMARK  status: ('A' for Active; 'I' for Inactive)
REMARK    1  A    between atoms: C2_2  and  N1_3 
REMARK    2  A    between atoms: C2_2  and  N2_7 
REMARK    3  A    between atoms: N2_7  and  C3_10 
REMARK    4  A    between atoms: C5_12  and  C6_13 
REMARK    5  A    between atoms: C6_13  and  N3_14 
REMARK    6  A    between atoms: N4_18  and  O1_19 
REMARK    7  A    between atoms: O1_19  and  C7_20 
REMARK    8  A    between atoms: C7_20  and  C8_21 
REMARK    9  A    between atoms: C11_24  and  O2_25 
ROOT
HETATM    1  C3  UNL     1      59.315  31.966  46.813  1.00  0.00     0.240 C 
HETATM    2  C4  UNL     1      59.274  32.813  48.062  1.00  0.00     0.067 C 
HETATM    3  C5  UNL     1      58.843  31.874  49.203  1.00  0.00     0.139 C 
HETATM    4  N4  UNL     1      58.237  30.842  48.474  1.00  0.00    -0.257 N 
HETATM    5  C11 UNL     1      58.907  30.576  47.266  1.00  0.00     0.272 C 
ENDROOT
BRANCH   1   6
HETATM    6  N2  UNL     1      60.623  31.980  46.222  1.00  0.00    -0.038 N 
ATOM      7  H22 UNL     1      60.874  31.093  45.784  1.00  0.00     0.280 HD
ATOM      8  H21 UNL     1      61.375  32.001  46.911  1.00  0.00     0.280 HD
BRANCH   6   9
HETATM    9  C2  UNL     1      60.661  33.101  45.302  1.00  0.00     0.377 C 
HETATM   10  C1  UNL     1      59.914  32.817  44.016  1.00  0.00     0.071 C 
BRANCH   9  11
HETATM   11  N1  UNL     1      60.227  34.340  45.904  1.00  0.00    -0.051 N 
ATOM     12  H13 UNL     1      60.157  34.257  46.918  1.00  0.00     0.276 HD
ATOM     13  H12 UNL     1      60.952  35.054  45.852  1.00  0.00     0.276 HD
ATOM     14  H11 UNL     1      59.351  34.667  45.496  1.00  0.00     0.276 HD
ENDBRANCH   9  11
ENDBRANCH   6   9
ENDBRANCH   1   6
BRANCH   5  15
HETATM   15  O2  UNL     1      59.990  29.739  47.353  1.00  0.00    -0.373 OA
ATOM     16  H2  UNL     1      60.139  29.455  48.247  1.00  0.00     0.212 HD
ENDBRANCH   5  15
BRANCH   3  17
HETATM   17  C6  UNL     1      57.890  32.669  50.072  1.00  0.00     0.257 C 
BRANCH  17  18
HETATM   18  N3  UNL     1      57.638  33.993  49.536  1.00  0.00    -0.077 N 
ATOM     19  H33 UNL     1      58.195  34.166  48.700  1.00  0.00     0.274 HD
ATOM     20  H32 UNL     1      56.707  34.054  49.126  1.00  0.00     0.274 HD
ATOM     21  H31 UNL     1      57.783  34.724  50.233  1.00  0.00     0.274 HD
ENDBRANCH  17  18
ENDBRANCH   3  17
BRANCH   4  22
HETATM   22  O1  UNL     1      57.395  30.012  48.956  1.00  0.00    -0.279 OA
BRANCH  22  23
HETATM   23  C7  UNL     1      56.081  30.075  48.571  1.00  0.00     0.205 C 
BRANCH  23  24
HETATM   24  C8  UNL     1      55.241  29.518  49.707  1.00  0.00     0.012 A 
HETATM   25  C9  UNL     1      54.140  30.331  50.278  1.00  0.00     0.007 A 
HETATM   26  C10 UNL     1      55.448  30.239  51.023  1.00  0.00     0.007 A 
ENDBRANCH  23  24
ENDBRANCH  22  23
ENDBRANCH   4  22
TORSDOF 9
ENDMDL
MODEL 5
REMARK VINA RESULT: -2.993858721      1.196      1.447
REMARK  9 active torsions:
REMARK  status: ('A' for Active; 'I' for Inactive)
REMARK    1  A    between atoms: C2_2  and  N1_3 
REMARK    2  A    between atoms: C2_2  and  N2_7 
REMARK    3  A    between atoms: N2_7  and  C3_10 
REMARK    4  A    between atoms: C5_12  and  C6_13 
REMARK    5  A    between atoms: C6_13  and  N3_14 
REMARK    6  A    between atoms: N4_18  and  O1_19 
REMARK    7  A    between atoms: O1_19  and  C7_20 
REMARK    8  A    between atoms: C7_20  and  C8_21 
REMARK    9  A    between atoms: C11_24  and  O2_25 
ROOT
HETATM    1  C3  UNL     1      59.626  32.334  47.769  1.00  0.00     0.240 C 
HETATM    2  C4  UNL     1      58.740  31.364  47.027  1.00  0.00     0.067 C 
HETATM    3  C5  UNL     1      57.456  31.230  47.863  1.00  0.00     0.139 C 
HETATM    4  N4  UNL     1      57.913  31.669  49.113  1.00  0.00    -0.257 N 
HETATM    5  C11 UNL     1      58.835  32.727  49.002  1.00  0.00     0.272 C 
ENDROOT
BRANCH   1   6
HETATM    6  N2  UNL     1      59.949  33.470  46.950  1.00  0.00    -0.038 N 
ATOM      7  H22 UNL     1      60.568  34.135  47.414  1.00  0.00     0.280 HD
ATOM      8  H21 UNL     1      59.160  34.102  46.812  1.00  0.00     0.280 HD
BRANCH   6   9
HETATM    9  C2  UNL     1      60.493  32.955  45.707  1.00  0.00     0.377 C 
HETATM   10  C1  UNL     1      59.609  33.267  44.519  1.00  0.00     0.071 C 
BRANCH   9  11
HETATM   11  N1  UNL     1      61.857  33.367  45.475  1.00  0.00    -0.051 N 
ATOM     12  H13 UNL     1      62.419  33.294  46.324  1.00  0.00     0.276 HD
ATOM     13  H12 UNL     1      62.357  32.693  44.896  1.00  0.00     0.276 HD
ATOM     14  H11 UNL     1      61.902  34.306  45.078  1.00  0.00     0.276 HD
ENDBRANCH   9  11
ENDBRANCH   6   9
ENDBRANCH   1   6
BRANCH   5  15
HETATM   15  O2  UNL     1      58.295  33.982  48.875  1.00  0.00    -0.373 OA
ATOM     16  H2  UNL     1      57.386  33.999  49.151  1.00  0.00     0.212 HD
ENDBRANCH   5  15
BRANCH   3  17
HETATM   17  C6  UNL     1      57.068  29.766  47.818  1.00  0.00     0.257 C 
BRANCH  17  18
HETATM   18  N3  UNL     1      55.632  29.584  47.738  1.00  0.00    -0.077 N 
ATOM     19  H33 UNL     1      55.378  29.004  46.939  1.00  0.00     0.274 HD
ATOM     20  H32 UNL     1      55.294  28.982  48.488  1.00  0.00     0.274 HD
ATOM     21  H31 UNL     1      55.132  30.472  47.724  1.00  0.00     0.274 HD
ENDBRANCH  17  18
ENDBRANCH   3  17
BRANCH   4  22
HETATM   22  O1  UNL     1      57.349  31.401  50.227  1.00  0.00    -0.279 OA
BRANCH  22  23
HETATM   23  C7  UNL     1      56.204  32.064  50.586  1.00  0.00     0.205 C 
BRANCH  23  24
HETATM   24  C8  UNL     1      55.357  31.107  51.407  1.00  0.00     0.012 A 
HETATM   25  C9  UNL     1      55.425  29.650  51.142  1.00  0.00     0.007 A 
HETATM   26  C10 UNL     1      54.256  30.439  50.611  1.00  0.00     0.007 A 
ENDBRANCH  23  24
ENDBRANCH  22  23
ENDBRANCH   4  22
TORSDOF 9
ENDMDL
