MODEL 1
REMARK VINA RESULT: -9.499692652      0.000      0.000
REMARK  13 active torsions:
REMARK  status: ('A' for Active; 'I' for Inactive)
REMARK    1  A    between atoms: C2_2  and  C3_3 
REMARK    2  A    between atoms: C3_3  and  C4_4 
REMARK    3  A    between atoms: C3_3  and  N1_6 
REMARK    4  A    between atoms: N1_6  and  C6_7 
REMARK    5  A    between atoms: N3_19  and  C16_20 
REMARK    6  A    between atoms: C16_20  and  C17_21 
REMARK       I    between atoms: C17_21  and  N4_23 
REMARK    7  A    between atoms: N4_23  and  C18_24 
REMARK    8  A    between atoms: N4_23  and  C21_30 
REMARK    9  A    between atoms: C18_24  and  C19_25 
REMARK   10  A    between atoms: C19_25  and  N5_26 
REMARK   11  A    between atoms: C21_30  and  C22_31 
REMARK       I    between atoms: C22_31  and  N6_33 
REMARK   12  A    between atoms: N6_33  and  C24_35 
REMARK   13  A    between atoms: C24_35  and  C25_36 
ROOT
HETATM    1  C17 UNL     1      16.428  21.414  16.493  1.00  0.00     0.240 C 
HETATM    2  O1  UNL     1      17.097  20.342  16.568  1.00  0.00    -0.271 OA
HETATM    3  N4  UNL     1      15.049  21.393  16.810  1.00  0.00    -0.340 N 
ENDROOT
BRANCH   3   4
HETATM    4  C18 UNL     1      14.262  22.603  16.731  1.00  0.00     0.154 C 
BRANCH   4   5
HETATM    5  C19 UNL     1      14.093  23.156  18.131  1.00  0.00     0.251 C 
BRANCH   5   6
HETATM    6  N5  UNL     1      14.034  24.605  18.124  1.00  0.00    -0.077 N 
HETATM    7  C20 UNL     1      15.397  25.149  18.152  1.00  0.00     0.267 C 
ATOM      8  H52 UNL     1      13.490  24.966  17.341  1.00  0.00     0.276 HD
ATOM      9  H51 UNL     1      13.457  24.972  18.882  1.00  0.00     0.276 HD
ENDBRANCH   5   6
ENDBRANCH   4   5
ENDBRANCH   3   4
BRANCH   3  10
HETATM   10  C21 UNL     1      14.441  20.144  17.224  1.00  0.00     0.228 C 
BRANCH  10  11
HETATM   11  C22 UNL     1      12.966  20.153  16.964  1.00  0.00     0.237 C 
HETATM   12  O2  UNL     1      12.585  20.399  15.796  1.00  0.00    -0.272 OA
HETATM   13  N6  UNL     1      12.078  19.887  18.014  1.00  0.00    -0.349 N 
HETATM   14  C23 UNL     1      12.561  19.649  19.358  1.00  0.00     0.153 C 
BRANCH  13  15
HETATM   15  C24 UNL     1      10.635  19.801  17.797  1.00  0.00     0.182 C 
BRANCH  15  16
HETATM   16  C25 UNL     1      10.283  18.394  17.434  1.00  0.00     0.029 A 
HETATM   17  C26 UNL     1       9.733  17.508  18.333  1.00  0.00     0.059 A 
HETATM   18  C27 UNL     1       9.387  16.204  17.998  1.00  0.00     0.071 A 
HETATM   19  N7  UNL     1       8.853  15.144  18.623  1.00  0.00    -0.338 N 
HETATM   20  C30 UNL     1       9.614  15.792  16.701  1.00  0.00     0.119 A 
HETATM   21  C28 UNL     1       8.754  14.111  17.738  1.00  0.00     0.121 A 
ATOM     22  H7  UNL     1       8.568  15.116  19.602  1.00  0.00     0.168 HD
HETATM   23  C29 UNL     1       8.230  12.747  17.959  1.00  0.00     0.098 C 
HETATM   24  O3  UNL     1       9.226  14.546  16.587  1.00  0.00    -0.294 OA
HETATM   25  C31 UNL     1      10.168  16.693  15.815  1.00  0.00     0.127 A 
HETATM   26  N8  UNL     1      10.489  17.945  16.174  1.00  0.00    -0.365 N 
ATOM     27  H8  UNL     1      10.897  18.573  15.482  1.00  0.00     0.165 HD
ENDBRANCH  15  16
ENDBRANCH  13  15
ENDBRANCH  10  11
ENDBRANCH   3  10
BRANCH   1  28
HETATM   28  C16 UNL     1      17.144  22.645  16.073  1.00  0.00     0.254 C 
BRANCH  28  29
HETATM   29  N3  UNL     1      17.881  23.143  17.219  1.00  0.00    -0.256 N 
HETATM   30  C6  UNL     1      18.644  24.227  17.161  1.00  0.00     0.201 A 
HETATM   31  C7  UNL     1      19.334  24.635  18.345  1.00  0.00     0.035 A 
HETATM   32  C8  UNL     1      20.120  25.753  18.300  1.00  0.00     0.018 A 
HETATM   33  C13 UNL     1      19.212  23.930  19.506  1.00  0.00     0.003 A 
HETATM   34  C9  UNL     1      20.779  26.139  19.458  1.00  0.00     0.008 A 
HETATM   35  C10 UNL     1      20.664  25.434  20.638  1.00  0.00    -0.061 A 
HETATM   36  C11 UNL     1      21.399  25.893  21.871  1.00  0.00     0.048 C 
HETATM   37  C12 UNL     1      19.872  24.310  20.682  1.00  0.00     0.021 A 
HETATM   38  C14 UNL     1      18.399  22.808  19.496  1.00  0.00     0.033 A 
HETATM   39  C15 UNL     1      18.281  22.051  20.768  1.00  0.00     0.070 C 
HETATM   40  N2  UNL     1      17.780  22.476  18.358  1.00  0.00    -0.299 N 
ATOM     41  H2  UNL     1      17.187  21.646  18.368  1.00  0.00     0.187 HD
BRANCH  30  42
HETATM   42  N1  UNL     1      18.793  24.890  16.154  1.00  0.00    -0.423 NA
BRANCH  42  43
HETATM   43  C3  UNL     1      19.021  25.210  14.871  1.00  0.00     0.164 C 
BRANCH  43  44
HETATM   44  C2  UNL     1      18.117  26.288  14.265  1.00  0.00     0.035 C 
HETATM   45  C1  UNL     1      16.677  25.856  14.205  1.00  0.00     0.008 C 
ENDBRANCH  43  44
BRANCH  43  46
HETATM   46  C4  UNL     1      20.487  25.600  14.611  1.00  0.00     0.035 C 
HETATM   47  C5  UNL     1      20.671  27.083  14.576  1.00  0.00     0.008 C 
ENDBRANCH  43  46
ENDBRANCH  42  43
ENDBRANCH  30  42
ENDBRANCH  28  29
ENDBRANCH   1  28
TORSDOF 13
ENDMDL
MODEL 2
REMARK VINA RESULT: -9.493097108      2.826     11.401
REMARK  13 active torsions:
REMARK  status: ('A' for Active; 'I' for Inactive)
REMARK    1  A    between atoms: C2_2  and  C3_3 
REMARK    2  A    between atoms: C3_3  and  C4_4 
REMARK    3  A    between atoms: C3_3  and  N1_6 
REMARK    4  A    between atoms: N1_6  and  C6_7 
REMARK    5  A    between atoms: N3_19  and  C16_20 
REMARK    6  A    between atoms: C16_20  and  C17_21 
REMARK       I    between atoms: C17_21  and  N4_23 
REMARK    7  A    between atoms: N4_23  and  C18_24 
REMARK    8  A    between atoms: N4_23  and  C21_30 
REMARK    9  A    between atoms: C18_24  and  C19_25 
REMARK   10  A    between atoms: C19_25  and  N5_26 
REMARK   11  A    between atoms: C21_30  and  C22_31 
REMARK       I    between atoms: C22_31  and  N6_33 
REMARK   12  A    between atoms: N6_33  and  C24_35 
REMARK   13  A    between atoms: C24_35  and  C25_36 
ROOT
HETATM    1  C17 UNL     1      14.430  22.845  18.157  1.00  0.00     0.240 C 
HETATM    2  O1  UNL     1      13.683  23.819  17.847  1.00  0.00    -0.271 OA
HETATM    3  N4  UNL     1      15.815  23.068  18.347  1.00  0.00    -0.340 N 
ENDROOT
BRANCH   3   4
HETATM    4  C18 UNL     1      16.690  21.973  18.699  1.00  0.00     0.154 C 
BRANCH   4   5
HETATM    5  C19 UNL     1      17.092  22.130  20.151  1.00  0.00     0.251 C 
BRANCH   5   6
HETATM    6  N5  UNL     1      18.517  22.372  20.283  1.00  0.00    -0.077 N 
HETATM    7  C20 UNL     1      18.734  23.579  21.089  1.00  0.00     0.267 C 
ATOM      8  H52 UNL     1      19.012  21.563  20.657  1.00  0.00     0.276 HD
ATOM      9  H51 UNL     1      18.985  22.424  19.378  1.00  0.00     0.276 HD
ENDBRANCH   5   6
ENDBRANCH   4   5
ENDBRANCH   3   4
BRANCH   3  10
HETATM   10  C21 UNL     1      16.339  24.410  18.193  1.00  0.00     0.228 C 
BRANCH  10  11
HETATM   11  C22 UNL     1      17.541  24.418  17.300  1.00  0.00     0.237 C 
HETATM   12  O2  UNL     1      18.666  24.315  17.842  1.00  0.00    -0.272 OA
HETATM   13  N6  UNL     1      17.371  24.535  15.914  1.00  0.00    -0.349 N 
HETATM   14  C23 UNL     1      16.055  24.694  15.333  1.00  0.00     0.153 C 
BRANCH  13  15
HETATM   15  C24 UNL     1      18.505  24.465  14.993  1.00  0.00     0.182 C 
BRANCH  15  16
HETATM   16  C25 UNL     1      19.155  25.809  14.924  1.00  0.00     0.029 A 
HETATM   17  C26 UNL     1      20.493  26.004  15.184  1.00  0.00     0.059 A 
HETATM   18  C27 UNL     1      21.108  27.248  15.105  1.00  0.00     0.071 A 
HETATM   19  N7  UNL     1      22.342  27.741  15.290  1.00  0.00    -0.338 N 
HETATM   20  C30 UNL     1      20.328  28.329  14.749  1.00  0.00     0.119 A 
HETATM   21  C28 UNL     1      22.323  29.085  15.054  1.00  0.00     0.121 A 
ATOM     22  H7  UNL     1      23.162  27.199  15.563  1.00  0.00     0.168 HD
HETATM   23  C29 UNL     1      23.434  30.056  15.129  1.00  0.00     0.098 C 
HETATM   24  O3  UNL     1      21.084  29.399  14.730  1.00  0.00    -0.294 OA
HETATM   25  C31 UNL     1      18.990  28.114  14.493  1.00  0.00     0.127 A 
HETATM   26  N8  UNL     1      18.430  26.898  14.579  1.00  0.00    -0.365 N 
ATOM     27  H8  UNL     1      17.435  26.792  14.380  1.00  0.00     0.165 HD
ENDBRANCH  15  16
ENDBRANCH  13  15
ENDBRANCH  10  11
ENDBRANCH   3  10
BRANCH   1  28
HETATM   28  C16 UNL     1      13.797  21.510  18.306  1.00  0.00     0.254 C 
BRANCH  28  29
HETATM   29  N3  UNL     1      13.333  21.091  16.997  1.00  0.00    -0.256 N 
HETATM   30  C6  UNL     1      12.256  20.333  16.830  1.00  0.00     0.201 A 
HETATM   31  C7  UNL     1      11.882  19.970  15.498  1.00  0.00     0.035 A 
HETATM   32  C8  UNL     1      10.772  19.194  15.312  1.00  0.00     0.018 A 
HETATM   33  C13 UNL     1      12.611  20.392  14.426  1.00  0.00     0.003 A 
HETATM   34  C9  UNL     1      10.420  18.853  14.015  1.00  0.00     0.008 A 
HETATM   35  C10 UNL     1      11.148  19.273  12.922  1.00  0.00    -0.061 A 
HETATM   36  C11 UNL     1      10.725  18.879  11.531  1.00  0.00     0.048 C 
HETATM   37  C12 UNL     1      12.265  20.055  13.111  1.00  0.00     0.021 A 
HETATM   38  C14 UNL     1      13.723  21.180  14.672  1.00  0.00     0.033 A 
HETATM   39  C15 UNL     1      14.507  21.626  13.492  1.00  0.00     0.070 C 
HETATM   40  N2  UNL     1      14.024  21.485  15.939  1.00  0.00    -0.299 N 
ATOM     41  H2  UNL     1      14.846  22.066  16.102  1.00  0.00     0.187 HD
BRANCH  30  42
HETATM   42  N1  UNL     1      11.573  19.926  17.748  1.00  0.00    -0.423 NA
BRANCH  42  43
HETATM   43  C3  UNL     1      11.160  19.184  18.787  1.00  0.00     0.164 C 
BRANCH  43  44
HETATM   44  C2  UNL     1      10.017  18.201  18.512  1.00  0.00     0.035 C 
HETATM   45  C1  UNL     1      10.516  16.806  18.249  1.00  0.00     0.008 C 
ENDBRANCH  43  44
BRANCH  43  46
HETATM   46  C4  UNL     1      12.312  18.415  19.459  1.00  0.00     0.035 C 
HETATM   47  C5  UNL     1      12.505  18.831  20.881  1.00  0.00     0.008 C 
ENDBRANCH  43  46
ENDBRANCH  42  43
ENDBRANCH  30  42
ENDBRANCH  28  29
ENDBRANCH   1  28
TORSDOF 13
ENDMDL
MODEL 3
REMARK VINA RESULT: -9.301059659      0.989      1.260
REMARK  13 active torsions:
REMARK  status: ('A' for Active; 'I' for Inactive)
REMARK    1  A    between atoms: C2_2  and  C3_3 
REMARK    2  A    between atoms: C3_3  and  C4_4 
REMARK    3  A    between atoms: C3_3  and  N1_6 
REMARK    4  A    between atoms: N1_6  and  C6_7 
REMARK    5  A    between atoms: N3_19  and  C16_20 
REMARK    6  A    between atoms: C16_20  and  C17_21 
REMARK       I    between atoms: C17_21  and  N4_23 
REMARK    7  A    between atoms: N4_23  and  C18_24 
REMARK    8  A    between atoms: N4_23  and  C21_30 
REMARK    9  A    between atoms: C18_24  and  C19_25 
REMARK   10  A    between atoms: C19_25  and  N5_26 
REMARK   11  A    between atoms: C21_30  and  C22_31 
REMARK       I    between atoms: C22_31  and  N6_33 
REMARK   12  A    between atoms: N6_33  and  C24_35 
REMARK   13  A    between atoms: C24_35  and  C25_36 
ROOT
HETATM    1  C17 UNL     1      16.641  21.582  16.402  1.00  0.00     0.240 C 
HETATM    2  O1  UNL     1      17.341  20.530  16.455  1.00  0.00    -0.271 OA
HETATM    3  N4  UNL     1      15.262  21.512  16.713  1.00  0.00    -0.340 N 
ENDROOT
BRANCH   3   4
HETATM    4  C18 UNL     1      14.438  22.699  16.659  1.00  0.00     0.154 C 
BRANCH   4   5
HETATM    5  C19 UNL     1      14.207  23.186  18.074  1.00  0.00     0.251 C 
BRANCH   5   6
HETATM    6  N5  UNL     1      14.103  24.632  18.127  1.00  0.00    -0.077 N 
HETATM    7  C20 UNL     1      15.447  25.220  18.094  1.00  0.00     0.267 C 
ATOM      8  H52 UNL     1      13.501  25.002  17.391  1.00  0.00     0.276 HD
ATOM      9  H51 UNL     1      13.562  24.951  18.931  1.00  0.00     0.276 HD
ENDBRANCH   5   6
ENDBRANCH   4   5
ENDBRANCH   3   4
BRANCH   3  10
HETATM   10  C21 UNL     1      14.691  20.237  17.096  1.00  0.00     0.228 C 
BRANCH  10  11
HETATM   11  C22 UNL     1      13.232  20.180  16.765  1.00  0.00     0.237 C 
HETATM   12  O2  UNL     1      12.906  20.293  15.560  1.00  0.00    -0.272 OA
HETATM   13  N6  UNL     1      12.296  20.003  17.793  1.00  0.00    -0.349 N 
HETATM   14  C23 UNL     1      12.714  19.920  19.177  1.00  0.00     0.153 C 
BRANCH  13  15
HETATM   15  C24 UNL     1      10.868  19.859  17.516  1.00  0.00     0.182 C 
BRANCH  15  16
HETATM   16  C25 UNL     1      10.581  18.427  17.194  1.00  0.00     0.029 A 
HETATM   17  C26 UNL     1      10.117  18.019  15.963  1.00  0.00     0.059 A 
HETATM   18  C27 UNL     1       9.865  16.688  15.651  1.00  0.00     0.071 A 
HETATM   19  N7  UNL     1       9.428  16.001  14.585  1.00  0.00    -0.338 N 
HETATM   20  C30 UNL     1      10.093  15.744  16.631  1.00  0.00     0.119 A 
HETATM   21  C28 UNL     1       9.389  14.673  14.899  1.00  0.00     0.121 A 
ATOM     22  H7  UNL     1       9.167  16.405  13.686  1.00  0.00     0.168 HD
HETATM   23  C29 UNL     1       8.978  13.532  14.055  1.00  0.00     0.098 C 
HETATM   24  O3  UNL     1       9.799  14.562  16.147  1.00  0.00    -0.294 OA
HETATM   25  C31 UNL     1      10.557  16.172  17.858  1.00  0.00     0.127 A 
HETATM   26  N8  UNL     1      10.789  17.467  18.123  1.00  0.00    -0.365 N 
ATOM     27  H8  UNL     1      11.131  17.732  19.047  1.00  0.00     0.165 HD
ENDBRANCH  15  16
ENDBRANCH  13  15
ENDBRANCH  10  11
ENDBRANCH   3  10
BRANCH   1  28
HETATM   28  C16 UNL     1      17.320  22.844  16.013  1.00  0.00     0.254 C 
BRANCH  28  29
HETATM   29  N3  UNL     1      18.037  23.338  17.173  1.00  0.00    -0.256 N 
HETATM   30  C6  UNL     1      18.801  24.422  17.132  1.00  0.00     0.201 A 
HETATM   31  C7  UNL     1      19.470  24.827  18.330  1.00  0.00     0.035 A 
HETATM   32  C8  UNL     1      20.256  25.945  18.302  1.00  0.00     0.018 A 
HETATM   33  C13 UNL     1      19.327  24.119  19.485  1.00  0.00     0.003 A 
HETATM   34  C9  UNL     1      20.895  26.327  19.472  1.00  0.00     0.008 A 
HETATM   35  C10 UNL     1      20.759  25.619  20.648  1.00  0.00    -0.061 A 
HETATM   36  C11 UNL     1      21.472  26.074  21.894  1.00  0.00     0.048 C 
HETATM   37  C12 UNL     1      19.967  24.494  20.674  1.00  0.00     0.021 A 
HETATM   38  C14 UNL     1      18.515  22.997  19.459  1.00  0.00     0.033 A 
HETATM   39  C15 UNL     1      18.374  22.236  20.726  1.00  0.00     0.070 C 
HETATM   40  N2  UNL     1      17.916  22.668  18.309  1.00  0.00    -0.299 N 
ATOM     41  H2  UNL     1      17.322  21.839  18.306  1.00  0.00     0.187 HD
BRANCH  30  42
HETATM   42  N1  UNL     1      18.967  25.088  16.130  1.00  0.00    -0.423 NA
BRANCH  42  43
HETATM   43  C3  UNL     1      19.311  25.428  14.878  1.00  0.00     0.164 C 
BRANCH  43  44
HETATM   44  C2  UNL     1      18.402  26.439  14.171  1.00  0.00     0.035 C 
HETATM   45  C1  UNL     1      16.961  26.007  14.172  1.00  0.00     0.008 C 
ENDBRANCH  43  44
BRANCH  43  46
HETATM   46  C4  UNL     1      20.764  25.926  14.778  1.00  0.00     0.035 C 
HETATM   47  C5  UNL     1      20.832  27.395  14.512  1.00  0.00     0.008 C 
ENDBRANCH  43  46
ENDBRANCH  42  43
ENDBRANCH  30  42
ENDBRANCH  28  29
ENDBRANCH   1  28
TORSDOF 13
ENDMDL
MODEL 4
REMARK VINA RESULT: -9.208315539      1.507      3.824
REMARK  13 active torsions:
REMARK  status: ('A' for Active; 'I' for Inactive)
REMARK    1  A    between atoms: C2_2  and  C3_3 
REMARK    2  A    between atoms: C3_3  and  C4_4 
REMARK    3  A    between atoms: C3_3  and  N1_6 
REMARK    4  A    between atoms: N1_6  and  C6_7 
REMARK    5  A    between atoms: N3_19  and  C16_20 
REMARK    6  A    between atoms: C16_20  and  C17_21 
REMARK       I    between atoms: C17_21  and  N4_23 
REMARK    7  A    between atoms: N4_23  and  C18_24 
REMARK    8  A    between atoms: N4_23  and  C21_30 
REMARK    9  A    between atoms: C18_24  and  C19_25 
REMARK   10  A    between atoms: C19_25  and  N5_26 
REMARK   11  A    between atoms: C21_30  and  C22_31 
REMARK       I    between atoms: C22_31  and  N6_33 
REMARK   12  A    between atoms: N6_33  and  C24_35 
REMARK   13  A    between atoms: C24_35  and  C25_36 
ROOT
HETATM    1  C17 UNL     1      16.732  21.498  17.142  1.00  0.00     0.240 C 
HETATM    2  O1  UNL     1      17.311  20.734  16.315  1.00  0.00    -0.271 OA
HETATM    3  N4  UNL     1      15.323  21.443  17.265  1.00  0.00    -0.340 N 
ENDROOT
BRANCH   3   4
HETATM    4  C18 UNL     1      14.637  22.305  18.200  1.00  0.00     0.154 C 
BRANCH   4   5
HETATM    5  C19 UNL     1      14.051  23.473  17.434  1.00  0.00     0.251 C 
BRANCH   5   6
HETATM    6  N5  UNL     1      14.058  24.686  18.230  1.00  0.00    -0.077 N 
HETATM    7  C20 UNL     1      15.402  25.276  18.208  1.00  0.00     0.267 C 
ATOM      8  H52 UNL     1      13.341  25.347  17.931  1.00  0.00     0.276 HD
ATOM      9  H51 UNL     1      13.722  24.526  19.180  1.00  0.00     0.276 HD
ENDBRANCH   5   6
ENDBRANCH   4   5
ENDBRANCH   3   4
BRANCH   3  10
HETATM   10  C21 UNL     1      14.582  20.504  16.448  1.00  0.00     0.228 C 
BRANCH  10  11
HETATM   11  C22 UNL     1      13.356  20.022  17.162  1.00  0.00     0.237 C 
HETATM   12  O2  UNL     1      13.521  19.353  18.209  1.00  0.00    -0.272 OA
HETATM   13  N6  UNL     1      12.090  20.331  16.647  1.00  0.00    -0.349 N 
HETATM   14  C23 UNL     1      11.947  21.070  15.411  1.00  0.00     0.153 C 
BRANCH  13  15
HETATM   15  C24 UNL     1      10.864  19.956  17.349  1.00  0.00     0.182 C 
BRANCH  15  16
HETATM   16  C25 UNL     1      10.590  18.507  17.103  1.00  0.00     0.029 A 
HETATM   17  C26 UNL     1      10.011  18.045  15.942  1.00  0.00     0.059 A 
HETATM   18  C27 UNL     1       9.769  16.697  15.699  1.00  0.00     0.071 A 
HETATM   19  N7  UNL     1       9.244  15.963  14.707  1.00  0.00    -0.338 N 
HETATM   20  C30 UNL     1      10.130  15.794  16.677  1.00  0.00     0.119 A 
HETATM   21  C28 UNL     1       9.280  14.646  15.063  1.00  0.00     0.121 A 
ATOM     22  H7  UNL     1       8.876  16.330  13.830  1.00  0.00     0.168 HD
HETATM   23  C29 UNL     1       8.819  13.466  14.303  1.00  0.00     0.098 C 
HETATM   24  O3  UNL     1       9.824  14.589  16.263  1.00  0.00    -0.294 OA
HETATM   25  C31 UNL     1      10.707  16.276  17.833  1.00  0.00     0.127 A 
HETATM   26  N8  UNL     1      10.926  17.585  18.033  1.00  0.00    -0.365 N 
ATOM     27  H8  UNL     1      11.355  17.890  18.907  1.00  0.00     0.165 HD
ENDBRANCH  15  16
ENDBRANCH  13  15
ENDBRANCH  10  11
ENDBRANCH   3  10
BRANCH   1  28
HETATM   28  C16 UNL     1      17.580  22.415  17.944  1.00  0.00     0.254 C 
BRANCH  28  29
HETATM   29  N3  UNL     1      17.945  23.536  17.098  1.00  0.00    -0.256 N 
HETATM   30  C6  UNL     1      18.946  24.356  17.392  1.00  0.00     0.201 A 
HETATM   31  C7  UNL     1      19.225  25.434  16.494  1.00  0.00     0.035 A 
HETATM   32  C8  UNL     1      20.256  26.284  16.783  1.00  0.00     0.018 A 
HETATM   33  C13 UNL     1      18.485  25.615  15.364  1.00  0.00     0.003 A 
HETATM   34  C9  UNL     1      20.518  27.322  15.901  1.00  0.00     0.008 A 
HETATM   35  C10 UNL     1      19.776  27.516  14.755  1.00  0.00    -0.061 A 
HETATM   36  C11 UNL     1      20.099  28.657  13.826  1.00  0.00     0.048 C 
HETATM   37  C12 UNL     1      18.739  26.659  14.465  1.00  0.00     0.021 A 
HETATM   38  C14 UNL     1      17.455  24.722  15.118  1.00  0.00     0.033 A 
HETATM   39  C15 UNL     1      16.657  24.937  13.884  1.00  0.00     0.070 C 
HETATM   40  N2  UNL     1      17.241  23.734  15.994  1.00  0.00    -0.299 N 
ATOM     41  H2  UNL     1      16.478  23.086  15.798  1.00  0.00     0.187 HD
BRANCH  30  42
HETATM   42  N1  UNL     1      19.635  24.245  18.386  1.00  0.00    -0.423 NA
BRANCH  42  43
HETATM   43  C3  UNL     1      20.080  24.401  19.642  1.00  0.00     0.164 C 
BRANCH  43  44
HETATM   44  C2  UNL     1      21.486  24.988  19.801  1.00  0.00     0.035 C 
HETATM   45  C1  UNL     1      21.462  26.372  20.392  1.00  0.00     0.008 C 
ENDBRANCH  43  44
BRANCH  43  46
HETATM   46  C4  UNL     1      19.110  25.217  20.515  1.00  0.00     0.035 C 
HETATM   47  C5  UNL     1      17.918  24.414  20.925  1.00  0.00     0.008 C 
ENDBRANCH  43  46
ENDBRANCH  42  43
ENDBRANCH  30  42
ENDBRANCH  28  29
ENDBRANCH   1  28
TORSDOF 13
ENDMDL
MODEL 5
REMARK VINA RESULT: -8.965291011      0.864      1.237
REMARK  13 active torsions:
REMARK  status: ('A' for Active; 'I' for Inactive)
REMARK    1  A    between atoms: C2_2  and  C3_3 
REMARK    2  A    between atoms: C3_3  and  C4_4 
REMARK    3  A    between atoms: C3_3  and  N1_6 
REMARK    4  A    between atoms: N1_6  and  C6_7 
REMARK    5  A    between atoms: N3_19  and  C16_20 
REMARK    6  A    between atoms: C16_20  and  C17_21 
REMARK       I    between atoms: C17_21  and  N4_23 
REMARK    7  A    between atoms: N4_23  and  C18_24 
REMARK    8  A    between atoms: N4_23  and  C21_30 
REMARK    9  A    between atoms: C18_24  and  C19_25 
REMARK   10  A    between atoms: C19_25  and  N5_26 
REMARK   11  A    between atoms: C21_30  and  C22_31 
REMARK       I    between atoms: C22_31  and  N6_33 
REMARK   12  A    between atoms: N6_33  and  C24_35 
REMARK   13  A    between atoms: C24_35  and  C25_36 
ROOT
HETATM    1  C17 UNL     1      16.572  21.738  16.366  1.00  0.00     0.240 C 
HETATM    2  O1  UNL     1      17.262  20.678  16.410  1.00  0.00    -0.271 OA
HETATM    3  N4  UNL     1      15.188  21.674  16.654  1.00  0.00    -0.340 N 
ENDROOT
BRANCH   3   4
HETATM    4  C18 UNL     1      14.375  22.869  16.608  1.00  0.00     0.154 C 
BRANCH   4   5
HETATM    5  C19 UNL     1      14.574  23.532  15.261  1.00  0.00     0.251 C 
BRANCH   5   6
HETATM    6  N5  UNL     1      13.957  22.764  14.196  1.00  0.00    -0.077 N 
HETATM    7  C20 UNL     1      14.888  22.659  13.067  1.00  0.00     0.267 C 
ATOM      8  H52 UNL     1      13.634  21.851  14.517  1.00  0.00     0.276 HD
ATOM      9  H51 UNL     1      13.054  23.148  13.917  1.00  0.00     0.276 HD
ENDBRANCH   5   6
ENDBRANCH   4   5
ENDBRANCH   3   4
BRANCH   3  10
HETATM   10  C21 UNL     1      14.600  20.397  17.005  1.00  0.00     0.228 C 
BRANCH  10  11
HETATM   11  C22 UNL     1      13.115  20.418  16.811  1.00  0.00     0.237 C 
HETATM   12  O2  UNL     1      12.683  20.681  15.665  1.00  0.00    -0.272 OA
HETATM   13  N6  UNL     1      12.273  20.145  17.897  1.00  0.00    -0.349 N 
HETATM   14  C23 UNL     1      12.813  19.887  19.215  1.00  0.00     0.153 C 
BRANCH  13  15
HETATM   15  C24 UNL     1      10.821  20.071  17.743  1.00  0.00     0.182 C 
BRANCH  15  16
HETATM   16  C25 UNL     1      10.442  18.667  17.395  1.00  0.00     0.029 A 
HETATM   17  C26 UNL     1       9.949  17.776  18.321  1.00  0.00     0.059 A 
HETATM   18  C27 UNL     1       9.579  16.475  18.000  1.00  0.00     0.071 A 
HETATM   19  N7  UNL     1       9.083  15.412  18.652  1.00  0.00    -0.338 N 
HETATM   20  C30 UNL     1       9.720  16.072  16.688  1.00  0.00     0.119 A 
HETATM   21  C28 UNL     1       8.924  14.385  17.767  1.00  0.00     0.121 A 
ATOM     22  H7  UNL     1       8.862  15.377  19.647  1.00  0.00     0.168 HD
HETATM   23  C29 UNL     1       8.412  13.021  18.012  1.00  0.00     0.098 C 
HETATM   24  O3  UNL     1       9.322  14.827  16.591  1.00  0.00    -0.294 OA
HETATM   25  C31 UNL     1      10.217  16.978  15.775  1.00  0.00     0.127 A 
HETATM   26  N8  UNL     1      10.564  18.227  16.121  1.00  0.00    -0.365 N 
ATOM     27  H8  UNL     1      10.928  18.859  15.408  1.00  0.00     0.165 HD
ENDBRANCH  15  16
ENDBRANCH  13  15
ENDBRANCH  10  11
ENDBRANCH   3  10
BRANCH   1  28
HETATM   28  C16 UNL     1      17.267  23.000  16.010  1.00  0.00     0.254 C 
BRANCH  28  29
HETATM   29  N3  UNL     1      18.004  23.445  17.177  1.00  0.00    -0.256 N 
HETATM   30  C6  UNL     1      18.812  24.498  17.153  1.00  0.00     0.201 A 
HETATM   31  C7  UNL     1      19.497  24.855  18.358  1.00  0.00     0.035 A 
HETATM   32  C8  UNL     1      20.328  25.940  18.348  1.00  0.00     0.018 A 
HETATM   33  C13 UNL     1      19.324  24.134  19.502  1.00  0.00     0.003 A 
HETATM   34  C9  UNL     1      20.982  26.276  19.524  1.00  0.00     0.008 A 
HETATM   35  C10 UNL     1      20.817  25.556  20.688  1.00  0.00    -0.061 A 
HETATM   36  C11 UNL     1      21.547  25.960  21.941  1.00  0.00     0.048 C 
HETATM   37  C12 UNL     1      19.979  24.464  20.696  1.00  0.00     0.021 A 
HETATM   38  C14 UNL     1      18.467  23.047  19.457  1.00  0.00     0.033 A 
HETATM   39  C15 UNL     1      18.295  22.272  20.712  1.00  0.00     0.070 C 
HETATM   40  N2  UNL     1      17.856  22.762  18.302  1.00  0.00    -0.299 N 
ATOM     41  H2  UNL     1      17.228  21.958  18.286  1.00  0.00     0.187 HD
BRANCH  30  42
HETATM   42  N1  UNL     1      19.006  25.172  16.162  1.00  0.00    -0.423 NA
BRANCH  42  43
HETATM   43  C3  UNL     1      19.358  25.517  14.914  1.00  0.00     0.164 C 
BRANCH  43  44
HETATM   44  C2  UNL     1      18.482  26.566  14.222  1.00  0.00     0.035 C 
HETATM   45  C1  UNL     1      17.056  26.109  14.075  1.00  0.00     0.008 C 
ENDBRANCH  43  44
BRANCH  43  46
HETATM   46  C4  UNL     1      20.827  25.967  14.817  1.00  0.00     0.035 C 
HETATM   47  C5  UNL     1      20.943  27.433  14.549  1.00  0.00     0.008 C 
ENDBRANCH  43  46
ENDBRANCH  42  43
ENDBRANCH  30  42
ENDBRANCH  28  29
ENDBRANCH   1  28
TORSDOF 13
ENDMDL
