MODEL 1
REMARK VINA RESULT: -9.817004991      0.000      0.000
REMARK  13 active torsions:
REMARK  status: ('A' for Active; 'I' for Inactive)
REMARK    1  A    between atoms: C2_2  and  O1_3 
REMARK    2  A    between atoms: O1_3  and  C3_4 
REMARK    3  A    between atoms: C10_13  and  O2_14 
REMARK    4  A    between atoms: O2_14  and  C11_15 
REMARK    5  A    between atoms: C11_15  and  C12_16 
REMARK    6  A    between atoms: C12_16  and  C13_17 
REMARK    7  A    between atoms: C13_17  and  C14_18 
REMARK    8  A    between atoms: C14_18  and  O3_19 
REMARK    9  A    between atoms: O3_19  and  C15_20 
REMARK   10  A    between atoms: N2_22  and  O4_23 
REMARK   11  A    between atoms: C23_31  and  N3_32 
REMARK   12  A    between atoms: N3_32  and  C24_34 
REMARK   13  A    between atoms: C24_34  and  C25_35 
ROOT
HETATM    1  C3  UNL     1      17.188  25.488  15.691  1.00  0.00     0.083 A 
HETATM    2  C4  UNL     1      17.071  26.089  14.467  1.00  0.00     0.039 A 
HETATM    3  C5  UNL     1      18.053  26.901  13.958  1.00  0.00     0.021 A 
HETATM    4  C6  UNL     1      19.203  27.136  14.677  1.00  0.00     0.049 A 
HETATM    5  C7  UNL     1      19.376  26.548  15.933  1.00  0.00     0.065 A 
HETATM    6  C8  UNL     1      18.361  25.730  16.428  1.00  0.00     0.058 A 
HETATM    7  C9  UNL     1      18.432  25.045  17.689  1.00  0.00     0.122 A 
HETATM    8  N1  UNL     1      17.999  23.730  17.643  1.00  0.00    -0.322 N 
ATOM      9  H1  UNL     1      17.606  23.384  16.767  1.00  0.00     0.169 HD
HETATM   10  C10 UNL     1      18.064  22.895  18.669  1.00  0.00     0.147 A 
HETATM   11  C22 UNL     1      18.590  23.346  19.864  1.00  0.00     0.104 A 
HETATM   12  C23 UNL     1      19.025  24.654  19.928  1.00  0.00     0.107 A 
HETATM   13  N4  UNL     1      18.929  25.455  18.840  1.00  0.00    -0.328 N 
ATOM     14  H4  UNL     1      19.254  26.419  18.915  1.00  0.00     0.169 HD
HETATM   15  C26 UNL     1      20.688  26.932  16.421  1.00  0.00     0.262 A 
HETATM   16  O7  UNL     1      21.254  26.621  17.496  1.00  0.00    -0.267 OA
HETATM   17  N5  UNL     1      21.328  27.779  15.445  1.00  0.00    -0.284 N 
HETATM   18  C27 UNL     1      22.665  28.373  15.580  1.00  0.00     0.163 C 
HETATM   19  C28 UNL     1      20.418  27.901  14.384  1.00  0.00     0.261 A 
HETATM   20  O8  UNL     1      20.600  28.571  13.316  1.00  0.00    -0.267 OA
ENDROOT
BRANCH  10  21
HETATM   21  O2  UNL     1      17.634  21.579  18.638  1.00  0.00    -0.336 OA
BRANCH  21  22
HETATM   22  C11 UNL     1      16.324  21.336  18.143  1.00  0.00     0.177 C 
BRANCH  22  23
HETATM   23  C12 UNL     1      15.268  21.793  19.125  1.00  0.00     0.029 C 
BRANCH  23  24
HETATM   24  C13 UNL     1      14.107  22.326  18.314  1.00  0.00     0.029 C 
BRANCH  24  25
HETATM   25  C14 UNL     1      13.220  21.214  17.784  1.00  0.00     0.176 C 
BRANCH  25  26
HETATM   26  O3  UNL     1      12.730  20.447  18.844  1.00  0.00    -0.349 OA
BRANCH  26  27
HETATM   27  C15 UNL     1      11.771  19.474  18.685  1.00  0.00     0.092 A 
HETATM   28  C16 UNL     1      10.929  19.409  17.594  1.00  0.00     0.160 A 
HETATM   29  N2  UNL     1       9.996  18.454  17.450  1.00  0.00    -0.238 N 
HETATM   30  C17 UNL     1       9.844  17.493  18.398  1.00  0.00     0.036 A 
HETATM   31  C18 UNL     1       8.810  16.449  18.220  1.00  0.00     0.071 C 
HETATM   32  C19 UNL     1      10.666  17.525  19.502  1.00  0.00     0.036 A 
HETATM   33  C20 UNL     1      11.627  18.495  19.667  1.00  0.00    -0.025 A 
HETATM   34  C21 UNL     1      12.511  18.530  20.851  1.00  0.00     0.051 C 
BRANCH  29  35
HETATM   35  O4  UNL     1       9.157  18.394  16.355  1.00  0.00    -0.283 OA
ATOM     36  H4  UNL     1       9.366  17.889  15.577  1.00  0.00     0.245 HD
ENDBRANCH  29  35
ENDBRANCH  26  27
ENDBRANCH  25  26
ENDBRANCH  24  25
ENDBRANCH  23  24
ENDBRANCH  22  23
ENDBRANCH  21  22
ENDBRANCH  10  21
BRANCH  12  37
HETATM   37  N3  UNL     1      19.520  25.091  21.036  1.00  0.00    -0.366 N 
ATOM     38  H3  UNL     1      18.934  25.150  21.869  1.00  0.00     0.161 HD
BRANCH  37  39
HETATM   39  C24 UNL     1      20.902  25.496  21.094  1.00  0.00     0.234 C 
BRANCH  39  40
HETATM   40  C25 UNL     1      20.994  26.969  21.329  1.00  0.00     0.191 C 
HETATM   41  O5  UNL     1      21.578  27.415  22.340  1.00  0.00    -0.647 OA
HETATM   42  O6  UNL     1      20.435  27.894  20.432  1.00  0.00    -0.647 OA
ENDBRANCH  39  40
ENDBRANCH  37  39
ENDBRANCH  12  37
BRANCH   1  43
HETATM   43  O1  UNL     1      16.186  24.663  16.200  1.00  0.00    -0.350 OA
BRANCH  43  44
HETATM   44  C2  UNL     1      15.257  24.152  15.276  1.00  0.00     0.171 C 
HETATM   45  C1  UNL     1      15.517  22.736  14.853  1.00  0.00     0.034 C 
ENDBRANCH  43  44
ENDBRANCH   1  43
TORSDOF 13
ENDMDL
MODEL 2
REMARK VINA RESULT: -9.528387144      1.701      2.296
REMARK  13 active torsions:
REMARK  status: ('A' for Active; 'I' for Inactive)
REMARK    1  A    between atoms: C2_2  and  O1_3 
REMARK    2  A    between atoms: O1_3  and  C3_4 
REMARK    3  A    between atoms: C10_13  and  O2_14 
REMARK    4  A    between atoms: O2_14  and  C11_15 
REMARK    5  A    between atoms: C11_15  and  C12_16 
REMARK    6  A    between atoms: C12_16  and  C13_17 
REMARK    7  A    between atoms: C13_17  and  C14_18 
REMARK    8  A    between atoms: C14_18  and  O3_19 
REMARK    9  A    between atoms: O3_19  and  C15_20 
REMARK   10  A    between atoms: N2_22  and  O4_23 
REMARK   11  A    between atoms: C23_31  and  N3_32 
REMARK   12  A    between atoms: N3_32  and  C24_34 
REMARK   13  A    between atoms: C24_34  and  C25_35 
ROOT
HETATM    1  C3  UNL     1      17.324  25.591  15.911  1.00  0.00     0.083 A 
HETATM    2  C4  UNL     1      17.148  26.155  14.676  1.00  0.00     0.039 A 
HETATM    3  C5  UNL     1      18.100  26.959  14.101  1.00  0.00     0.021 A 
HETATM    4  C6  UNL     1      19.279  27.221  14.762  1.00  0.00     0.049 A 
HETATM    5  C7  UNL     1      19.511  26.671  16.025  1.00  0.00     0.065 A 
HETATM    6  C8  UNL     1      18.525  25.862  16.588  1.00  0.00     0.058 A 
HETATM    7  C9  UNL     1      18.657  25.214  17.864  1.00  0.00     0.122 A 
HETATM    8  N1  UNL     1      18.232  23.896  17.875  1.00  0.00    -0.322 N 
ATOM      9  H1  UNL     1      17.804  23.522  17.028  1.00  0.00     0.169 HD
HETATM   10  C10 UNL     1      18.348  23.091  18.921  1.00  0.00     0.147 A 
HETATM   11  C22 UNL     1      18.924  23.580  20.077  1.00  0.00     0.104 A 
HETATM   12  C23 UNL     1      19.352  24.892  20.085  1.00  0.00     0.107 A 
HETATM   13  N4  UNL     1      19.201  25.660  18.980  1.00  0.00    -0.328 N 
ATOM     14  H4  UNL     1      19.523  26.628  19.012  1.00  0.00     0.169 HD
HETATM   15  C26 UNL     1      20.842  27.077  16.444  1.00  0.00     0.262 A 
HETATM   16  O7  UNL     1      21.456  26.801  17.501  1.00  0.00    -0.267 OA
HETATM   17  N5  UNL     1      21.431  27.899  15.417  1.00  0.00    -0.284 N 
HETATM   18  C27 UNL     1      22.768  28.505  15.474  1.00  0.00     0.163 C 
HETATM   19  C28 UNL     1      20.475  27.985  14.394  1.00  0.00     0.261 A 
HETATM   20  O8  UNL     1      20.605  28.625  13.299  1.00  0.00    -0.267 OA
ENDROOT
BRANCH  10  21
HETATM   21  O2  UNL     1      17.928  21.772  18.947  1.00  0.00    -0.336 OA
BRANCH  21  22
HETATM   22  C11 UNL     1      16.603  21.505  18.504  1.00  0.00     0.177 C 
BRANCH  22  23
HETATM   23  C12 UNL     1      15.582  21.897  19.550  1.00  0.00     0.029 C 
BRANCH  23  24
HETATM   24  C13 UNL     1      14.236  21.952  18.859  1.00  0.00     0.029 C 
BRANCH  24  25
HETATM   25  C14 UNL     1      13.688  20.568  18.564  1.00  0.00     0.176 C 
BRANCH  25  26
HETATM   26  O3  UNL     1      12.440  20.669  17.945  1.00  0.00    -0.349 OA
BRANCH  26  27
HETATM   27  C15 UNL     1      12.230  20.352  16.623  1.00  0.00     0.092 A 
HETATM   28  C16 UNL     1      13.191  20.500  15.645  1.00  0.00     0.160 A 
HETATM   29  N2  UNL     1      12.975  20.186  14.357  1.00  0.00    -0.238 N 
HETATM   30  C17 UNL     1      11.770  19.700  13.961  1.00  0.00     0.036 A 
HETATM   31  C18 UNL     1      11.552  19.360  12.538  1.00  0.00     0.071 C 
HETATM   32  C19 UNL     1      10.784  19.538  14.909  1.00  0.00     0.036 A 
HETATM   33  C20 UNL     1      10.987  19.854  16.233  1.00  0.00    -0.025 A 
HETATM   34  C21 UNL     1       9.931  19.679  17.252  1.00  0.00     0.051 C 
BRANCH  29  35
HETATM   35  O4  UNL     1      13.942  20.337  13.383  1.00  0.00    -0.283 OA
ATOM     36  H4  UNL     1      14.224  19.619  12.827  1.00  0.00     0.245 HD
ENDBRANCH  29  35
ENDBRANCH  26  27
ENDBRANCH  25  26
ENDBRANCH  24  25
ENDBRANCH  23  24
ENDBRANCH  22  23
ENDBRANCH  21  22
ENDBRANCH  10  21
BRANCH  12  37
HETATM   37  N3  UNL     1      19.891  25.363  21.156  1.00  0.00    -0.366 N 
ATOM     38  H3  UNL     1      19.321  25.528  21.986  1.00  0.00     0.161 HD
BRANCH  37  39
HETATM   39  C24 UNL     1      21.303  25.657  21.180  1.00  0.00     0.234 C 
BRANCH  39  40
HETATM   40  C25 UNL     1      21.516  27.128  21.338  1.00  0.00     0.191 C 
HETATM   41  O5  UNL     1      22.470  27.561  22.019  1.00  0.00    -0.647 OA
HETATM   42  O6  UNL     1      20.663  28.065  20.731  1.00  0.00    -0.647 OA
ENDBRANCH  39  40
ENDBRANCH  37  39
ENDBRANCH  12  37
BRANCH   1  43
HETATM   43  O1  UNL     1      16.351  24.775  16.488  1.00  0.00    -0.350 OA
BRANCH  43  44
HETATM   44  C2  UNL     1      15.479  24.110  15.606  1.00  0.00     0.171 C 
HETATM   45  C1  UNL     1      15.982  22.784  15.118  1.00  0.00     0.034 C 
ENDBRANCH  43  44
ENDBRANCH   1  43
TORSDOF 13
ENDMDL
MODEL 3
REMARK VINA RESULT: -9.440217713      1.655      2.485
REMARK  13 active torsions:
REMARK  status: ('A' for Active; 'I' for Inactive)
REMARK    1  A    between atoms: C2_2  and  O1_3 
REMARK    2  A    between atoms: O1_3  and  C3_4 
REMARK    3  A    between atoms: C10_13  and  O2_14 
REMARK    4  A    between atoms: O2_14  and  C11_15 
REMARK    5  A    between atoms: C11_15  and  C12_16 
REMARK    6  A    between atoms: C12_16  and  C13_17 
REMARK    7  A    between atoms: C13_17  and  C14_18 
REMARK    8  A    between atoms: C14_18  and  O3_19 
REMARK    9  A    between atoms: O3_19  and  C15_20 
REMARK   10  A    between atoms: N2_22  and  O4_23 
REMARK   11  A    between atoms: C23_31  and  N3_32 
REMARK   12  A    between atoms: N3_32  and  C24_34 
REMARK   13  A    between atoms: C24_34  and  C25_35 
ROOT
HETATM    1  C3  UNL     1      18.499  26.752  15.485  1.00  0.00     0.083 A 
HETATM    2  C4  UNL     1      18.641  27.532  14.369  1.00  0.00     0.039 A 
HETATM    3  C5  UNL     1      19.785  28.247  14.122  1.00  0.00     0.021 A 
HETATM    4  C6  UNL     1      20.840  28.196  15.004  1.00  0.00     0.049 A 
HETATM    5  C7  UNL     1      20.750  27.415  16.159  1.00  0.00     0.065 A 
HETATM    6  C8  UNL     1      19.574  26.702  16.388  1.00  0.00     0.058 A 
HETATM    7  C9  UNL     1      19.371  25.842  17.521  1.00  0.00     0.122 A 
HETATM    8  N1  UNL     1      18.777  24.630  17.210  1.00  0.00    -0.322 N 
ATOM      9  H1  UNL     1      18.472  24.477  16.249  1.00  0.00     0.169 HD
HETATM   10  C10 UNL     1      18.581  23.657  18.087  1.00  0.00     0.147 A 
HETATM   11  C22 UNL     1      18.986  23.846  19.394  1.00  0.00     0.104 A 
HETATM   12  C23 UNL     1      19.578  25.048  19.722  1.00  0.00     0.107 A 
HETATM   13  N4  UNL     1      19.747  26.002  18.775  1.00  0.00    -0.328 N 
ATOM     14  H4  UNL     1      20.185  26.883  19.044  1.00  0.00     0.169 HD
HETATM   15  C26 UNL     1      22.019  27.518  16.859  1.00  0.00     0.262 A 
HETATM   16  O7  UNL     1      22.377  26.974  17.930  1.00  0.00    -0.267 OA
HETATM   17  N5  UNL     1      22.900  28.387  16.119  1.00  0.00    -0.284 N 
HETATM   18  C27 UNL     1      24.271  28.742  16.509  1.00  0.00     0.163 C 
HETATM   19  C28 UNL     1      22.177  28.798  14.989  1.00  0.00     0.261 A 
HETATM   20  O8  UNL     1      22.599  29.578  14.073  1.00  0.00    -0.267 OA
ENDROOT
BRANCH  10  21
HETATM   21  O2  UNL     1      17.988  22.441  17.792  1.00  0.00    -0.336 OA
BRANCH  21  22
HETATM   22  C11 UNL     1      17.110  21.894  18.767  1.00  0.00     0.177 C 
BRANCH  22  23
HETATM   23  C12 UNL     1      15.969  21.139  18.121  1.00  0.00     0.029 C 
BRANCH  23  24
HETATM   24  C13 UNL     1      14.715  21.476  18.900  1.00  0.00     0.029 C 
BRANCH  24  25
HETATM   25  C14 UNL     1      13.661  20.391  18.785  1.00  0.00     0.176 C 
BRANCH  25  26
HETATM   26  O3  UNL     1      13.576  19.945  17.463  1.00  0.00    -0.349 OA
BRANCH  26  27
HETATM   27  C15 UNL     1      12.504  20.221  16.646  1.00  0.00     0.092 A 
HETATM   28  C16 UNL     1      11.194  19.978  17.003  1.00  0.00     0.160 A 
HETATM   29  N2  UNL     1      10.156  20.251  16.196  1.00  0.00    -0.238 N 
HETATM   30  C17 UNL     1      10.364  20.792  14.967  1.00  0.00     0.036 A 
HETATM   31  C18 UNL     1       9.207  21.086  14.094  1.00  0.00     0.071 C 
HETATM   32  C19 UNL     1      11.659  21.050  14.575  1.00  0.00     0.036 A 
HETATM   33  C20 UNL     1      12.735  20.776  15.387  1.00  0.00    -0.025 A 
HETATM   34  C21 UNL     1      14.125  21.053  14.968  1.00  0.00     0.051 C 
BRANCH  29  35
HETATM   35  O4  UNL     1       8.847  20.005  16.560  1.00  0.00    -0.283 OA
ATOM     36  H4  UNL     1       8.135  20.593  16.337  1.00  0.00     0.245 HD
ENDBRANCH  29  35
ENDBRANCH  26  27
ENDBRANCH  25  26
ENDBRANCH  24  25
ENDBRANCH  23  24
ENDBRANCH  22  23
ENDBRANCH  21  22
ENDBRANCH  10  21
BRANCH  12  37
HETATM   37  N3  UNL     1      19.962  25.241  20.938  1.00  0.00    -0.366 N 
ATOM     38  H3  UNL     1      19.315  25.080  21.710  1.00  0.00     0.161 HD
BRANCH  37  39
HETATM   39  C24 UNL     1      21.308  25.685  21.204  1.00  0.00     0.234 C 
BRANCH  39  40
HETATM   40  C25 UNL     1      21.297  27.108  21.658  1.00  0.00     0.191 C 
HETATM   41  O5  UNL     1      21.705  27.413  22.799  1.00  0.00    -0.647 OA
HETATM   42  O6  UNL     1      20.834  28.142  20.828  1.00  0.00    -0.647 OA
ENDBRANCH  39  40
ENDBRANCH  37  39
ENDBRANCH  12  37
BRANCH   1  43
HETATM   43  O1  UNL     1      17.332  26.027  15.728  1.00  0.00    -0.350 OA
BRANCH  43  44
HETATM   44  C2  UNL     1      16.544  25.702  14.609  1.00  0.00     0.171 C 
HETATM   45  C1  UNL     1      15.720  24.459  14.770  1.00  0.00     0.034 C 
ENDBRANCH  43  44
ENDBRANCH   1  43
TORSDOF 13
ENDMDL
MODEL 4
REMARK VINA RESULT: -9.434442552      1.051      1.497
REMARK  13 active torsions:
REMARK  status: ('A' for Active; 'I' for Inactive)
REMARK    1  A    between atoms: C2_2  and  O1_3 
REMARK    2  A    between atoms: O1_3  and  C3_4 
REMARK    3  A    between atoms: C10_13  and  O2_14 
REMARK    4  A    between atoms: O2_14  and  C11_15 
REMARK    5  A    between atoms: C11_15  and  C12_16 
REMARK    6  A    between atoms: C12_16  and  C13_17 
REMARK    7  A    between atoms: C13_17  and  C14_18 
REMARK    8  A    between atoms: C14_18  and  O3_19 
REMARK    9  A    between atoms: O3_19  and  C15_20 
REMARK   10  A    between atoms: N2_22  and  O4_23 
REMARK   11  A    between atoms: C23_31  and  N3_32 
REMARK   12  A    between atoms: N3_32  and  C24_34 
REMARK   13  A    between atoms: C24_34  and  C25_35 
ROOT
HETATM    1  C3  UNL     1      17.322  25.564  15.972  1.00  0.00     0.083 A 
HETATM    2  C4  UNL     1      17.118  26.094  14.726  1.00  0.00     0.039 A 
HETATM    3  C5  UNL     1      18.037  26.917  14.125  1.00  0.00     0.021 A 
HETATM    4  C6  UNL     1      19.210  27.236  14.771  1.00  0.00     0.049 A 
HETATM    5  C7  UNL     1      19.471  26.723  16.045  1.00  0.00     0.065 A 
HETATM    6  C8  UNL     1      18.518  25.893  16.633  1.00  0.00     0.058 A 
HETATM    7  C9  UNL     1      18.682  25.280  17.922  1.00  0.00     0.122 A 
HETATM    8  N1  UNL     1      18.304  23.948  17.967  1.00  0.00    -0.322 N 
ATOM      9  H1  UNL     1      17.884  23.540  17.132  1.00  0.00     0.169 HD
HETATM   10  C10 UNL     1      18.456  23.173  19.030  1.00  0.00     0.147 A 
HETATM   11  C22 UNL     1      19.022  23.708  20.170  1.00  0.00     0.104 A 
HETATM   12  C23 UNL     1      19.402  25.034  20.145  1.00  0.00     0.107 A 
HETATM   13  N4  UNL     1      19.217  25.771  19.024  1.00  0.00    -0.328 N 
ATOM     14  H4  UNL     1      19.504  26.750  19.032  1.00  0.00     0.169 HD
HETATM   15  C26 UNL     1      20.788  27.186  16.443  1.00  0.00     0.262 A 
HETATM   16  O7  UNL     1      21.420  26.957  17.502  1.00  0.00    -0.267 OA
HETATM   17  N5  UNL     1      21.341  28.005  15.393  1.00  0.00    -0.284 N 
HETATM   18  C27 UNL     1      22.656  28.659  15.427  1.00  0.00     0.163 C 
HETATM   19  C28 UNL     1      20.375  28.033  14.376  1.00  0.00     0.261 A 
HETATM   20  O8  UNL     1      20.475  28.652  13.266  1.00  0.00    -0.267 OA
ENDROOT
BRANCH  10  21
HETATM   21  O2  UNL     1      18.083  21.841  19.089  1.00  0.00    -0.336 OA
BRANCH  21  22
HETATM   22  C11 UNL     1      16.800  21.503  18.577  1.00  0.00     0.177 C 
BRANCH  22  23
HETATM   23  C12 UNL     1      15.700  21.899  19.537  1.00  0.00     0.029 C 
BRANCH  23  24
HETATM   24  C13 UNL     1      14.451  22.129  18.713  1.00  0.00     0.029 C 
BRANCH  24  25
HETATM   25  C14 UNL     1      14.082  20.913  17.883  1.00  0.00     0.176 C 
BRANCH  25  26
HETATM   26  O3  UNL     1      12.739  20.983  17.504  1.00  0.00    -0.349 OA
BRANCH  26  27
HETATM   27  C15 UNL     1      11.848  19.954  17.707  1.00  0.00     0.092 A 
HETATM   28  C16 UNL     1      11.619  19.379  18.939  1.00  0.00     0.160 A 
HETATM   29  N2  UNL     1      10.748  18.375  19.125  1.00  0.00    -0.238 N 
HETATM   30  C17 UNL     1      10.041  17.876  18.077  1.00  0.00     0.036 A 
HETATM   31  C18 UNL     1       9.085  16.770  18.302  1.00  0.00     0.071 C 
HETATM   32  C19 UNL     1      10.242  18.424  16.830  1.00  0.00     0.036 A 
HETATM   33  C20 UNL     1      11.132  19.453  16.620  1.00  0.00    -0.025 A 
HETATM   34  C21 UNL     1      11.347  20.043  15.283  1.00  0.00     0.051 C 
BRANCH  29  35
HETATM   35  O4  UNL     1      10.523  17.805  20.362  1.00  0.00    -0.283 OA
ATOM     36  H4  UNL     1      10.090  18.270  21.069  1.00  0.00     0.245 HD
ENDBRANCH  29  35
ENDBRANCH  26  27
ENDBRANCH  25  26
ENDBRANCH  24  25
ENDBRANCH  23  24
ENDBRANCH  22  23
ENDBRANCH  21  22
ENDBRANCH  10  21
BRANCH  12  37
HETATM   37  N3  UNL     1      19.932  25.549  21.201  1.00  0.00    -0.366 N 
ATOM     38  H3  UNL     1      19.357  25.734  22.023  1.00  0.00     0.161 HD
BRANCH  37  39
HETATM   39  C24 UNL     1      21.339  25.863  21.219  1.00  0.00     0.234 C 
BRANCH  39  40
HETATM   40  C25 UNL     1      21.540  27.325  20.987  1.00  0.00     0.191 C 
HETATM   41  O5  UNL     1      22.690  27.792  20.843  1.00  0.00    -0.647 OA
HETATM   42  O6  UNL     1      20.456  28.216  20.922  1.00  0.00    -0.647 OA
ENDBRANCH  39  40
ENDBRANCH  37  39
ENDBRANCH  12  37
BRANCH   1  43
HETATM   43  O1  UNL     1      16.383  24.728  16.574  1.00  0.00    -0.350 OA
BRANCH  43  44
HETATM   44  C2  UNL     1      15.483  24.068  15.719  1.00  0.00     0.171 C 
HETATM   45  C1  UNL     1      15.954  22.728  15.237  1.00  0.00     0.034 C 
ENDBRANCH  43  44
ENDBRANCH   1  43
TORSDOF 13
ENDMDL
MODEL 5
REMARK VINA RESULT: -9.278629274      1.417      1.890
REMARK  13 active torsions:
REMARK  status: ('A' for Active; 'I' for Inactive)
REMARK    1  A    between atoms: C2_2  and  O1_3 
REMARK    2  A    between atoms: O1_3  and  C3_4 
REMARK    3  A    between atoms: C10_13  and  O2_14 
REMARK    4  A    between atoms: O2_14  and  C11_15 
REMARK    5  A    between atoms: C11_15  and  C12_16 
REMARK    6  A    between atoms: C12_16  and  C13_17 
REMARK    7  A    between atoms: C13_17  and  C14_18 
REMARK    8  A    between atoms: C14_18  and  O3_19 
REMARK    9  A    between atoms: O3_19  and  C15_20 
REMARK   10  A    between atoms: N2_22  and  O4_23 
REMARK   11  A    between atoms: C23_31  and  N3_32 
REMARK   12  A    between atoms: N3_32  and  C24_34 
REMARK   13  A    between atoms: C24_34  and  C25_35 
ROOT
HETATM    1  C3  UNL     1      16.681  25.120  15.093  1.00  0.00     0.083 A 
HETATM    2  C4  UNL     1      16.701  25.780  13.893  1.00  0.00     0.039 A 
HETATM    3  C5  UNL     1      17.663  26.711  13.591  1.00  0.00     0.021 A 
HETATM    4  C6  UNL     1      18.651  27.010  14.501  1.00  0.00     0.049 A 
HETATM    5  C7  UNL     1      18.679  26.366  15.741  1.00  0.00     0.065 A 
HETATM    6  C8  UNL     1      17.688  25.428  16.024  1.00  0.00     0.058 A 
HETATM    7  C9  UNL     1      17.626  24.678  17.248  1.00  0.00     0.122 A 
HETATM    8  N1  UNL     1      17.344  23.333  17.074  1.00  0.00    -0.322 N 
ATOM      9  H1  UNL     1      17.136  23.004  16.130  1.00  0.00     0.169 HD
HETATM   10  C10 UNL     1      17.329  22.448  18.059  1.00  0.00     0.147 A 
HETATM   11  C22 UNL     1      17.607  22.874  19.343  1.00  0.00     0.104 A 
HETATM   12  C23 UNL     1      17.888  24.211  19.536  1.00  0.00     0.107 A 
HETATM   13  N4  UNL     1      17.886  25.063  18.483  1.00  0.00    -0.328 N 
ATOM     14  H4  UNL     1      18.094  26.047  18.653  1.00  0.00     0.169 HD
HETATM   15  C26 UNL     1      19.849  26.843  16.457  1.00  0.00     0.262 A 
HETATM   16  O7  UNL     1      20.264  26.524  17.596  1.00  0.00    -0.267 OA
HETATM   17  N5  UNL     1      20.546  27.805  15.639  1.00  0.00    -0.284 N 
HETATM   18  C27 UNL     1      21.776  28.514  16.019  1.00  0.00     0.163 C 
HETATM   19  C28 UNL     1      19.812  27.903  14.448  1.00  0.00     0.261 A 
HETATM   20  O8  UNL     1      20.093  28.651  13.455  1.00  0.00    -0.267 OA
ENDROOT
BRANCH  10  21
HETATM   21  O2  UNL     1      17.049  21.101  17.899  1.00  0.00    -0.336 OA
BRANCH  21  22
HETATM   22  C11 UNL     1      15.770  20.762  17.380  1.00  0.00     0.177 C 
BRANCH  22  23
HETATM   23  C12 UNL     1      14.660  21.242  18.288  1.00  0.00     0.029 C 
BRANCH  23  24
HETATM   24  C13 UNL     1      13.554  21.771  17.400  1.00  0.00     0.029 C 
BRANCH  24  25
HETATM   25  C14 UNL     1      13.097  20.743  16.381  1.00  0.00     0.176 C 
BRANCH  25  26
HETATM   26  O3  UNL     1      11.701  20.682  16.356  1.00  0.00    -0.349 OA
BRANCH  26  27
HETATM   27  C15 UNL     1      10.988  19.608  16.834  1.00  0.00     0.092 A 
HETATM   28  C16 UNL     1      10.830  19.340  18.178  1.00  0.00     0.160 A 
HETATM   29  N2  UNL     1      10.132  18.287  18.634  1.00  0.00    -0.238 N 
HETATM   30  C17 UNL     1       9.541  17.426  17.765  1.00  0.00     0.036 A 
HETATM   31  C18 UNL     1       8.776  16.272  18.287  1.00  0.00     0.071 C 
HETATM   32  C19 UNL     1       9.677  17.661  16.414  1.00  0.00     0.036 A 
HETATM   33  C20 UNL     1      10.388  18.733  15.929  1.00  0.00    -0.025 A 
HETATM   34  C21 UNL     1      10.534  18.987  14.480  1.00  0.00     0.051 C 
BRANCH  29  35
HETATM   35  O4  UNL     1       9.977  18.024  19.981  1.00  0.00    -0.283 OA
ATOM     36  H4  UNL     1       9.617  17.207  20.304  1.00  0.00     0.245 HD
ENDBRANCH  29  35
ENDBRANCH  26  27
ENDBRANCH  25  26
ENDBRANCH  24  25
ENDBRANCH  23  24
ENDBRANCH  22  23
ENDBRANCH  21  22
ENDBRANCH  10  21
BRANCH  12  37
HETATM   37  N3  UNL     1      18.150  24.625  20.728  1.00  0.00    -0.366 N 
ATOM     38  H3  UNL     1      17.460  25.174  21.242  1.00  0.00     0.161 HD
BRANCH  37  39
HETATM   39  C24 UNL     1      19.420  24.312  21.334  1.00  0.00     0.234 C 
BRANCH  39  40
HETATM   40  C25 UNL     1      20.465  25.267  20.855  1.00  0.00     0.191 C 
HETATM   41  O5  UNL     1      21.487  24.848  20.271  1.00  0.00    -0.647 OA
HETATM   42  O6  UNL     1      20.337  26.653  21.042  1.00  0.00    -0.647 OA
ENDBRANCH  39  40
ENDBRANCH  37  39
ENDBRANCH  12  37
BRANCH   1  43
HETATM   43  O1  UNL     1      15.701  24.174  15.392  1.00  0.00    -0.350 OA
BRANCH  43  44
HETATM   44  C2  UNL     1      14.787  23.865  14.368  1.00  0.00     0.171 C 
HETATM   45  C1  UNL     1      14.946  22.491  13.788  1.00  0.00     0.034 C 
ENDBRANCH  43  44
ENDBRANCH   1  43
TORSDOF 13
ENDMDL
