MODEL 1
REMARK VINA RESULT: -8.878095495      0.000      0.000
REMARK  3 active torsions:
REMARK  status: ('A' for Active; 'I' for Inactive)
REMARK    1  A    between atoms: C1_2  and  C2_4 
REMARK    2  A    between atoms: C5_7  and  N1_8 
REMARK    3  A    between atoms: N1_8  and  C6_10 
ROOT
HETATM    1  N1  UNL     1      34.594   4.369  24.248  1.00  0.00    -0.413 N 
ATOM      2  H1  UNL     1      34.846   4.517  23.271  1.00  0.00     0.154 HD
ENDROOT
BRANCH   1   3
HETATM    3  C5  UNL     1      34.243   3.071  24.762  1.00  0.00     0.077 C 
HETATM    4  C4  UNL     1      35.000   1.972  24.036  1.00  0.00     0.025 C 
HETATM    5  C3  UNL     1      35.700   1.024  25.005  1.00  0.00     0.012 C 
HETATM    6  C2  UNL     1      34.707   0.509  26.019  1.00  0.00     0.051 C 
HETATM    7  C14 UNL     1      34.310   1.693  26.870  1.00  0.00     0.012 C 
HETATM    8  C13 UNL     1      34.586   3.023  26.229  1.00  0.00     0.025 C 
BRANCH   6   9
HETATM    9  C1  UNL     1      35.338  -0.583  26.832  1.00  0.00     0.357 C 
HETATM   10  F1  UNL     1      36.693  -0.663  26.581  1.00  0.00    -0.214 F 
HETATM   11  F2  UNL     1      34.816  -1.830  26.545  1.00  0.00    -0.214 F 
ENDBRANCH   6   9
ENDBRANCH   1   3
BRANCH   1  12
HETATM   12  C6  UNL     1      34.566   5.434  25.195  1.00  0.00     0.078 C 
HETATM   13  C7  UNL     1      35.896   5.758  25.882  1.00  0.00     0.040 C 
HETATM   14  C8  UNL     1      35.673   7.171  25.479  1.00  0.00     0.029 C 
HETATM   15  C9  UNL     1      36.767   7.998  24.950  1.00  0.00     0.021 C 
HETATM   16  C11 UNL     1      35.403   8.180  26.535  1.00  0.00     0.251 C 
HETATM   17  C12 UNL     1      34.565   6.790  24.546  1.00  0.00     0.040 C 
HETATM   18  C10 UNL     1      36.128   9.209  25.653  1.00  0.00     0.081 C 
HETATM   19  F3  UNL     1      36.191   7.982  27.672  1.00  0.00    -0.205 F 
HETATM   20  F4  UNL     1      34.113   8.484  26.832  1.00  0.00    -0.205 F 
ENDBRANCH   1  12
TORSDOF 3
ENDMDL
MODEL 2
REMARK VINA RESULT: -8.077957393      1.131      6.961
REMARK  3 active torsions:
REMARK  status: ('A' for Active; 'I' for Inactive)
REMARK    1  A    between atoms: C1_2  and  C2_4 
REMARK    2  A    between atoms: C5_7  and  N1_8 
REMARK    3  A    between atoms: N1_8  and  C6_10 
ROOT
HETATM    1  N1  UNL     1      34.414   4.377  24.132  1.00  0.00    -0.413 N 
ATOM      2  H1  UNL     1      33.727   4.128  23.421  1.00  0.00     0.154 HD
ENDROOT
BRANCH   1   3
HETATM    3  C5  UNL     1      34.860   5.732  24.327  1.00  0.00     0.077 C 
HETATM    4  C4  UNL     1      33.710   6.631  24.747  1.00  0.00     0.025 C 
HETATM    5  C3  UNL     1      34.043   7.435  26.001  1.00  0.00     0.012 C 
HETATM    6  C2  UNL     1      35.347   8.170  25.802  1.00  0.00     0.051 C 
HETATM    7  C14 UNL     1      36.427   7.116  25.733  1.00  0.00     0.012 C 
HETATM    8  C13 UNL     1      35.917   5.742  25.402  1.00  0.00     0.025 C 
BRANCH   6   9
HETATM    9  C1  UNL     1      35.565   9.127  26.937  1.00  0.00     0.357 C 
HETATM   10  F1  UNL     1      36.099   8.477  28.032  1.00  0.00    -0.214 F 
HETATM   11  F2  UNL     1      34.393   9.716  27.370  1.00  0.00    -0.214 F 
ENDBRANCH   6   9
ENDBRANCH   1   3
BRANCH   1  12
HETATM   12  C6  UNL     1      34.997   3.406  24.999  1.00  0.00     0.078 C 
HETATM   13  C7  UNL     1      34.026   2.651  25.911  1.00  0.00     0.040 C 
HETATM   14  C8  UNL     1      34.639   1.398  25.399  1.00  0.00     0.029 C 
HETATM   15  C9  UNL     1      33.816   0.231  25.047  1.00  0.00     0.021 C 
HETATM   16  C11 UNL     1      35.445   0.566  26.328  1.00  0.00     0.251 C 
HETATM   17  C12 UNL     1      35.337   2.125  24.291  1.00  0.00     0.040 C 
HETATM   18  C10 UNL     1      34.960  -0.668  25.550  1.00  0.00     0.081 C 
HETATM   19  F3  UNL     1      34.880   0.497  27.604  1.00  0.00    -0.205 F 
HETATM   20  F4  UNL     1      36.792   0.737  26.355  1.00  0.00    -0.205 F 
ENDBRANCH   1  12
TORSDOF 3
ENDMDL
MODEL 3
REMARK VINA RESULT: -8.063083977      1.344      1.922
REMARK  3 active torsions:
REMARK  status: ('A' for Active; 'I' for Inactive)
REMARK    1  A    between atoms: C1_2  and  C2_4 
REMARK    2  A    between atoms: C5_7  and  N1_8 
REMARK    3  A    between atoms: N1_8  and  C6_10 
ROOT
HETATM    1  N1  UNL     1      34.015   4.180  24.753  1.00  0.00    -0.413 N 
ATOM      2  H1  UNL     1      33.157   4.102  24.205  1.00  0.00     0.154 HD
ENDROOT
BRANCH   1   3
HETATM    3  C5  UNL     1      34.361   3.230  25.777  1.00  0.00     0.077 C 
HETATM    4  C4  UNL     1      33.313   2.136  25.884  1.00  0.00     0.025 C 
HETATM    5  C3  UNL     1      33.934   0.743  25.829  1.00  0.00     0.012 C 
HETATM    6  C2  UNL     1      35.033   0.634  26.859  1.00  0.00     0.051 C 
HETATM    7  C14 UNL     1      36.139   1.558  26.405  1.00  0.00     0.012 C 
HETATM    8  C13 UNL     1      35.691   2.611  25.430  1.00  0.00     0.025 C 
BRANCH   6   9
HETATM    9  C1  UNL     1      35.494  -0.790  26.957  1.00  0.00     0.357 C 
HETATM   10  F1  UNL     1      36.755  -0.937  26.416  1.00  0.00    -0.214 F 
HETATM   11  F2  UNL     1      34.673  -1.664  26.270  1.00  0.00    -0.214 F 
ENDBRANCH   6   9
ENDBRANCH   1   3
BRANCH   1  12
HETATM   12  C6  UNL     1      34.948   5.240  24.554  1.00  0.00     0.078 C 
HETATM   13  C7  UNL     1      34.349   6.611  24.230  1.00  0.00     0.040 C 
HETATM   14  C8  UNL     1      35.181   7.151  25.336  1.00  0.00     0.029 C 
HETATM   15  C9  UNL     1      34.644   8.133  26.289  1.00  0.00     0.021 C 
HETATM   16  C11 UNL     1      36.302   8.068  25.004  1.00  0.00     0.251 C 
HETATM   17  C12 UNL     1      35.499   5.779  25.844  1.00  0.00     0.040 C 
HETATM   18  C10 UNL     1      36.043   8.775  26.343  1.00  0.00     0.081 C 
HETATM   19  F3  UNL     1      35.969   8.968  23.989  1.00  0.00    -0.205 F 
HETATM   20  F4  UNL     1      37.549   7.548  24.859  1.00  0.00    -0.205 F 
ENDBRANCH   1  12
TORSDOF 3
ENDMDL
MODEL 4
REMARK VINA RESULT: -8.061650106      1.985      7.141
REMARK  3 active torsions:
REMARK  status: ('A' for Active; 'I' for Inactive)
REMARK    1  A    between atoms: C1_2  and  C2_4 
REMARK    2  A    between atoms: C5_7  and  N1_8 
REMARK    3  A    between atoms: N1_8  and  C6_10 
ROOT
HETATM    1  N1  UNL     1      35.800   5.604  25.075  1.00  0.00    -0.413 N 
ATOM      2  H1  UNL     1      36.426   5.338  24.314  1.00  0.00     0.154 HD
ENDROOT
BRANCH   1   3
HETATM    3  C5  UNL     1      35.654   6.970  25.506  1.00  0.00     0.077 C 
HETATM    4  C4  UNL     1      34.255   7.486  25.221  1.00  0.00     0.025 C 
HETATM    5  C3  UNL     1      33.614   8.113  26.456  1.00  0.00     0.012 C 
HETATM    6  C2  UNL     1      34.539   9.156  27.035  1.00  0.00     0.051 C 
HETATM    7  C14 UNL     1      35.742   8.413  27.569  1.00  0.00     0.012 C 
HETATM    8  C13 UNL     1      35.915   7.038  26.990  1.00  0.00     0.025 C 
BRANCH   6   9
HETATM    9  C1  UNL     1      33.826   9.922  28.110  1.00  0.00     0.357 C 
HETATM   10  F1  UNL     1      32.618   9.328  28.418  1.00  0.00    -0.214 F 
HETATM   11  F2  UNL     1      33.536  11.220  27.736  1.00  0.00    -0.214 F 
ENDBRANCH   6   9
ENDBRANCH   1   3
BRANCH   1  12
HETATM   12  C6  UNL     1      35.015   4.647  25.782  1.00  0.00     0.078 C 
HETATM   13  C7  UNL     1      34.338   3.571  24.928  1.00  0.00     0.040 C 
HETATM   14  C8  UNL     1      34.944   2.571  25.845  1.00  0.00     0.029 C 
HETATM   15  C9  UNL     1      35.549   1.332  25.334  1.00  0.00     0.021 C 
HETATM   16  C11 UNL     1      34.050   1.783  26.733  1.00  0.00     0.251 C 
HETATM   17  C12 UNL     1      35.849   3.595  26.458  1.00  0.00     0.040 C 
HETATM   18  C10 UNL     1      35.045   0.619  26.602  1.00  0.00     0.081 C 
HETATM   19  F3  UNL     1      32.872   1.395  26.091  1.00  0.00    -0.205 F 
HETATM   20  F4  UNL     1      33.841   2.222  28.001  1.00  0.00    -0.205 F 
ENDBRANCH   1  12
TORSDOF 3
ENDMDL
MODEL 5
REMARK VINA RESULT: -7.876560119      0.922      1.404
REMARK  3 active torsions:
REMARK  status: ('A' for Active; 'I' for Inactive)
REMARK    1  A    between atoms: C1_2  and  C2_4 
REMARK    2  A    between atoms: C5_7  and  N1_8 
REMARK    3  A    between atoms: N1_8  and  C6_10 
ROOT
HETATM    1  N1  UNL     1      34.824   4.470  24.206  1.00  0.00    -0.413 N 
ATOM      2  H1  UNL     1      34.711   4.608  23.202  1.00  0.00     0.154 HD
ENDROOT
BRANCH   1   3
HETATM    3  C5  UNL     1      34.413   3.257  24.865  1.00  0.00     0.077 C 
HETATM    4  C4  UNL     1      34.788   2.035  24.045  1.00  0.00     0.025 C 
HETATM    5  C3  UNL     1      35.550   1.004  24.872  1.00  0.00     0.012 C 
HETATM    6  C2  UNL     1      34.770   0.679  26.123  1.00  0.00     0.051 C 
HETATM    7  C14 UNL     1      34.783   1.928  26.973  1.00  0.00     0.012 C 
HETATM    8  C13 UNL     1      35.096   3.182  26.207  1.00  0.00     0.025 C 
BRANCH   6   9
HETATM    9  C1  UNL     1      35.404  -0.487  26.824  1.00  0.00     0.357 C 
HETATM   10  F1  UNL     1      36.740  -0.593  26.492  1.00  0.00    -0.214 F 
HETATM   11  F2  UNL     1      34.823  -1.693  26.485  1.00  0.00    -0.214 F 
ENDBRANCH   6   9
ENDBRANCH   1   3
BRANCH   1  12
HETATM   12  C6  UNL     1      35.399   5.465  25.050  1.00  0.00     0.078 C 
HETATM   13  C7  UNL     1      35.340   6.903  24.529  1.00  0.00     0.040 C 
HETATM   14  C8  UNL     1      34.743   7.272  25.839  1.00  0.00     0.029 C 
HETATM   15  C9  UNL     1      33.609   8.203  25.928  1.00  0.00     0.021 C 
HETATM   16  C11 UNL     1      35.531   8.123  26.767  1.00  0.00     0.251 C 
HETATM   17  C12 UNL     1      34.507   5.838  26.200  1.00  0.00     0.040 C 
HETATM   18  C10 UNL     1      34.202   8.724  27.250  1.00  0.00     0.081 C 
HETATM   19  F3  UNL     1      36.225   9.136  26.100  1.00  0.00    -0.205 F 
HETATM   20  F4  UNL     1      36.275   7.521  27.731  1.00  0.00    -0.205 F 
ENDBRANCH   1  12
TORSDOF 3
ENDMDL
