MODEL 1
REMARK VINA RESULT: -4.227654096      0.000      0.000
REMARK  5 active torsions:
REMARK  status: ('A' for Active; 'I' for Inactive)
REMARK    1  A    between atoms: C2_2  and  N1_3 
REMARK    2  A    between atoms: C3_6  and  O1_7 
REMARK    3  A    between atoms: C3_6  and  N2_9 
REMARK       I    between atoms: N3_15  and  C9_16 
REMARK    4  A    between atoms: C9_16  and  O3_18 
REMARK    5  A    between atoms: O3_18  and  C10_19 
ROOT
HETATM    1  N2  UNL     1      26.617   5.351   4.068  1.00  0.00    -0.360 N 
HETATM    2  C4  UNL     1      27.568   4.641   4.838  1.00  0.00     0.126 C 
HETATM    3  C5  UNL     1      27.770   3.308   4.175  1.00  0.00     0.031 C 
HETATM    4  C6  UNL     1      26.489   3.093   3.427  1.00  0.00    -0.020 C 
HETATM    5  C7  UNL     1      26.599   2.219   2.226  1.00  0.00     0.031 C 
HETATM    6  C8  UNL     1      26.242   0.778   2.502  1.00  0.00     0.129 C 
HETATM    7  N3  UNL     1      26.198   0.478   3.900  1.00  0.00    -0.328 N 
HETATM    8  C9  UNL     1      26.995  -0.600   4.391  1.00  0.00     0.363 C 
HETATM    9  O2  UNL     1      26.997  -0.911   5.615  1.00  0.00    -0.238 OA
HETATM   10  C14 UNL     1      25.354   1.270   4.758  1.00  0.00     0.129 C 
HETATM   11  C15 UNL     1      25.394   2.705   4.369  1.00  0.00     0.031 C 
HETATM   12  C16 UNL     1      26.192   4.521   2.936  1.00  0.00     0.134 C 
ENDROOT
BRANCH   1  13
HETATM   13  C3  UNL     1      26.098   6.644   4.288  1.00  0.00     0.160 C 
HETATM   14  C2  UNL     1      24.729   7.033   4.505  1.00  0.00     0.050 C 
HETATM   15  C1  UNL     1      24.386   8.503   4.738  1.00  0.00     0.072 C 
BRANCH  14  16
HETATM   16  N1  UNL     1      23.759   6.255   4.525  1.00  0.00    -0.399 N 
ATOM     17  H12 UNL     1      22.869   6.437   4.990  1.00  0.00     0.156 HD
ATOM     18  H11 UNL     1      23.897   5.377   4.025  1.00  0.00     0.156 HD
ENDBRANCH  14  16
BRANCH  13  19
HETATM   19  O1  UNL     1      26.969   7.620   4.300  1.00  0.00    -0.345 OA
ATOM     20  H1  UNL     1      27.614   7.601   3.602  1.00  0.00     0.219 HD
ENDBRANCH  13  19
ENDBRANCH   1  13
BRANCH   8  21
HETATM   21  O3  UNL     1      27.805  -1.362   3.583  1.00  0.00    -0.294 OA
BRANCH  21  22
HETATM   22  C10 UNL     1      29.146  -1.156   3.332  1.00  0.00     0.061 C 
HETATM   23  C11 UNL     1      30.012  -2.374   3.359  1.00  0.00     0.046 C 
HETATM   24  C12 UNL     1      29.681  -0.201   4.403  1.00  0.00     0.046 C 
HETATM   25  C13 UNL     1      29.390  -0.453   1.999  1.00  0.00     0.046 C 
ENDBRANCH  21  22
ENDBRANCH   8  21
TORSDOF 5
ENDMDL
MODEL 2
REMARK VINA RESULT: -3.531677877      1.827      7.456
REMARK  5 active torsions:
REMARK  status: ('A' for Active; 'I' for Inactive)
REMARK    1  A    between atoms: C2_2  and  N1_3 
REMARK    2  A    between atoms: C3_6  and  O1_7 
REMARK    3  A    between atoms: C3_6  and  N2_9 
REMARK       I    between atoms: N3_15  and  C9_16 
REMARK    4  A    between atoms: C9_16  and  O3_18 
REMARK    5  A    between atoms: O3_18  and  C10_19 
ROOT
HETATM    1  N2  UNL     1      28.898   0.454   4.771  1.00  0.00    -0.360 N 
HETATM    2  C4  UNL     1      29.247   1.562   5.577  1.00  0.00     0.126 C 
HETATM    3  C5  UNL     1      28.066   2.491   5.589  1.00  0.00     0.031 C 
HETATM    4  C6  UNL     1      27.353   2.165   4.312  1.00  0.00    -0.020 C 
HETATM    5  C7  UNL     1      25.889   2.440   4.318  1.00  0.00     0.031 C 
HETATM    6  C8  UNL     1      25.532   3.787   3.735  1.00  0.00     0.129 C 
HETATM    7  N3  UNL     1      26.665   4.650   3.605  1.00  0.00    -0.328 N 
HETATM    8  C9  UNL     1      26.611   5.941   4.211  1.00  0.00     0.363 C 
HETATM    9  O2  UNL     1      27.580   6.747   4.130  1.00  0.00    -0.238 OA
HETATM   10  C14 UNL     1      27.815   4.188   2.871  1.00  0.00     0.129 C 
HETATM   11  C15 UNL     1      28.082   2.750   3.144  1.00  0.00     0.031 C 
HETATM   12  C16 UNL     1      27.538   0.638   4.254  1.00  0.00     0.134 C 
ENDROOT
BRANCH   1  13
HETATM   13  C3  UNL     1      29.675  -0.680   4.453  1.00  0.00     0.160 C 
HETATM   14  C2  UNL     1      29.415  -1.694   3.464  1.00  0.00     0.050 C 
HETATM   15  C1  UNL     1      30.406  -2.840   3.275  1.00  0.00     0.072 C 
BRANCH  14  16
HETATM   16  N1  UNL     1      28.421  -1.725   2.716  1.00  0.00    -0.399 N 
ATOM     17  H12 UNL     1      27.595  -1.135   2.812  1.00  0.00     0.156 HD
ATOM     18  H11 UNL     1      28.472  -2.405   1.957  1.00  0.00     0.156 HD
ENDBRANCH  14  16
BRANCH  13  19
HETATM   19  O1  UNL     1      30.776  -0.834   5.141  1.00  0.00    -0.345 OA
ATOM     20  H1  UNL     1      30.661  -1.137   6.035  1.00  0.00     0.219 HD
ENDBRANCH  13  19
ENDBRANCH   1  13
BRANCH   8  21
HETATM   21  O3  UNL     1      25.520   6.394   4.915  1.00  0.00    -0.294 OA
BRANCH  21  22
HETATM   22  C10 UNL     1      24.478   7.152   4.421  1.00  0.00     0.061 C 
HETATM   23  C11 UNL     1      24.062   8.317   5.260  1.00  0.00     0.046 C 
HETATM   24  C12 UNL     1      23.257   6.237   4.287  1.00  0.00     0.046 C 
HETATM   25  C13 UNL     1      24.752   7.678   3.015  1.00  0.00     0.046 C 
ENDBRANCH  21  22
ENDBRANCH   8  21
TORSDOF 5
ENDMDL
MODEL 3
REMARK VINA RESULT: -3.497767243      1.643      7.519
REMARK  5 active torsions:
REMARK  status: ('A' for Active; 'I' for Inactive)
REMARK    1  A    between atoms: C2_2  and  N1_3 
REMARK    2  A    between atoms: C3_6  and  O1_7 
REMARK    3  A    between atoms: C3_6  and  N2_9 
REMARK       I    between atoms: N3_15  and  C9_16 
REMARK    4  A    between atoms: C9_16  and  O3_18 
REMARK    5  A    between atoms: O3_18  and  C10_19 
ROOT
HETATM    1  N2  UNL     1      28.054  -0.053   4.277  1.00  0.00    -0.360 N 
HETATM    2  C4  UNL     1      28.587   0.926   5.147  1.00  0.00     0.126 C 
HETATM    3  C5  UNL     1      27.570   2.027   5.251  1.00  0.00     0.031 C 
HETATM    4  C6  UNL     1      26.795   1.909   3.974  1.00  0.00    -0.020 C 
HETATM    5  C7  UNL     1      25.394   2.411   4.036  1.00  0.00     0.031 C 
HETATM    6  C8  UNL     1      25.249   3.835   3.554  1.00  0.00     0.129 C 
HETATM    7  N3  UNL     1      26.503   4.515   3.454  1.00  0.00    -0.328 N 
HETATM    8  C9  UNL     1      26.664   5.752   4.147  1.00  0.00     0.363 C 
HETATM    9  O2  UNL     1      27.748   6.398   4.095  1.00  0.00    -0.238 OA
HETATM   10  C14 UNL     1      27.554   3.930   2.661  1.00  0.00     0.129 C 
HETATM   11  C15 UNL     1      27.591   2.453   2.830  1.00  0.00     0.031 C 
HETATM   12  C16 UNL     1      26.734   0.380   3.809  1.00  0.00     0.134 C 
ENDROOT
BRANCH   1  13
HETATM   13  C3  UNL     1      28.636  -1.270   3.864  1.00  0.00     0.160 C 
HETATM   14  C2  UNL     1      30.027  -1.645   3.873  1.00  0.00     0.050 C 
HETATM   15  C1  UNL     1      30.441  -3.033   3.388  1.00  0.00     0.072 C 
BRANCH  14  16
HETATM   16  N1  UNL     1      30.961  -0.919   4.258  1.00  0.00    -0.399 N 
ATOM     17  H12 UNL     1      31.481  -1.043   5.127  1.00  0.00     0.156 HD
ATOM     18  H11 UNL     1      31.200  -0.152   3.630  1.00  0.00     0.156 HD
ENDBRANCH  14  16
BRANCH  13  19
HETATM   19  O1  UNL     1      27.811  -2.179   3.413  1.00  0.00    -0.345 OA
ATOM     20  H1  UNL     1      27.321  -1.938   2.636  1.00  0.00     0.219 HD
ENDBRANCH  13  19
ENDBRANCH   1  13
BRANCH   8  21
HETATM   21  O3  UNL     1      25.670   6.321   4.907  1.00  0.00    -0.294 OA
BRANCH  21  22
HETATM   22  C10 UNL     1      24.670   7.161   4.461  1.00  0.00     0.061 C 
HETATM   23  C11 UNL     1      24.326   8.304   5.361  1.00  0.00     0.046 C 
HETATM   24  C12 UNL     1      23.398   6.326   4.290  1.00  0.00     0.046 C 
HETATM   25  C13 UNL     1      24.966   7.742   3.081  1.00  0.00     0.046 C 
ENDBRANCH  21  22
ENDBRANCH   8  21
TORSDOF 5
ENDMDL
MODEL 4
REMARK VINA RESULT: -2.774936726      1.441      1.958
REMARK  5 active torsions:
REMARK  status: ('A' for Active; 'I' for Inactive)
REMARK    1  A    between atoms: C2_2  and  N1_3 
REMARK    2  A    between atoms: C3_6  and  O1_7 
REMARK    3  A    between atoms: C3_6  and  N2_9 
REMARK       I    between atoms: N3_15  and  C9_16 
REMARK    4  A    between atoms: C9_16  and  O3_18 
REMARK    5  A    between atoms: O3_18  and  C10_19 
ROOT
HETATM    1  N2  UNL     1      26.343   4.893   3.809  1.00  0.00    -0.360 N 
HETATM    2  C4  UNL     1      27.593   4.563   3.236  1.00  0.00     0.126 C 
HETATM    3  C5  UNL     1      27.698   3.064   3.231  1.00  0.00     0.031 C 
HETATM    4  C6  UNL     1      26.787   2.647   4.345  1.00  0.00    -0.020 C 
HETATM    5  C7  UNL     1      26.204   1.283   4.208  1.00  0.00     0.031 C 
HETATM    6  C8  UNL     1      26.983   0.224   4.950  1.00  0.00     0.129 C 
HETATM    7  N3  UNL     1      28.281   0.671   5.350  1.00  0.00    -0.328 N 
HETATM    8  C9  UNL     1      29.418  -0.096   4.954  1.00  0.00     0.363 C 
HETATM    9  O2  UNL     1      30.589   0.249   5.277  1.00  0.00    -0.238 OA
HETATM   10  C14 UNL     1      28.396   1.874   6.134  1.00  0.00     0.129 C 
HETATM   11  C15 UNL     1      27.431   2.908   5.670  1.00  0.00     0.031 C 
HETATM   12  C16 UNL     1      25.640   3.661   4.182  1.00  0.00     0.134 C 
ENDROOT
BRANCH   1  13
HETATM   13  C3  UNL     1      25.790   6.171   4.034  1.00  0.00     0.160 C 
HETATM   14  C2  UNL     1      24.415   6.518   4.286  1.00  0.00     0.050 C 
HETATM   15  C1  UNL     1      24.033   7.979   4.517  1.00  0.00     0.072 C 
BRANCH  14  16
HETATM   16  N1  UNL     1      23.471   5.710   4.340  1.00  0.00    -0.399 N 
ATOM     17  H12 UNL     1      22.902   5.418   3.545  1.00  0.00     0.156 HD
ATOM     18  H11 UNL     1      23.280   5.329   5.266  1.00  0.00     0.156 HD
ENDBRANCH  14  16
BRANCH  13  19
HETATM   19  O1  UNL     1      26.629   7.173   4.012  1.00  0.00    -0.345 OA
ATOM     20  H1  UNL     1      26.705   7.660   4.825  1.00  0.00     0.219 HD
ENDBRANCH  13  19
ENDBRANCH   1  13
BRANCH   8  21
HETATM   21  O3  UNL     1      29.323  -1.245   4.205  1.00  0.00    -0.294 OA
BRANCH  21  22
HETATM   22  C10 UNL     1      29.304  -1.331   2.828  1.00  0.00     0.061 C 
HETATM   23  C11 UNL     1      28.006  -1.750   2.216  1.00  0.00     0.046 C 
HETATM   24  C12 UNL     1      30.351  -2.368   2.410  1.00  0.00     0.046 C 
HETATM   25  C13 UNL     1      29.726  -0.029   2.154  1.00  0.00     0.046 C 
ENDBRANCH  21  22
ENDBRANCH   8  21
TORSDOF 5
ENDMDL
MODEL 5
REMARK VINA RESULT: -2.619187932      1.695      2.329
REMARK  5 active torsions:
REMARK  status: ('A' for Active; 'I' for Inactive)
REMARK    1  A    between atoms: C2_2  and  N1_3 
REMARK    2  A    between atoms: C3_6  and  O1_7 
REMARK    3  A    between atoms: C3_6  and  N2_9 
REMARK       I    between atoms: N3_15  and  C9_16 
REMARK    4  A    between atoms: C9_16  and  O3_18 
REMARK    5  A    between atoms: O3_18  and  C10_19 
ROOT
HETATM    1  N2  UNL     1      25.711   4.535   3.737  1.00  0.00    -0.360 N 
HETATM    2  C4  UNL     1      26.917   4.285   3.043  1.00  0.00     0.126 C 
HETATM    3  C5  UNL     1      27.198   2.813   3.158  1.00  0.00     0.031 C 
HETATM    4  C6  UNL     1      26.477   2.417   4.411  1.00  0.00    -0.020 C 
HETATM    5  C7  UNL     1      26.049   0.992   4.470  1.00  0.00     0.031 C 
HETATM    6  C8  UNL     1      27.029   0.104   5.200  1.00  0.00     0.129 C 
HETATM    7  N3  UNL     1      28.302   0.727   5.392  1.00  0.00    -0.328 N 
HETATM    8  C9  UNL     1      29.469   0.049   4.926  1.00  0.00     0.363 C 
HETATM    9  O2  UNL     1      30.619   0.550   5.067  1.00  0.00    -0.238 OA
HETATM   10  C14 UNL     1      28.361   2.010   6.045  1.00  0.00     0.129 C 
HETATM   11  C15 UNL     1      27.234   2.880   5.616  1.00  0.00     0.031 C 
HETATM   12  C16 UNL     1      25.207   3.280   4.304  1.00  0.00     0.134 C 
ENDROOT
BRANCH   1  13
HETATM   13  C3  UNL     1      25.039   5.763   3.915  1.00  0.00     0.160 C 
HETATM   14  C2  UNL     1      25.603   7.059   4.192  1.00  0.00     0.050 C 
HETATM   15  C1  UNL     1      24.684   8.270   4.336  1.00  0.00     0.072 C 
BRANCH  14  16
HETATM   16  N1  UNL     1      26.817   7.297   4.327  1.00  0.00    -0.399 N 
ATOM     17  H12 UNL     1      27.220   7.905   5.040  1.00  0.00     0.156 HD
ATOM     18  H11 UNL     1      27.427   6.829   3.657  1.00  0.00     0.156 HD
ENDBRANCH  14  16
BRANCH  13  19
HETATM   19  O1  UNL     1      23.736   5.726   3.816  1.00  0.00    -0.345 OA
ATOM     20  H1  UNL     1      23.282   6.513   4.095  1.00  0.00     0.219 HD
ENDBRANCH  13  19
ENDBRANCH   1  13
BRANCH   8  21
HETATM   21  O3  UNL     1      29.426  -1.174   4.300  1.00  0.00    -0.294 OA
BRANCH  21  22
HETATM   22  C10 UNL     1      29.206  -1.405   2.957  1.00  0.00     0.061 C 
HETATM   23  C11 UNL     1      27.839  -1.885   2.591  1.00  0.00     0.046 C 
HETATM   24  C12 UNL     1      30.196  -2.480   2.500  1.00  0.00     0.046 C 
HETATM   25  C13 UNL     1      29.504  -0.181   2.097  1.00  0.00     0.046 C 
ENDBRANCH  21  22
ENDBRANCH   8  21
TORSDOF 5
ENDMDL
