MODEL 1
REMARK VINA RESULT: -1.498825819      0.000      0.000
REMARK  2 active torsions:
REMARK  status: ('A' for Active; 'I' for Inactive)
REMARK    1  A    between atoms: C10_11  and  O1_12 
REMARK    2  A    between atoms: C15_19  and  O2_20 
ROOT
HETATM    1  C1  UNL     1      29.533   2.053   3.811  1.00  0.00     0.017 C 
HETATM    2  C2  UNL     1      28.454   2.625   4.287  1.00  0.00    -0.054 C 
HETATM    3  C3  UNL     1      28.221   4.072   4.024  1.00  0.00     0.042 C 
HETATM    4  C4  UNL     1      27.087   4.334   3.117  1.00  0.00     0.020 C 
HETATM    5  C5  UNL     1      25.788   4.759   3.667  1.00  0.00     0.278 C 
HETATM    6  N1  UNL     1      24.857   3.641   3.571  1.00  0.00     0.103 N 
HETATM    7  C6  UNL     1      23.841   3.631   4.533  1.00  0.00     0.273 C 
HETATM    8  C7  UNL     1      23.846   2.578   5.552  1.00  0.00     0.031 C 
HETATM    9  C8  UNL     1      25.184   2.027   5.979  1.00  0.00     0.012 C 
HETATM   10  C9  UNL     1      26.198   2.374   4.990  1.00  0.00     0.068 C 
HETATM   11  C10 UNL     1      27.556   1.710   5.101  1.00  0.00     0.091 C 
HETATM   12  C12 UNL     1      27.474   0.318   4.682  1.00  0.00     0.067 C 
HETATM   13  C13 UNL     1      27.192  -0.127   3.343  1.00  0.00     0.078 C 
HETATM   14  C14 UNL     1      26.668  -1.582   3.446  1.00  0.00     0.032 C 
HETATM   15  N2  UNL     1      26.327   0.539   2.479  1.00  0.00    -0.391 N 
ATOM     16  H2  UNL     1      26.487   0.546   1.471  1.00  0.00     0.156 HD
HETATM   17  C15 UNL     1      25.175   1.229   3.072  1.00  0.00     0.255 C 
HETATM   18  C17 UNL     1      25.736   2.497   3.587  1.00  0.00     0.209 C 
HETATM   19  C18 UNL     1      26.695   2.986   2.555  1.00  0.00     0.053 C 
ENDROOT
BRANCH  11  20
HETATM   20  O1  UNL     1      28.067   1.855   6.347  1.00  0.00    -0.380 OA
HETATM   21  C11 UNL     1      28.970   1.087   6.922  1.00  0.00     0.203 C 
ENDBRANCH  11  20
BRANCH  17  22
HETATM   22  O2  UNL     1      24.168   1.353   2.129  1.00  0.00    -0.369 OA
HETATM   23  C16 UNL     1      23.011   0.698   2.321  1.00  0.00     0.204 C 
ENDBRANCH  17  22
TORSDOF 2
ENDMDL
MODEL 2
REMARK VINA RESULT: 0.810972817      1.849      4.679
REMARK  2 active torsions:
REMARK  status: ('A' for Active; 'I' for Inactive)
REMARK    1  A    between atoms: C10_11  and  O1_12 
REMARK    2  A    between atoms: C15_19  and  O2_20 
ROOT
HETATM    1  C1  UNL     1      22.991   2.566   3.285  1.00  0.00     0.017 C 
HETATM    2  C2  UNL     1      24.146   2.087   3.676  1.00  0.00    -0.054 C 
HETATM    3  C3  UNL     1      24.719   0.904   2.975  1.00  0.00     0.042 C 
HETATM    4  C4  UNL     1      25.928   1.212   2.186  1.00  0.00     0.020 C 
HETATM    5  C5  UNL     1      27.260   0.884   2.724  1.00  0.00     0.278 C 
HETATM    6  N1  UNL     1      27.913   2.122   3.130  1.00  0.00     0.103 N 
HETATM    7  C6  UNL     1      28.848   1.989   4.163  1.00  0.00     0.273 C 
HETATM    8  C7  UNL     1      28.549   2.587   5.467  1.00  0.00     0.031 C 
HETATM    9  C8  UNL     1      27.100   2.674   5.877  1.00  0.00     0.012 C 
HETATM   10  C9  UNL     1      26.245   2.510   4.708  1.00  0.00     0.068 C 
HETATM   11  C10 UNL     1      24.768   2.809   4.859  1.00  0.00     0.091 C 
HETATM   12  C12 UNL     1      24.549   4.246   4.946  1.00  0.00     0.067 C 
HETATM   13  C13 UNL     1      24.790   5.185   3.883  1.00  0.00     0.078 C 
HETATM   14  C14 UNL     1      24.960   6.581   4.536  1.00  0.00     0.032 C 
HETATM   15  N2  UNL     1      25.828   5.055   2.965  1.00  0.00    -0.391 N 
ATOM     16  H2  UNL     1      25.726   5.376   2.002  1.00  0.00     0.156 HD
HETATM   17  C15 UNL     1      27.075   4.440   3.435  1.00  0.00     0.255 C 
HETATM   18  C17 UNL     1      26.795   2.989   3.416  1.00  0.00     0.209 C 
HETATM   19  C18 UNL     1      26.029   2.721   2.166  1.00  0.00     0.053 C 
ENDROOT
BRANCH  11  20
HETATM   20  O1  UNL     1      24.240   2.132   5.907  1.00  0.00    -0.380 OA
HETATM   21  C11 UNL     1      23.395   2.601   6.803  1.00  0.00     0.203 C 
ENDBRANCH  11  20
BRANCH  17  22
HETATM   22  O2  UNL     1      28.131   4.862   2.643  1.00  0.00    -0.369 OA
HETATM   23  C16 UNL     1      27.870   5.553   1.522  1.00  0.00     0.204 C 
ENDBRANCH  17  22
TORSDOF 2
ENDMDL
MODEL 3
REMARK VINA RESULT: 1.555343823      1.932      4.252
REMARK  2 active torsions:
REMARK  status: ('A' for Active; 'I' for Inactive)
REMARK    1  A    between atoms: C10_11  and  O1_12 
REMARK    2  A    between atoms: C15_19  and  O2_20 
ROOT
HETATM    1  C1  UNL     1      26.208   4.426   4.693  1.00  0.00     0.017 C 
HETATM    2  C2  UNL     1      27.220   3.640   4.419  1.00  0.00    -0.054 C 
HETATM    3  C3  UNL     1      28.379   3.592   5.353  1.00  0.00     0.042 C 
HETATM    4  C4  UNL     1      28.507   2.309   6.071  1.00  0.00     0.020 C 
HETATM    5  C5  UNL     1      29.494   1.311   5.624  1.00  0.00     0.278 C 
HETATM    6  N1  UNL     1      28.784   0.214   4.977  1.00  0.00     0.103 N 
HETATM    7  C6  UNL     1      29.514  -0.473   4.002  1.00  0.00     0.273 C 
HETATM    8  C7  UNL     1      29.102  -0.360   2.600  1.00  0.00     0.031 C 
HETATM    9  C8  UNL     1      28.450   0.931   2.168  1.00  0.00     0.012 C 
HETATM   10  C9  UNL     1      27.989   1.666   3.340  1.00  0.00     0.068 C 
HETATM   11  C10 UNL     1      27.091   2.867   3.117  1.00  0.00     0.091 C 
HETATM   12  C12 UNL     1      25.754   2.433   2.735  1.00  0.00     0.067 C 
HETATM   13  C13 UNL     1      24.844   1.713   3.584  1.00  0.00     0.078 C 
HETATM   14  C14 UNL     1      23.824   0.999   2.660  1.00  0.00     0.032 C 
HETATM   15  N2  UNL     1      25.253   0.765   4.518  1.00  0.00    -0.391 N 
ATOM     16  H2  UNL     1      24.747   0.632   5.394  1.00  0.00     0.156 HD
HETATM   17  C15 UNL     1      26.439  -0.036   4.195  1.00  0.00     0.255 C 
HETATM   18  C17 UNL     1      27.577   0.854   4.509  1.00  0.00     0.209 C 
HETATM   19  C18 UNL     1      27.231   1.550   5.782  1.00  0.00     0.053 C 
ENDROOT
BRANCH  11  20
HETATM   20  O1  UNL     1      27.641   3.726   2.226  1.00  0.00    -0.380 OA
HETATM   21  C11 UNL     1      27.522   5.038   2.222  1.00  0.00     0.203 C 
ENDBRANCH  11  20
BRANCH  17  22
HETATM   22  O2  UNL     1      26.399  -1.233   4.892  1.00  0.00    -0.369 OA
HETATM   23  C16 UNL     1      26.447  -2.388   4.208  1.00  0.00     0.204 C 
ENDBRANCH  17  22
TORSDOF 2
ENDMDL
MODEL 4
REMARK VINA RESULT: 2.129372932      1.737      4.280
REMARK  2 active torsions:
REMARK  status: ('A' for Active; 'I' for Inactive)
REMARK    1  A    between atoms: C10_11  and  O1_12 
REMARK    2  A    between atoms: C15_19  and  O2_20 
ROOT
HETATM    1  C1  UNL     1      28.059   5.551   4.826  1.00  0.00     0.017 C 
HETATM    2  C2  UNL     1      27.921   4.372   4.269  1.00  0.00    -0.054 C 
HETATM    3  C3  UNL     1      28.748   3.234   4.760  1.00  0.00     0.042 C 
HETATM    4  C4  UNL     1      27.968   2.195   5.461  1.00  0.00     0.020 C 
HETATM    5  C5  UNL     1      27.606   0.950   4.762  1.00  0.00     0.278 C 
HETATM    6  N1  UNL     1      26.181   0.991   4.452  1.00  0.00     0.103 N 
HETATM    7  C6  UNL     1      25.798   0.254   3.326  1.00  0.00     0.273 C 
HETATM    8  C7  UNL     1      25.321   0.973   2.142  1.00  0.00     0.031 C 
HETATM    9  C8  UNL     1      25.888   2.347   1.886  1.00  0.00     0.012 C 
HETATM   10  C9  UNL     1      26.506   2.860   3.102  1.00  0.00     0.068 C 
HETATM   11  C10 UNL     1      26.916   4.319   3.132  1.00  0.00     0.091 C 
HETATM   12  C12 UNL     1      25.742   5.172   3.245  1.00  0.00     0.067 C 
HETATM   13  C13 UNL     1      24.872   5.232   4.389  1.00  0.00     0.078 C 
HETATM   14  C14 UNL     1      23.516   5.805   3.902  1.00  0.00     0.032 C 
HETATM   15  N2  UNL     1      24.566   4.128   5.181  1.00  0.00    -0.391 N 
ATOM     16  H2  UNL     1      24.395   4.225   6.181  1.00  0.00     0.156 HD
HETATM   17  C15 UNL     1      24.501   2.819   4.520  1.00  0.00     0.255 C 
HETATM   18  C17 UNL     1      25.914   2.408   4.385  1.00  0.00     0.209 C 
HETATM   19  C18 UNL     1      26.590   2.784   5.660  1.00  0.00     0.053 C 
ENDROOT
BRANCH  11  20
HETATM   20  O1  UNL     1      27.689   4.627   2.062  1.00  0.00    -0.380 OA
HETATM   21  C11 UNL     1      27.495   5.612   1.209  1.00  0.00     0.203 C 
ENDBRANCH  11  20
BRANCH  17  22
HETATM   22  O2  UNL     1      23.692   1.966   5.254  1.00  0.00    -0.369 OA
HETATM   23  C16 UNL     1      22.991   2.459   6.287  1.00  0.00     0.204 C 
ENDBRANCH  17  22
TORSDOF 2
ENDMDL
