MODEL 1
REMARK VINA RESULT: -9.396019160      0.000      0.000
REMARK  12 active torsions:
REMARK  status: ('A' for Active; 'I' for Inactive)
REMARK       I    between atoms: C1_2  and  N1_3 
REMARK    1  A    between atoms: C1_2  and  C8_11 
REMARK    2  A    between atoms: N1_3  and  C2_5 
REMARK    3  A    between atoms: C10_13  and  O2_14 
REMARK    4  A    between atoms: C11_16  and  C12_17 
REMARK    5  A    between atoms: C12_17  and  S1_18 
REMARK    6  A    between atoms: S1_18  and  C13_19 
REMARK    7  A    between atoms: C13_19  and  C14_20 
REMARK    8  A    between atoms: C15_22  and  C16_23 
REMARK    9  A    between atoms: C16_23  and  O4_24 
REMARK   10  A    between atoms: C17_26  and  O5_27 
REMARK   11  A    between atoms: C18_29  and  O6_30 
REMARK   12  A    between atoms: C19_32  and  O7_33 
ROOT
HETATM    1  C12 UNL     1      29.191   7.938  12.680  1.00  0.00     0.091 C 
ENDROOT
BRANCH   1   2
HETATM    2  C11 UNL     1      30.018   6.829  12.155  1.00  0.00     0.086 C 
HETATM    3  C10 UNL     1      30.965   6.146  13.085  1.00  0.00     0.134 C 
HETATM    4  C9  UNL     1      31.501   4.953  12.273  1.00  0.00     0.057 C 
HETATM    5  C8  UNL     1      30.329   4.105  11.915  1.00  0.00     0.142 C 
HETATM    6  S2  UNL     1      29.004   5.360  11.672  1.00  0.00    -0.146 SA
BRANCH   3   7
HETATM    7  O2  UNL     1      30.354   5.636  14.212  1.00  0.00    -0.394 OA
ATOM      8  H2  UNL     1      30.965   5.034  14.619  1.00  0.00     0.210 HD
ENDBRANCH   3   7
BRANCH   5   9
HETATM    9  C1  UNL     1      30.552   3.493  10.581  1.00  0.00     0.232 C 
HETATM   10  O1  UNL     1      31.436   2.607  10.475  1.00  0.00    -0.272 OA
HETATM   11  N1  UNL     1      29.821   3.858   9.434  1.00  0.00    -0.355 N 
ATOM     12  H1  UNL     1      29.097   4.574   9.497  1.00  0.00     0.162 HD
BRANCH  11  13
HETATM   13  C2  UNL     1      30.092   3.222   8.176  1.00  0.00     0.084 C 
HETATM   14  C3  UNL     1      31.580   3.246   7.842  1.00  0.00     0.025 C 
HETATM   15  C4  UNL     1      31.774   3.034   6.358  1.00  0.00     0.002 C 
HETATM   16  C5  UNL     1      30.631   2.181   5.850  1.00  0.00     0.000 C 
HETATM   17  C6  UNL     1      29.391   3.054   5.831  1.00  0.00     0.002 C 
HETATM   18  C7  UNL     1      29.383   3.937   7.035  1.00  0.00     0.025 C 
ENDBRANCH  11  13
ENDBRANCH   5   9
ENDBRANCH   1   2
BRANCH   1  19
HETATM   19  S1  UNL     1      27.899   8.412  11.602  1.00  0.00    -0.165 SA
BRANCH  19  20
HETATM   20  C13 UNL     1      26.846   9.766  11.880  1.00  0.00     0.108 C 
BRANCH  20  21
HETATM   21  C14 UNL     1      25.373   9.490  11.769  1.00  0.00     0.162 C 
HETATM   22  O3  UNL     1      25.086   9.355  10.407  1.00  0.00    -0.372 OA
HETATM   23  C15 UNL     1      23.730   9.181  10.192  1.00  0.00     0.176 C 
HETATM   24  C17 UNL     1      23.356   7.821  10.768  1.00  0.00     0.180 C 
HETATM   25  C18 UNL     1      23.524   7.884  12.262  1.00  0.00     0.180 C 
HETATM   26  C19 UNL     1      24.889   8.436  12.653  1.00  0.00     0.179 C 
BRANCH  23  27
HETATM   27  C16 UNL     1      23.477   9.155   8.694  1.00  0.00     0.198 C 
BRANCH  27  28
HETATM   28  O4  UNL     1      22.120   9.236   8.449  1.00  0.00    -0.398 OA
ATOM     29  H4  UNL     1      21.939   8.969   7.556  1.00  0.00     0.209 HD
ENDBRANCH  27  28
ENDBRANCH  23  27
BRANCH  24  30
HETATM   30  O5  UNL     1      24.261   6.903  10.234  1.00  0.00    -0.390 OA
ATOM     31  H5  UNL     1      24.748   6.547  10.968  1.00  0.00     0.210 HD
ENDBRANCH  24  30
BRANCH  25  32
HETATM   32  O6  UNL     1      22.490   8.599  12.850  1.00  0.00    -0.390 OA
ATOM     33  H6  UNL     1      22.357   8.328  13.750  1.00  0.00     0.210 HD
ENDBRANCH  25  32
BRANCH  26  34
HETATM   34  O7  UNL     1      24.661   9.024  13.930  1.00  0.00    -0.390 OA
ATOM     35  H7  UNL     1      24.320   8.343  14.498  1.00  0.00     0.210 HD
ENDBRANCH  26  34
ENDBRANCH  20  21
ENDBRANCH  19  20
ENDBRANCH   1  19
TORSDOF 12
ENDMDL
MODEL 2
REMARK VINA RESULT: -8.584676919      1.064      2.238
REMARK  12 active torsions:
REMARK  status: ('A' for Active; 'I' for Inactive)
REMARK       I    between atoms: C1_2  and  N1_3 
REMARK    1  A    between atoms: C1_2  and  C8_11 
REMARK    2  A    between atoms: N1_3  and  C2_5 
REMARK    3  A    between atoms: C10_13  and  O2_14 
REMARK    4  A    between atoms: C11_16  and  C12_17 
REMARK    5  A    between atoms: C12_17  and  S1_18 
REMARK    6  A    between atoms: S1_18  and  C13_19 
REMARK    7  A    between atoms: C13_19  and  C14_20 
REMARK    8  A    between atoms: C15_22  and  C16_23 
REMARK    9  A    between atoms: C16_23  and  O4_24 
REMARK   10  A    between atoms: C17_26  and  O5_27 
REMARK   11  A    between atoms: C18_29  and  O6_30 
REMARK   12  A    between atoms: C19_32  and  O7_33 
ROOT
HETATM    1  C12 UNL     1      29.140   7.847  12.904  1.00  0.00     0.091 C 
ENDROOT
BRANCH   1   2
HETATM    2  C11 UNL     1      29.991   6.786  12.321  1.00  0.00     0.086 C 
HETATM    3  C10 UNL     1      31.029   6.152  13.186  1.00  0.00     0.134 C 
HETATM    4  C9  UNL     1      31.577   4.992  12.333  1.00  0.00     0.057 C 
HETATM    5  C8  UNL     1      30.432   4.084  12.043  1.00  0.00     0.142 C 
HETATM    6  S2  UNL     1      29.029   5.267  11.891  1.00  0.00    -0.146 SA
BRANCH   3   7
HETATM    7  O2  UNL     1      30.517   5.605  14.345  1.00  0.00    -0.394 OA
ATOM      8  H2  UNL     1      30.498   4.663  14.230  1.00  0.00     0.210 HD
ENDBRANCH   3   7
BRANCH   5   9
HETATM    9  C1  UNL     1      30.604   3.491  10.693  1.00  0.00     0.232 C 
HETATM   10  O1  UNL     1      31.461   2.584  10.548  1.00  0.00    -0.272 OA
HETATM   11  N1  UNL     1      29.853   3.894   9.571  1.00  0.00    -0.355 N 
ATOM     12  H1  UNL     1      29.151   4.628   9.666  1.00  0.00     0.162 HD
BRANCH  11  13
HETATM   13  C2  UNL     1      30.074   3.274   8.296  1.00  0.00     0.084 C 
HETATM   14  C3  UNL     1      31.553   3.264   7.924  1.00  0.00     0.025 C 
HETATM   15  C4  UNL     1      31.703   3.073   6.432  1.00  0.00     0.002 C 
HETATM   16  C5  UNL     1      30.525   2.261   5.939  1.00  0.00     0.000 C 
HETATM   17  C6  UNL     1      29.310   3.168   5.967  1.00  0.00     0.002 C 
HETATM   18  C7  UNL     1      29.357   4.028   7.187  1.00  0.00     0.025 C 
ENDBRANCH  11  13
ENDBRANCH   5   9
ENDBRANCH   1   2
BRANCH   1  19
HETATM   19  S1  UNL     1      28.368   8.857  11.704  1.00  0.00    -0.165 SA
BRANCH  19  20
HETATM   20  C13 UNL     1      26.729   9.421  11.815  1.00  0.00     0.108 C 
BRANCH  20  21
HETATM   21  C14 UNL     1      25.660   8.369  11.717  1.00  0.00     0.162 C 
HETATM   22  O3  UNL     1      24.644   8.737  12.605  1.00  0.00    -0.372 OA
HETATM   23  C15 UNL     1      23.644   7.783  12.651  1.00  0.00     0.176 C 
HETATM   24  C17 UNL     1      22.949   7.795  11.296  1.00  0.00     0.180 C 
HETATM   25  C18 UNL     1      23.929   7.304  10.265  1.00  0.00     0.180 C 
HETATM   26  C19 UNL     1      25.259   8.042  10.354  1.00  0.00     0.179 C 
BRANCH  23  27
HETATM   27  C16 UNL     1      22.634   8.190  13.712  1.00  0.00     0.198 C 
BRANCH  27  28
HETATM   28  O4  UNL     1      22.988   7.639  14.928  1.00  0.00    -0.398 OA
ATOM     29  H4  UNL     1      22.256   7.697  15.531  1.00  0.00     0.209 HD
ENDBRANCH  27  28
ENDBRANCH  23  27
BRANCH  24  30
HETATM   30  O5  UNL     1      22.619   9.125  11.031  1.00  0.00    -0.390 OA
ATOM     31  H5  UNL     1      22.541   9.201  10.087  1.00  0.00     0.210 HD
ENDBRANCH  24  30
BRANCH  25  32
HETATM   32  O6  UNL     1      24.095   5.930  10.349  1.00  0.00    -0.390 OA
ATOM     33  H6  UNL     1      24.163   5.540   9.486  1.00  0.00     0.210 HD
ENDBRANCH  25  32
BRANCH  26  34
HETATM   34  O7  UNL     1      26.201   7.102   9.848  1.00  0.00    -0.390 OA
ATOM     35  H7  UNL     1      25.779   6.633   9.137  1.00  0.00     0.210 HD
ENDBRANCH  26  34
ENDBRANCH  20  21
ENDBRANCH  19  20
ENDBRANCH   1  19
TORSDOF 12
ENDMDL
MODEL 3
REMARK VINA RESULT: -8.408850097      0.476      1.018
REMARK  12 active torsions:
REMARK  status: ('A' for Active; 'I' for Inactive)
REMARK       I    between atoms: C1_2  and  N1_3 
REMARK    1  A    between atoms: C1_2  and  C8_11 
REMARK    2  A    between atoms: N1_3  and  C2_5 
REMARK    3  A    between atoms: C10_13  and  O2_14 
REMARK    4  A    between atoms: C11_16  and  C12_17 
REMARK    5  A    between atoms: C12_17  and  S1_18 
REMARK    6  A    between atoms: S1_18  and  C13_19 
REMARK    7  A    between atoms: C13_19  and  C14_20 
REMARK    8  A    between atoms: C15_22  and  C16_23 
REMARK    9  A    between atoms: C16_23  and  O4_24 
REMARK   10  A    between atoms: C17_26  and  O5_27 
REMARK   11  A    between atoms: C18_29  and  O6_30 
REMARK   12  A    between atoms: C19_32  and  O7_33 
ROOT
HETATM    1  C12 UNL     1      28.854   8.128  12.759  1.00  0.00     0.091 C 
ENDROOT
BRANCH   1   2
HETATM    2  C11 UNL     1      29.769   7.136  12.154  1.00  0.00     0.086 C 
HETATM    3  C10 UNL     1      30.756   6.446  13.037  1.00  0.00     0.134 C 
HETATM    4  C9  UNL     1      31.390   5.374  12.133  1.00  0.00     0.057 C 
HETATM    5  C8  UNL     1      30.291   4.475  11.682  1.00  0.00     0.142 C 
HETATM    6  S2  UNL     1      28.876   5.643  11.527  1.00  0.00    -0.146 SA
BRANCH   3   7
HETATM    7  O2  UNL     1      30.174   5.794  14.105  1.00  0.00    -0.394 OA
ATOM      8  H2  UNL     1      30.867   5.355  14.582  1.00  0.00     0.210 HD
ENDBRANCH   3   7
BRANCH   5   9
HETATM    9  C1  UNL     1      30.574   4.002  10.304  1.00  0.00     0.232 C 
HETATM   10  O1  UNL     1      31.522   3.195  10.137  1.00  0.00    -0.272 OA
HETATM   11  N1  UNL     1      29.832   4.413   9.180  1.00  0.00    -0.355 N 
ATOM     12  H1  UNL     1      29.057   5.067   9.292  1.00  0.00     0.162 HD
BRANCH  11  13
HETATM   13  C2  UNL     1      30.165   3.914   7.876  1.00  0.00     0.084 C 
HETATM   14  C3  UNL     1      28.917   3.631   7.046  1.00  0.00     0.025 C 
HETATM   15  C4  UNL     1      29.256   2.678   5.922  1.00  0.00     0.002 C 
HETATM   16  C5  UNL     1      30.704   2.898   5.539  1.00  0.00     0.000 C 
HETATM   17  C6  UNL     1      31.556   2.310   6.647  1.00  0.00     0.002 C 
HETATM   18  C7  UNL     1      30.926   2.600   7.970  1.00  0.00     0.025 C 
ENDBRANCH  11  13
ENDBRANCH   5   9
ENDBRANCH   1   2
BRANCH   1  19
HETATM   19  S1  UNL     1      27.775   8.873  11.603  1.00  0.00    -0.165 SA
BRANCH  19  20
HETATM   20  C13 UNL     1      26.550  10.032  12.022  1.00  0.00     0.108 C 
BRANCH  20  21
HETATM   21  C14 UNL     1      25.127   9.562  11.902  1.00  0.00     0.162 C 
HETATM   22  O3  UNL     1      24.852   9.444  10.536  1.00  0.00    -0.372 OA
HETATM   23  C15 UNL     1      23.532   9.094  10.316  1.00  0.00     0.176 C 
HETATM   24  C17 UNL     1      23.351   7.674  10.836  1.00  0.00     0.180 C 
HETATM   25  C18 UNL     1      23.518   7.700  12.331  1.00  0.00     0.180 C 
HETATM   26  C19 UNL     1      24.797   8.418  12.743  1.00  0.00     0.179 C 
BRANCH  23  27
HETATM   27  C16 UNL     1      23.275   9.093   8.817  1.00  0.00     0.198 C 
BRANCH  27  28
HETATM   28  O4  UNL     1      21.937   8.850   8.574  1.00  0.00    -0.398 OA
ATOM     29  H4  UNL     1      21.811   8.639   7.657  1.00  0.00     0.209 HD
ENDBRANCH  27  28
ENDBRANCH  23  27
BRANCH  24  30
HETATM   30  O5  UNL     1      24.369   6.910  10.266  1.00  0.00    -0.390 OA
ATOM     31  H5  UNL     1      23.977   6.081  10.015  1.00  0.00     0.210 HD
ENDBRANCH  24  30
BRANCH  25  32
HETATM   32  O6  UNL     1      22.401   8.243  12.949  1.00  0.00    -0.390 OA
ATOM     33  H6  UNL     1      22.568   8.415  13.868  1.00  0.00     0.210 HD
ENDBRANCH  25  32
BRANCH  26  34
HETATM   34  O7  UNL     1      24.500   8.918  14.043  1.00  0.00    -0.390 OA
ATOM     35  H7  UNL     1      25.160   9.568  14.254  1.00  0.00     0.210 HD
ENDBRANCH  26  34
ENDBRANCH  20  21
ENDBRANCH  19  20
ENDBRANCH   1  19
TORSDOF 12
ENDMDL
MODEL 4
REMARK VINA RESULT: -8.166600695      1.595      2.680
REMARK  12 active torsions:
REMARK  status: ('A' for Active; 'I' for Inactive)
REMARK       I    between atoms: C1_2  and  N1_3 
REMARK    1  A    between atoms: C1_2  and  C8_11 
REMARK    2  A    between atoms: N1_3  and  C2_5 
REMARK    3  A    between atoms: C10_13  and  O2_14 
REMARK    4  A    between atoms: C11_16  and  C12_17 
REMARK    5  A    between atoms: C12_17  and  S1_18 
REMARK    6  A    between atoms: S1_18  and  C13_19 
REMARK    7  A    between atoms: C13_19  and  C14_20 
REMARK    8  A    between atoms: C15_22  and  C16_23 
REMARK    9  A    between atoms: C16_23  and  O4_24 
REMARK   10  A    between atoms: C17_26  and  O5_27 
REMARK   11  A    between atoms: C18_29  and  O6_30 
REMARK   12  A    between atoms: C19_32  and  O7_33 
ROOT
HETATM    1  C12 UNL     1      31.027   7.151  13.647  1.00  0.00     0.091 C 
ENDROOT
BRANCH   1   2
HETATM    2  C11 UNL     1      31.457   6.028  12.785  1.00  0.00     0.086 C 
HETATM    3  C10 UNL     1      32.333   4.973  13.376  1.00  0.00     0.134 C 
HETATM    4  C9  UNL     1      32.419   3.894  12.281  1.00  0.00     0.057 C 
HETATM    5  C8  UNL     1      31.031   3.417  12.026  1.00  0.00     0.142 C 
HETATM    6  S2  UNL     1      30.044   4.951  12.272  1.00  0.00    -0.146 SA
BRANCH   3   7
HETATM    7  O2  UNL     1      31.794   4.379  14.499  1.00  0.00    -0.394 OA
ATOM      8  H2  UNL     1      30.922   4.735  14.618  1.00  0.00     0.210 HD
ENDBRANCH   3   7
BRANCH   5   9
HETATM    9  C1  UNL     1      30.884   3.071  10.590  1.00  0.00     0.232 C 
HETATM   10  O1  UNL     1      31.713   2.274  10.084  1.00  0.00    -0.272 OA
HETATM   11  N1  UNL     1      29.862   3.591   9.772  1.00  0.00    -0.355 N 
ATOM     12  H1  UNL     1      29.177   4.239  10.162  1.00  0.00     0.162 HD
BRANCH  11  13
HETATM   13  C2  UNL     1      29.783   3.211   8.391  1.00  0.00     0.084 C 
HETATM   14  C3  UNL     1      31.165   3.110   7.754  1.00  0.00     0.025 C 
HETATM   15  C4  UNL     1      31.042   3.199   6.250  1.00  0.00     0.002 C 
HETATM   16  C5  UNL     1      29.696   2.633   5.852  1.00  0.00     0.000 C 
HETATM   17  C6  UNL     1      28.643   3.645   6.262  1.00  0.00     0.002 C 
HETATM   18  C7  UNL     1      29.010   4.241   7.581  1.00  0.00     0.025 C 
ENDBRANCH  11  13
ENDBRANCH   5   9
ENDBRANCH   1   2
BRANCH   1  19
HETATM   19  S1  UNL     1      29.411   7.717  13.296  1.00  0.00    -0.165 SA
BRANCH  19  20
HETATM   20  C13 UNL     1      28.738   7.811  11.697  1.00  0.00     0.108 C 
BRANCH  20  21
HETATM   21  C14 UNL     1      27.274   7.493  11.576  1.00  0.00     0.162 C 
HETATM   22  O3  UNL     1      26.597   8.361  12.438  1.00  0.00    -0.372 OA
HETATM   23  C15 UNL     1      25.241   8.091  12.464  1.00  0.00     0.176 C 
HETATM   24  C17 UNL     1      24.686   8.452  11.092  1.00  0.00     0.180 C 
HETATM   25  C18 UNL     1      25.270   7.498  10.086  1.00  0.00     0.180 C 
HETATM   26  C19 UNL     1      26.786   7.411  10.205  1.00  0.00     0.179 C 
BRANCH  23  27
HETATM   27  C16 UNL     1      24.587   8.991  13.499  1.00  0.00     0.198 C 
BRANCH  27  28
HETATM   28  O4  UNL     1      25.539   9.813  14.070  1.00  0.00    -0.398 OA
ATOM     29  H4  UNL     1      25.234  10.712  14.058  1.00  0.00     0.209 HD
ENDBRANCH  27  28
ENDBRANCH  23  27
BRANCH  24  30
HETATM   30  O5  UNL     1      25.124   9.748  10.816  1.00  0.00    -0.390 OA
ATOM     31  H5  UNL     1      25.397   9.753   9.905  1.00  0.00     0.210 HD
ENDBRANCH  24  30
BRANCH  25  32
HETATM   32  O6  UNL     1      24.673   6.250  10.178  1.00  0.00    -0.390 OA
ATOM     33  H6  UNL     1      25.213   5.648  10.677  1.00  0.00     0.210 HD
ENDBRANCH  25  32
BRANCH  26  34
HETATM   34  O7  UNL     1      27.088   6.105   9.723  1.00  0.00    -0.390 OA
ATOM     35  H7  UNL     1      26.262   5.676   9.533  1.00  0.00     0.210 HD
ENDBRANCH  26  34
ENDBRANCH  20  21
ENDBRANCH  19  20
ENDBRANCH   1  19
TORSDOF 12
ENDMDL
MODEL 5
REMARK VINA RESULT: -8.132589010      3.215      7.984
REMARK  12 active torsions:
REMARK  status: ('A' for Active; 'I' for Inactive)
REMARK       I    between atoms: C1_2  and  N1_3 
REMARK    1  A    between atoms: C1_2  and  C8_11 
REMARK    2  A    between atoms: N1_3  and  C2_5 
REMARK    3  A    between atoms: C10_13  and  O2_14 
REMARK    4  A    between atoms: C11_16  and  C12_17 
REMARK    5  A    between atoms: C12_17  and  S1_18 
REMARK    6  A    between atoms: S1_18  and  C13_19 
REMARK    7  A    between atoms: C13_19  and  C14_20 
REMARK    8  A    between atoms: C15_22  and  C16_23 
REMARK    9  A    between atoms: C16_23  and  O4_24 
REMARK   10  A    between atoms: C17_26  and  O5_27 
REMARK   11  A    between atoms: C18_29  and  O6_30 
REMARK   12  A    between atoms: C19_32  and  O7_33 
ROOT
HETATM    1  C12 UNL     1      30.981   2.937   9.175  1.00  0.00     0.091 C 
ENDROOT
BRANCH   1   2
HETATM    2  C11 UNL     1      29.967   4.008   9.286  1.00  0.00     0.086 C 
HETATM    3  C10 UNL     1      28.931   4.121   8.217  1.00  0.00     0.134 C 
HETATM    4  C9  UNL     1      27.956   5.190   8.743  1.00  0.00     0.057 C 
HETATM    5  C8  UNL     1      27.405   4.684  10.032  1.00  0.00     0.142 C 
HETATM    6  S2  UNL     1      28.840   3.767  10.732  1.00  0.00    -0.146 SA
BRANCH   3   7
HETATM    7  O2  UNL     1      28.208   2.960   8.030  1.00  0.00    -0.394 OA
ATOM      8  H2  UNL     1      27.633   3.100   7.287  1.00  0.00     0.210 HD
ENDBRANCH   3   7
BRANCH   5   9
HETATM    9  C1  UNL     1      27.171   5.825  10.951  1.00  0.00     0.232 C 
HETATM   10  O1  UNL     1      27.832   5.873  12.018  1.00  0.00    -0.272 OA
HETATM   11  N1  UNL     1      26.247   6.855  10.683  1.00  0.00    -0.355 N 
ATOM     12  H1  UNL     1      25.701   6.837   9.822  1.00  0.00     0.162 HD
BRANCH  11  13
HETATM   13  C2  UNL     1      26.075   7.928  11.619  1.00  0.00     0.084 C 
HETATM   14  C3  UNL     1      24.810   7.751  12.453  1.00  0.00     0.025 C 
HETATM   15  C4  UNL     1      24.400   9.079  13.048  1.00  0.00     0.002 C 
HETATM   16  C5  UNL     1      25.650   9.906  13.261  1.00  0.00     0.000 C 
HETATM   17  C6  UNL     1      26.122  10.366  11.895  1.00  0.00     0.002 C 
HETATM   18  C7  UNL     1      25.935   9.264  10.904  1.00  0.00     0.025 C 
ENDBRANCH  11  13
ENDBRANCH   5   9
ENDBRANCH   1   2
BRANCH   1  19
HETATM   19  S1  UNL     1      32.038   2.835  10.564  1.00  0.00    -0.165 SA
BRANCH  19  20
HETATM   20  C13 UNL     1      32.808   4.206  11.303  1.00  0.00     0.108 C 
BRANCH  20  21
HETATM   21  C14 UNL     1      32.477   4.448  12.750  1.00  0.00     0.162 C 
HETATM   22  O3  UNL     1      31.643   5.570  12.793  1.00  0.00    -0.372 OA
HETATM   23  C15 UNL     1      31.347   5.928  14.097  1.00  0.00     0.176 C 
HETATM   24  C17 UNL     1      30.479   4.821  14.679  1.00  0.00     0.180 C 
HETATM   25  C18 UNL     1      31.318   3.576  14.783  1.00  0.00     0.180 C 
HETATM   26  C19 UNL     1      32.028   3.264  13.472  1.00  0.00     0.179 C 
BRANCH  23  27
HETATM   27  C16 UNL     1      30.536   7.213  14.073  1.00  0.00     0.198 C 
BRANCH  27  28
HETATM   28  O4  UNL     1      30.056   7.437  12.798  1.00  0.00    -0.398 OA
ATOM     29  H4  UNL     1      29.121   7.272  12.774  1.00  0.00     0.209 HD
ENDBRANCH  27  28
ENDBRANCH  23  27
BRANCH  24  30
HETATM   30  O5  UNL     1      29.441   4.611  13.771  1.00  0.00    -0.390 OA
ATOM     31  H5  UNL     1      29.800   4.780  12.907  1.00  0.00     0.210 HD
ENDBRANCH  24  30
BRANCH  25  32
HETATM   32  O6  UNL     1      32.207   3.660  15.844  1.00  0.00    -0.390 OA
ATOM     33  H6  UNL     1      31.941   3.093  16.559  1.00  0.00     0.210 HD
ENDBRANCH  25  32
BRANCH  26  34
HETATM   34  O7  UNL     1      33.190   2.549  13.880  1.00  0.00    -0.390 OA
ATOM     35  H7  UNL     1      33.720   3.142  14.398  1.00  0.00     0.210 HD
ENDBRANCH  26  34
ENDBRANCH  20  21
ENDBRANCH  19  20
ENDBRANCH   1  19
TORSDOF 12
ENDMDL
