MODEL 1
REMARK VINA RESULT: -5.445774211      0.000      0.000
REMARK  5 active torsions:
REMARK  status: ('A' for Active; 'I' for Inactive)
REMARK    1  A    between atoms: N1_1  and  C1_4 
REMARK    2  A    between atoms: C2_7  and  S1_8 
REMARK    3  A    between atoms: S1_8  and  C3_9 
REMARK    4  A    between atoms: C3_9  and  N3_10 
REMARK    5  A    between atoms: C3_9  and  N4_14 
ROOT
HETATM    1  C1  UNL     1     -28.547  15.328  57.152  1.00  0.00     0.692 A 
HETATM    2  N2  UNL     1     -27.586  15.256  58.119  1.00  0.00    -0.168 N 
ATOM      3  H2  UNL     1     -27.733  15.437  59.112  1.00  0.00     0.186 HD
HETATM    4  C2  UNL     1     -26.404  14.906  57.552  1.00  0.00     0.178 A 
HETATM    5  N5  UNL     1     -26.645  14.765  56.235  1.00  0.00    -0.265 N 
ATOM      6  H5  UNL     1     -25.957  14.506  55.529  1.00  0.00     0.189 HD
HETATM    7  N6  UNL     1     -27.913  15.016  56.010  1.00  0.00    -0.130 N 
ATOM      8  H6  UNL     1     -28.357  14.979  55.093  1.00  0.00     0.205 HD
ENDROOT
BRANCH   4   9
HETATM    9  S1  UNL     1     -24.816  14.665  58.280  1.00  0.00    -0.031 SA
BRANCH   9  10
HETATM   10  C3  UNL     1     -24.841  13.755  59.815  1.00  0.00     0.447 C 
BRANCH  10  11
HETATM   11  N3  UNL     1     -25.943  14.104  60.680  1.00  0.00    -0.041 N 
ATOM     12  H33 UNL     1     -26.832  13.998  60.191  1.00  0.00     0.277 HD
ATOM     13  H32 UNL     1     -26.065  13.402  61.409  1.00  0.00     0.277 HD
ATOM     14  H31 UNL     1     -25.866  15.037  61.088  1.00  0.00     0.277 HD
ENDBRANCH  10  11
BRANCH  10  15
HETATM   15  N4  UNL     1     -23.613  13.912  60.577  1.00  0.00    -0.041 N 
ATOM     16  H43 UNL     1     -23.279  14.874  60.539  1.00  0.00     0.277 HD
ATOM     17  H42 UNL     1     -23.792  13.840  61.579  1.00  0.00     0.277 HD
ATOM     18  H41 UNL     1     -22.885  13.259  60.287  1.00  0.00     0.277 HD
ENDBRANCH  10  15
ENDBRANCH   9  10
ENDBRANCH   4   9
BRANCH   1  19
HETATM   19  N1  UNL     1     -29.778  15.618  57.224  1.00  0.00    -0.233 N 
ATOM     20  H12 UNL     1     -30.527  15.015  56.883  1.00  0.00     0.174 HD
ATOM     21  H11 UNL     1     -30.251  16.439  57.602  1.00  0.00     0.174 HD
ENDBRANCH   1  19
TORSDOF 5
ENDMDL
MODEL 2
REMARK VINA RESULT: -5.252167583      1.594      4.521
REMARK  5 active torsions:
REMARK  status: ('A' for Active; 'I' for Inactive)
REMARK    1  A    between atoms: N1_1  and  C1_4 
REMARK    2  A    between atoms: C2_7  and  S1_8 
REMARK    3  A    between atoms: S1_8  and  C3_9 
REMARK    4  A    between atoms: C3_9  and  N3_10 
REMARK    5  A    between atoms: C3_9  and  N4_14 
ROOT
HETATM    1  C1  UNL     1     -24.359  14.007  59.526  1.00  0.00     0.692 A 
HETATM    2  N2  UNL     1     -25.531  14.642  59.229  1.00  0.00    -0.168 N 
ATOM      3  H2  UNL     1     -26.108  15.156  59.895  1.00  0.00     0.186 HD
HETATM    4  C2  UNL     1     -25.808  14.482  57.911  1.00  0.00     0.178 A 
HETATM    5  N5  UNL     1     -24.801  13.746  57.402  1.00  0.00    -0.265 N 
ATOM      6  H5  UNL     1     -24.713  13.451  56.430  1.00  0.00     0.189 HD
HETATM    7  N6  UNL     1     -23.951  13.472  58.364  1.00  0.00    -0.130 N 
ATOM      8  H6  UNL     1     -23.098  12.927  58.245  1.00  0.00     0.205 HD
ENDROOT
BRANCH   4   9
HETATM    9  S1  UNL     1     -27.170  15.059  56.952  1.00  0.00    -0.031 SA
BRANCH   9  10
HETATM   10  C3  UNL     1     -28.571  15.602  57.915  1.00  0.00     0.447 C 
BRANCH  10  11
HETATM   11  N3  UNL     1     -28.796  14.817  59.106  1.00  0.00    -0.041 N 
ATOM     12  H33 UNL     1     -28.331  13.912  59.034  1.00  0.00     0.277 HD
ATOM     13  H32 UNL     1     -28.285  15.208  59.897  1.00  0.00     0.277 HD
ATOM     14  H31 UNL     1     -29.782  14.697  59.339  1.00  0.00     0.277 HD
ENDBRANCH  10  11
BRANCH  10  15
HETATM   15  N4  UNL     1     -29.806  15.608  57.150  1.00  0.00    -0.041 N 
ATOM     16  H43 UNL     1     -29.643  15.919  56.193  1.00  0.00     0.277 HD
ATOM     17  H42 UNL     1     -30.126  14.658  56.962  1.00  0.00     0.277 HD
ATOM     18  H41 UNL     1     -30.540  16.160  57.595  1.00  0.00     0.277 HD
ENDBRANCH  10  15
ENDBRANCH   9  10
ENDBRANCH   4   9
BRANCH   1  19
HETATM   19  N1  UNL     1     -23.728  13.895  60.618  1.00  0.00    -0.233 N 
ATOM     20  H12 UNL     1     -23.090  14.602  60.985  1.00  0.00     0.174 HD
ATOM     21  H11 UNL     1     -23.716  13.145  61.310  1.00  0.00     0.174 HD
ENDBRANCH   1  19
TORSDOF 5
ENDMDL
MODEL 3
REMARK VINA RESULT: -5.247381415      1.510      4.850
REMARK  5 active torsions:
REMARK  status: ('A' for Active; 'I' for Inactive)
REMARK    1  A    between atoms: N1_1  and  C1_4 
REMARK    2  A    between atoms: C2_7  and  S1_8 
REMARK    3  A    between atoms: S1_8  and  C3_9 
REMARK    4  A    between atoms: C3_9  and  N3_10 
REMARK    5  A    between atoms: C3_9  and  N4_14 
ROOT
HETATM    1  C1  UNL     1     -24.674  13.497  60.269  1.00  0.00     0.692 A 
HETATM    2  N2  UNL     1     -25.823  14.227  60.360  1.00  0.00    -0.168 N 
ATOM      3  H2  UNL     1     -26.342  14.404  61.220  1.00  0.00     0.186 HD
HETATM    4  C2  UNL     1     -26.167  14.681  59.129  1.00  0.00     0.178 A 
HETATM    5  N5  UNL     1     -25.223  14.226  58.284  1.00  0.00    -0.265 N 
ATOM      6  H5  UNL     1     -25.194  14.394  57.278  1.00  0.00     0.189 HD
HETATM    7  N6  UNL     1     -24.347  13.528  58.967  1.00  0.00    -0.130 N 
ATOM      8  H6  UNL     1     -23.528  13.072  58.564  1.00  0.00     0.205 HD
ENDROOT
BRANCH   4   9
HETATM    9  S1  UNL     1     -27.539  15.662  58.616  1.00  0.00    -0.031 SA
BRANCH   9  10
HETATM   10  C3  UNL     1     -28.500  14.949  57.293  1.00  0.00     0.447 C 
BRANCH  10  11
HETATM   11  N3  UNL     1     -27.865  15.040  55.999  1.00  0.00    -0.041 N 
ATOM     12  H33 UNL     1     -28.487  14.696  55.268  1.00  0.00     0.277 HD
ATOM     13  H32 UNL     1     -27.780  16.013  55.708  1.00  0.00     0.277 HD
ATOM     14  H31 UNL     1     -26.960  14.570  55.952  1.00  0.00     0.277 HD
ENDBRANCH  10  11
BRANCH  10  15
HETATM   15  N4  UNL     1     -29.822  15.543  57.179  1.00  0.00    -0.041 N 
ATOM     16  H43 UNL     1     -30.390  15.044  56.496  1.00  0.00     0.277 HD
ATOM     17  H42 UNL     1     -30.377  15.366  58.016  1.00  0.00     0.277 HD
ATOM     18  H41 UNL     1     -29.786  16.541  56.967  1.00  0.00     0.277 HD
ENDBRANCH  10  15
ENDBRANCH   9  10
ENDBRANCH   4   9
BRANCH   1  19
HETATM   19  N1  UNL     1     -24.001  12.891  61.155  1.00  0.00    -0.233 N 
ATOM     20  H12 UNL     1     -23.024  12.619  61.044  1.00  0.00     0.174 HD
ATOM     21  H11 UNL     1     -24.260  12.569  62.088  1.00  0.00     0.174 HD
ENDBRANCH   1  19
TORSDOF 5
ENDMDL
MODEL 4
REMARK VINA RESULT: -5.160100411      2.198      3.196
REMARK  5 active torsions:
REMARK  status: ('A' for Active; 'I' for Inactive)
REMARK    1  A    between atoms: N1_1  and  C1_4 
REMARK    2  A    between atoms: C2_7  and  S1_8 
REMARK    3  A    between atoms: S1_8  and  C3_9 
REMARK    4  A    between atoms: C3_9  and  N3_10 
REMARK    5  A    between atoms: C3_9  and  N4_14 
ROOT
HETATM    1  C1  UNL     1     -25.680  14.365  57.561  1.00  0.00     0.692 A 
HETATM    2  N2  UNL     1     -25.945  14.816  58.822  1.00  0.00    -0.168 N 
ATOM      3  H2  UNL     1     -26.703  15.451  59.074  1.00  0.00     0.186 HD
HETATM    4  C2  UNL     1     -25.045  14.286  59.688  1.00  0.00     0.178 A 
HETATM    5  N5  UNL     1     -24.227  13.510  58.951  1.00  0.00    -0.265 N 
ATOM      6  H5  UNL     1     -23.439  12.970  59.308  1.00  0.00     0.189 HD
HETATM    7  N6  UNL     1     -24.611  13.564  57.698  1.00  0.00    -0.130 N 
ATOM      8  H6  UNL     1     -24.160  13.065  56.932  1.00  0.00     0.205 HD
ENDROOT
BRANCH   4   9
HETATM    9  S1  UNL     1     -24.874  14.500  61.430  1.00  0.00    -0.031 SA
BRANCH   9  10
HETATM   10  C3  UNL     1     -24.120  13.118  62.270  1.00  0.00     0.447 C 
BRANCH  10  11
HETATM   11  N3  UNL     1     -22.734  12.912  61.921  1.00  0.00    -0.041 N 
ATOM     12  H33 UNL     1     -22.417  13.629  61.269  1.00  0.00     0.277 HD
ATOM     13  H32 UNL     1     -22.128  13.122  62.714  1.00  0.00     0.277 HD
ATOM     14  H31 UNL     1     -22.536  11.980  61.555  1.00  0.00     0.277 HD
ENDBRANCH  10  11
BRANCH  10  15
HETATM   15  N4  UNL     1     -24.825  11.869  62.035  1.00  0.00    -0.041 N 
ATOM     16  H43 UNL     1     -24.383  11.334  61.288  1.00  0.00     0.277 HD
ATOM     17  H42 UNL     1     -24.686  11.219  62.808  1.00  0.00     0.277 HD
ATOM     18  H41 UNL     1     -25.819  12.009  61.847  1.00  0.00     0.277 HD
ENDBRANCH  10  15
ENDBRANCH   9  10
ENDBRANCH   4   9
BRANCH   1  19
HETATM   19  N1  UNL     1     -26.255  14.598  56.457  1.00  0.00    -0.233 N 
ATOM     20  H12 UNL     1     -26.495  15.533  56.124  1.00  0.00     0.174 HD
ATOM     21  H11 UNL     1     -26.578  13.966  55.724  1.00  0.00     0.174 HD
ENDBRANCH   1  19
TORSDOF 5
ENDMDL
MODEL 5
REMARK VINA RESULT: -5.158049186      1.163      5.001
REMARK  5 active torsions:
REMARK  status: ('A' for Active; 'I' for Inactive)
REMARK    1  A    between atoms: N1_1  and  C1_4 
REMARK    2  A    between atoms: C2_7  and  S1_8 
REMARK    3  A    between atoms: S1_8  and  C3_9 
REMARK    4  A    between atoms: C3_9  and  N3_10 
REMARK    5  A    between atoms: C3_9  and  N4_14 
ROOT
HETATM    1  C1  UNL     1     -24.377  13.408  60.876  1.00  0.00     0.692 A 
HETATM    2  N2  UNL     1     -24.277  13.715  59.550  1.00  0.00    -0.168 N 
ATOM      3  H2  UNL     1     -23.466  13.525  58.960  1.00  0.00     0.186 HD
HETATM    4  C2  UNL     1     -25.424  14.311  59.138  1.00  0.00     0.178 A 
HETATM    5  N5  UNL     1     -26.226  14.368  60.218  1.00  0.00    -0.265 N 
ATOM      6  H5  UNL     1     -27.166  14.762  60.240  1.00  0.00     0.189 HD
HETATM    7  N6  UNL     1     -25.599  13.832  61.238  1.00  0.00    -0.130 N 
ATOM      8  H6  UNL     1     -25.986  13.748  62.178  1.00  0.00     0.205 HD
ENDROOT
BRANCH   4   9
HETATM    9  S1  UNL     1     -25.883  14.931  57.552  1.00  0.00    -0.031 SA
BRANCH   9  10
HETATM   10  C3  UNL     1     -27.642  14.968  57.258  1.00  0.00     0.447 C 
BRANCH  10  11
HETATM   11  N3  UNL     1     -27.997  15.015  55.859  1.00  0.00    -0.041 N 
ATOM     12  H33 UNL     1     -27.161  14.995  55.276  1.00  0.00     0.277 HD
ATOM     13  H32 UNL     1     -28.430  14.139  55.568  1.00  0.00     0.277 HD
ATOM     14  H31 UNL     1     -28.589  15.809  55.612  1.00  0.00     0.277 HD
ENDBRANCH  10  11
BRANCH  10  15
HETATM   15  N4  UNL     1     -28.296  16.086  57.918  1.00  0.00    -0.041 N 
ATOM     16  H43 UNL     1     -28.229  16.934  57.355  1.00  0.00     0.277 HD
ATOM     17  H42 UNL     1     -29.309  15.970  57.920  1.00  0.00     0.277 HD
ATOM     18  H41 UNL     1     -27.943  16.245  58.862  1.00  0.00     0.277 HD
ENDBRANCH  10  15
ENDBRANCH   9  10
ENDBRANCH   4   9
BRANCH   1  19
HETATM   19  N1  UNL     1     -23.556  12.853  61.665  1.00  0.00    -0.233 N 
ATOM     20  H12 UNL     1     -22.543  12.869  61.540  1.00  0.00     0.174 HD
ATOM     21  H11 UNL     1     -23.707  12.316  62.519  1.00  0.00     0.174 HD
ENDBRANCH   1  19
TORSDOF 5
ENDMDL
