MODEL 1
REMARK VINA RESULT: -4.083193225      0.000      0.000
REMARK  4 active torsions:
REMARK  status: ('A' for Active; 'I' for Inactive)
REMARK    1  A    between atoms: C1_1  and  C2_2 
REMARK    2  A    between atoms: C1_1  and  N3_9 
REMARK    3  A    between atoms: C2_2  and  N1_3 
REMARK    4  A    between atoms: N3_9  and  C5_11 
ROOT
HETATM    1  C1  UNL     1      20.355  67.708  94.621  1.00  0.00     0.153 C 
ENDROOT
BRANCH   1   2
HETATM    2  C2  UNL     1      20.634  69.075  94.124  1.00  0.00     0.296 C 
BRANCH   2   3
HETATM    3  N1  UNL     1      21.863  69.231  93.402  1.00  0.00     0.141 N 
HETATM    4  C3  UNL     1      23.069  69.335  94.188  1.00  0.00     0.507 C 
HETATM    5  N2  UNL     1      22.591  70.682  94.543  1.00  0.00    -0.022 N 
HETATM    6  C4  UNL     1      22.056  70.679  93.168  1.00  0.00     0.507 C 
ATOM      7  H22 UNL     1      22.010  70.864  95.362  1.00  0.00     0.281 HD
ATOM      8  H21 UNL     1      23.210  71.414  94.894  1.00  0.00     0.281 HD
ENDBRANCH   2   3
ENDBRANCH   1   2
BRANCH   1   9
HETATM    9  N3  UNL     1      19.964  67.660  96.011  1.00  0.00    -0.358 N 
ATOM     10  H3  UNL     1      19.085  67.212  96.266  1.00  0.00     0.162 HD
BRANCH   9  11
HETATM   11  C5  UNL     1      20.776  68.221  97.029  1.00  0.00     0.209 A 
HETATM   12  N4  UNL     1      21.416  68.037  98.195  1.00  0.00    -0.267 N 
HETATM   13  N5  UNL     1      21.514  69.275  97.640  1.00  0.00    -0.267 N 
ATOM     14  H4  UNL     1      21.658  67.409  98.960  1.00  0.00     0.190 HD
ATOM     15  H5  UNL     1      21.858  70.235  97.652  1.00  0.00     0.190 HD
ENDBRANCH   9  11
ENDBRANCH   1   9
TORSDOF 4
ENDMDL
MODEL 2
REMARK VINA RESULT: -4.021414851      3.301      5.871
REMARK  4 active torsions:
REMARK  status: ('A' for Active; 'I' for Inactive)
REMARK    1  A    between atoms: C1_1  and  C2_2 
REMARK    2  A    between atoms: C1_1  and  N3_9 
REMARK    3  A    between atoms: C2_2  and  N1_3 
REMARK    4  A    between atoms: N3_9  and  C5_11 
ROOT
HETATM    1  C1  UNL     1      23.905  68.022  92.170  1.00  0.00     0.153 C 
ENDROOT
BRANCH   1   2
HETATM    2  C2  UNL     1      23.379  69.339  92.599  1.00  0.00     0.296 C 
BRANCH   2   3
HETATM    3  N1  UNL     1      22.135  69.305  93.312  1.00  0.00     0.141 N 
HETATM    4  C3  UNL     1      21.414  70.550  93.418  1.00  0.00     0.507 C 
HETATM    5  N2  UNL     1      22.461  70.951  94.374  1.00  0.00    -0.022 N 
HETATM    6  C4  UNL     1      22.442  69.522  94.744  1.00  0.00     0.507 C 
ATOM      7  H22 UNL     1      23.311  71.436  94.090  1.00  0.00     0.281 HD
ATOM      8  H21 UNL     1      22.331  71.700  95.054  1.00  0.00     0.281 HD
ENDBRANCH   2   3
ENDBRANCH   1   2
BRANCH   1   9
HETATM    9  N3  UNL     1      24.849  68.098  91.079  1.00  0.00    -0.358 N 
ATOM     10  H3  UNL     1      25.846  68.149  91.286  1.00  0.00     0.162 HD
BRANCH   9  11
HETATM   11  C5  UNL     1      24.421  68.102  89.728  1.00  0.00     0.209 A 
HETATM   12  N4  UNL     1      24.255  68.805  88.596  1.00  0.00    -0.267 N 
HETATM   13  N5  UNL     1      23.882  67.498  88.555  1.00  0.00    -0.267 N 
ATOM     14  H4  UNL     1      24.346  69.696  88.109  1.00  0.00     0.190 HD
ATOM     15  H5  UNL     1      23.503  66.692  88.058  1.00  0.00     0.190 HD
ENDBRANCH   9  11
ENDBRANCH   1   9
TORSDOF 4
ENDMDL
MODEL 3
REMARK VINA RESULT: -3.941765665      1.286      3.908
REMARK  4 active torsions:
REMARK  status: ('A' for Active; 'I' for Inactive)
REMARK    1  A    between atoms: C1_1  and  C2_2 
REMARK    2  A    between atoms: C1_1  and  N3_9 
REMARK    3  A    between atoms: C2_2  and  N1_3 
REMARK    4  A    between atoms: N3_9  and  C5_11 
ROOT
HETATM    1  C1  UNL     1      19.255  69.520  94.571  1.00  0.00     0.153 C 
ENDROOT
BRANCH   1   2
HETATM    2  C2  UNL     1      20.241  68.476  94.936  1.00  0.00     0.296 C 
BRANCH   2   3
HETATM    3  N1  UNL     1      20.117  67.946  96.263  1.00  0.00     0.141 N 
HETATM    4  C3  UNL     1      20.171  68.896  97.348  1.00  0.00     0.507 C 
HETATM    5  N2  UNL     1      21.609  68.996  97.044  1.00  0.00    -0.022 N 
HETATM    6  C4  UNL     1      21.473  67.564  96.714  1.00  0.00     0.507 C 
ATOM      7  H22 UNL     1      21.989  69.681  96.391  1.00  0.00     0.281 HD
ATOM      8  H21 UNL     1      22.293  69.346  97.716  1.00  0.00     0.281 HD
ENDBRANCH   2   3
ENDBRANCH   1   2
BRANCH   1   9
HETATM    9  N3  UNL     1      19.851  70.741  94.083  1.00  0.00    -0.358 N 
ATOM     10  H3  UNL     1      19.270  71.572  93.980  1.00  0.00     0.162 HD
BRANCH   9  11
HETATM   11  C5  UNL     1      21.226  70.812  93.746  1.00  0.00     0.209 A 
HETATM   12  N4  UNL     1      22.488  70.986  94.171  1.00  0.00    -0.267 N 
HETATM   13  N5  UNL     1      22.324  70.772  92.838  1.00  0.00    -0.267 N 
ATOM     14  H4  UNL     1      23.124  71.159  94.949  1.00  0.00     0.190 HD
ATOM     15  H5  UNL     1      22.702  70.665  91.897  1.00  0.00     0.190 HD
ENDBRANCH   9  11
ENDBRANCH   1   9
TORSDOF 4
ENDMDL
MODEL 4
REMARK VINA RESULT: -3.908909074      1.250      1.250
REMARK  4 active torsions:
REMARK  status: ('A' for Active; 'I' for Inactive)
REMARK    1  A    between atoms: C1_1  and  C2_2 
REMARK    2  A    between atoms: C1_1  and  N3_9 
REMARK    3  A    between atoms: C2_2  and  N1_3 
REMARK    4  A    between atoms: N3_9  and  C5_11 
ROOT
HETATM    1  C1  UNL     1      22.105  67.284  94.168  1.00  0.00     0.153 C 
ENDROOT
BRANCH   1   2
HETATM    2  C2  UNL     1      21.444  68.583  93.903  1.00  0.00     0.296 C 
BRANCH   2   3
HETATM    3  N1  UNL     1      22.166  69.480  93.048  1.00  0.00     0.141 N 
HETATM    4  C3  UNL     1      23.414  69.997  93.556  1.00  0.00     0.507 C 
HETATM    5  N2  UNL     1      22.584  70.815  94.457  1.00  0.00    -0.022 N 
HETATM    6  C4  UNL     1      21.656  70.845  93.310  1.00  0.00     0.507 C 
ATOM      7  H22 UNL     1      22.304  70.502  95.387  1.00  0.00     0.281 HD
ATOM      8  H21 UNL     1      22.929  71.662  94.911  1.00  0.00     0.281 HD
ENDBRANCH   2   3
ENDBRANCH   1   2
BRANCH   1   9
HETATM    9  N3  UNL     1      22.605  67.148  95.517  1.00  0.00    -0.358 N 
ATOM     10  H3  UNL     1      23.408  66.545  95.692  1.00  0.00     0.162 HD
BRANCH   9  11
HETATM   11  C5  UNL     1      22.005  67.834  96.602  1.00  0.00     0.209 A 
HETATM   12  N4  UNL     1      21.405  67.750  97.800  1.00  0.00    -0.267 N 
HETATM   13  N5  UNL     1      21.568  69.001  97.293  1.00  0.00    -0.267 N 
ATOM     14  H4  UNL     1      21.064  67.160  98.559  1.00  0.00     0.190 HD
ATOM     15  H5  UNL     1      21.460  70.013  97.359  1.00  0.00     0.190 HD
ENDBRANCH   9  11
ENDBRANCH   1   9
TORSDOF 4
ENDMDL
MODEL 5
REMARK VINA RESULT: -3.908009565      2.411      2.795
REMARK  4 active torsions:
REMARK  status: ('A' for Active; 'I' for Inactive)
REMARK    1  A    between atoms: C1_1  and  C2_2 
REMARK    2  A    between atoms: C1_1  and  N3_9 
REMARK    3  A    between atoms: C2_2  and  N1_3 
REMARK    4  A    between atoms: N3_9  and  C5_11 
ROOT
HETATM    1  C1  UNL     1      19.840  68.726  95.168  1.00  0.00     0.153 C 
ENDROOT
BRANCH   1   2
HETATM    2  C2  UNL     1      20.349  69.631  94.111  1.00  0.00     0.296 C 
BRANCH   2   3
HETATM    3  N1  UNL     1      21.631  69.288  93.568  1.00  0.00     0.141 N 
HETATM    4  C3  UNL     1      22.745  69.290  94.486  1.00  0.00     0.507 C 
HETATM    5  N2  UNL     1      22.629  70.758  94.453  1.00  0.00    -0.022 N 
HETATM    6  C4  UNL     1      22.237  70.534  93.049  1.00  0.00     0.507 C 
ATOM      7  H22 UNL     1      22.052  71.282  95.112  1.00  0.00     0.281 HD
ATOM      8  H21 UNL     1      23.394  71.379  94.722  1.00  0.00     0.281 HD
ENDBRANCH   2   3
ENDBRANCH   1   2
BRANCH   1   9
HETATM    9  N3  UNL     1      19.091  69.400  96.203  1.00  0.00    -0.358 N 
ATOM     10  H3  UNL     1      19.257  69.153  97.178  1.00  0.00     0.162 HD
BRANCH   9  11
HETATM   11  C5  UNL     1      18.131  70.395  95.894  1.00  0.00     0.209 A 
HETATM   12  N4  UNL     1      16.840  70.692  95.675  1.00  0.00    -0.267 N 
HETATM   13  N5  UNL     1      17.720  71.726  95.592  1.00  0.00    -0.267 N 
ATOM     14  H4  UNL     1      15.875  70.369  95.614  1.00  0.00     0.190 HD
ATOM     15  H5  UNL     1      17.928  72.711  95.433  1.00  0.00     0.190 HD
ENDBRANCH   9  11
ENDBRANCH   1   9
TORSDOF 4
ENDMDL
