MODEL 1
REMARK VINA RESULT: -8.156970417      0.000      0.000
REMARK  1 active torsions:
REMARK  status: ('A' for Active; 'I' for Inactive)
REMARK    1  A    between atoms: C7_9  and  O3_10 
ROOT
HETATM    1  C1  UNL     1      62.439  75.541  -6.057  1.00  0.00     0.076 C 
HETATM    2  C2  UNL     1      61.005  75.414  -6.353  1.00  0.00     0.042 C 
HETATM    3  C3  UNL     1      60.457  76.070  -7.369  1.00  0.00     0.040 C 
HETATM    4  C4  UNL     1      59.020  75.846  -7.541  1.00  0.00     0.195 C 
HETATM    5  O1  UNL     1      58.328  76.773  -8.267  1.00  0.00    -0.231 OA
HETATM    6  O2  UNL     1      57.066  76.455  -7.955  1.00  0.00    -0.234 OA
HETATM    7  C5  UNL     1      57.038  76.378  -6.539  1.00  0.00     0.172 C 
HETATM    8  C6  UNL     1      55.988  75.431  -6.154  1.00  0.00     0.067 C 
HETATM    9  C7  UNL     1      54.615  76.011  -6.294  1.00  0.00     0.120 C 
HETATM   10  C8  UNL     1      54.336  77.168  -5.398  1.00  0.00     0.032 C 
HETATM   11  C9  UNL     1      54.494  76.870  -3.934  1.00  0.00     0.007 C 
HETATM   12  C10 UNL     1      55.393  77.899  -3.332  1.00  0.00    -0.015 C 
HETATM   13  C11 UNL     1      54.545  79.098  -2.876  1.00  0.00     0.010 C 
HETATM   14  C12 UNL     1      56.171  77.446  -2.151  1.00  0.00    -0.015 C 
HETATM   15  C13 UNL     1      55.267  77.326  -0.963  1.00  0.00     0.010 C 
HETATM   16  C14 UNL     1      56.982  76.211  -2.357  1.00  0.00     0.008 C 
HETATM   17  C15 UNL     1      58.149  76.477  -3.319  1.00  0.00     0.046 C 
HETATM   18  C16 UNL     1      58.764  75.218  -3.812  1.00  0.00     0.127 C 
HETATM   19  C17 UNL     1      60.170  75.137  -3.193  1.00  0.00     0.054 C 
HETATM   20  F1  UNL     1      58.083  74.154  -3.193  1.00  0.00    -0.241 F 
HETATM   21  C18 UNL     1      58.794  75.022  -5.290  1.00  0.00     0.177 C 
HETATM   22  O4  UNL     1      60.117  74.625  -5.628  1.00  0.00    -0.347 OA
HETATM   23  C19 UNL     1      58.413  76.132  -6.144  1.00  0.00     0.086 C 
ENDROOT
BRANCH   9  24
HETATM   24  O3  UNL     1      53.613  75.062  -6.099  1.00  0.00    -0.395 OA
ATOM     25  H3  UNL     1      53.733  74.289  -6.638  1.00  0.00     0.210 HD
ENDBRANCH   9  24
TORSDOF 1
ENDMDL
MODEL 2
REMARK VINA RESULT: -7.783258775      2.400      5.345
REMARK  1 active torsions:
REMARK  status: ('A' for Active; 'I' for Inactive)
REMARK    1  A    between atoms: C7_9  and  O3_10 
ROOT
HETATM    1  C1  UNL     1      54.494  75.436  -6.246  1.00  0.00     0.076 C 
HETATM    2  C2  UNL     1      55.722  76.238  -6.136  1.00  0.00     0.042 C 
HETATM    3  C3  UNL     1      56.655  76.188  -7.078  1.00  0.00     0.040 C 
HETATM    4  C4  UNL     1      57.822  77.039  -6.833  1.00  0.00     0.195 C 
HETATM    5  O1  UNL     1      58.967  76.737  -7.512  1.00  0.00    -0.231 OA
HETATM    6  O2  UNL     1      59.867  77.460  -6.834  1.00  0.00    -0.234 OA
HETATM    7  C5  UNL     1      59.651  77.144  -5.468  1.00  0.00     0.172 C 
HETATM    8  C6  UNL     1      60.057  78.298  -4.663  1.00  0.00     0.067 C 
HETATM    9  C7  UNL     1      61.544  78.421  -4.548  1.00  0.00     0.120 C 
HETATM   10  C8  UNL     1      62.206  77.293  -3.835  1.00  0.00     0.032 C 
HETATM   11  C9  UNL     1      61.716  77.075  -2.432  1.00  0.00     0.007 C 
HETATM   12  C10 UNL     1      61.337  75.639  -2.276  1.00  0.00    -0.015 C 
HETATM   13  C11 UNL     1      62.577  74.840  -1.841  1.00  0.00     0.010 C 
HETATM   14  C12 UNL     1      60.277  75.370  -1.272  1.00  0.00    -0.015 C 
HETATM   15  C13 UNL     1      60.833  75.526   0.109  1.00  0.00     0.010 C 
HETATM   16  C14 UNL     1      59.016  76.146  -1.454  1.00  0.00     0.008 C 
HETATM   17  C15 UNL     1      58.268  75.690  -2.714  1.00  0.00     0.046 C 
HETATM   18  C16 UNL     1      57.207  76.651  -3.112  1.00  0.00     0.127 C 
HETATM   19  C17 UNL     1      55.859  75.950  -2.871  1.00  0.00     0.054 C 
HETATM   20  F1  UNL     1      57.204  77.683  -2.159  1.00  0.00    -0.241 F 
HETATM   21  C18 UNL     1      57.302  77.218  -4.488  1.00  0.00     0.177 C 
HETATM   22  O4  UNL     1      56.014  77.092  -5.078  1.00  0.00    -0.347 OA
HETATM   23  C19 UNL     1      58.283  76.662  -5.402  1.00  0.00     0.086 C 
ENDROOT
BRANCH   9  24
HETATM   24  O3  UNL     1      61.936  79.610  -3.934  1.00  0.00    -0.395 OA
ATOM     25  H3  UNL     1      61.616  80.378  -4.392  1.00  0.00     0.210 HD
ENDBRANCH   9  24
TORSDOF 1
ENDMDL
MODEL 3
REMARK VINA RESULT: -7.758904394      2.646      6.280
REMARK  1 active torsions:
REMARK  status: ('A' for Active; 'I' for Inactive)
REMARK    1  A    between atoms: C7_9  and  O3_10 
ROOT
HETATM    1  C1  UNL     1      53.766  77.555  -5.363  1.00  0.00     0.076 C 
HETATM    2  C2  UNL     1      54.793  77.081  -4.424  1.00  0.00     0.042 C 
HETATM    3  C3  UNL     1      54.931  77.636  -3.227  1.00  0.00     0.040 C 
HETATM    4  C4  UNL     1      55.996  77.061  -2.401  1.00  0.00     0.195 C 
HETATM    5  O1  UNL     1      56.463  77.822  -1.369  1.00  0.00    -0.231 OA
HETATM    6  O2  UNL     1      57.590  77.170  -1.058  1.00  0.00    -0.234 OA
HETATM    7  C5  UNL     1      58.276  76.998  -2.288  1.00  0.00     0.172 C 
HETATM    8  C6  UNL     1      59.099  75.791  -2.187  1.00  0.00     0.067 C 
HETATM    9  C7  UNL     1      60.331  76.004  -1.365  1.00  0.00     0.120 C 
HETATM   10  C8  UNL     1      61.292  76.991  -1.932  1.00  0.00     0.032 C 
HETATM   11  C9  UNL     1      61.788  76.651  -3.308  1.00  0.00     0.007 C 
HETATM   12  C10 UNL     1      61.588  77.838  -4.194  1.00  0.00    -0.015 C 
HETATM   13  C11 UNL     1      62.825  78.745  -4.100  1.00  0.00     0.010 C 
HETATM   14  C12 UNL     1      61.389  77.527  -5.631  1.00  0.00    -0.015 C 
HETATM   15  C13 UNL     1      62.687  77.103  -6.245  1.00  0.00     0.010 C 
HETATM   16  C14 UNL     1      60.293  76.559  -5.929  1.00  0.00     0.008 C 
HETATM   17  C15 UNL     1      58.920  77.177  -5.629  1.00  0.00     0.046 C 
HETATM   18  C16 UNL     1      57.845  76.153  -5.584  1.00  0.00     0.127 C 
HETATM   19  C17 UNL     1      56.943  76.399  -6.806  1.00  0.00     0.054 C 
HETATM   20  F1  UNL     1      58.441  74.913  -5.873  1.00  0.00    -0.241 F 
HETATM   21  C18 UNL     1      57.058  76.066  -4.320  1.00  0.00     0.177 C 
HETATM   22  O4  UNL     1      55.685  76.046  -4.687  1.00  0.00    -0.347 OA
HETATM   23  C19 UNL     1      57.250  77.091  -3.311  1.00  0.00     0.086 C 
ENDROOT
BRANCH   9  24
HETATM   24  O3  UNL     1      61.022  74.818  -1.122  1.00  0.00    -0.395 OA
ATOM     25  H3  UNL     1      60.441  74.078  -0.993  1.00  0.00     0.210 HD
ENDBRANCH   9  24
TORSDOF 1
ENDMDL
MODEL 4
REMARK VINA RESULT: -7.753760557      2.257      4.287
REMARK  1 active torsions:
REMARK  status: ('A' for Active; 'I' for Inactive)
REMARK    1  A    between atoms: C7_9  and  O3_10 
ROOT
HETATM    1  C1  UNL     1      59.621  74.296  -9.310  1.00  0.00     0.076 C 
HETATM    2  C2  UNL     1      60.025  74.777  -7.980  1.00  0.00     0.042 C 
HETATM    3  C3  UNL     1      60.598  73.960  -7.105  1.00  0.00     0.040 C 
HETATM    4  C4  UNL     1      60.946  74.578  -5.824  1.00  0.00     0.195 C 
HETATM    5  O1  UNL     1      61.141  73.743  -4.762  1.00  0.00    -0.231 OA
HETATM    6  O2  UNL     1      61.109  74.610  -3.742  1.00  0.00    -0.234 OA
HETATM    7  C5  UNL     1      59.933  75.378  -3.939  1.00  0.00     0.172 C 
HETATM    8  C6  UNL     1      60.145  76.699  -3.344  1.00  0.00     0.067 C 
HETATM    9  C7  UNL     1      60.053  76.676  -1.851  1.00  0.00     0.120 C 
HETATM   10  C8  UNL     1      58.712  76.304  -1.317  1.00  0.00     0.032 C 
HETATM   11  C9  UNL     1      57.596  77.202  -1.770  1.00  0.00     0.007 C 
HETATM   12  C10 UNL     1      56.502  76.356  -2.334  1.00  0.00    -0.015 C 
HETATM   13  C11 UNL     1      55.553  75.944  -1.197  1.00  0.00     0.010 C 
HETATM   14  C12 UNL     1      55.671  77.009  -3.375  1.00  0.00    -0.015 C 
HETATM   15  C13 UNL     1      54.764  78.019  -2.743  1.00  0.00     0.010 C 
HETATM   16  C14 UNL     1      56.426  77.586  -4.526  1.00  0.00     0.008 C 
HETATM   17  C15 UNL     1      57.049  76.475  -5.384  1.00  0.00     0.046 C 
HETATM   18  C16 UNL     1      58.074  77.002  -6.320  1.00  0.00     0.127 C 
HETATM   19  C17 UNL     1      57.499  76.855  -7.739  1.00  0.00     0.054 C 
HETATM   20  F1  UNL     1      58.123  78.396  -6.140  1.00  0.00    -0.241 F 
HETATM   21  C18 UNL     1      59.442  76.419  -6.210  1.00  0.00     0.177 C 
HETATM   22  O4  UNL     1      59.855  76.081  -7.528  1.00  0.00    -0.347 OA
HETATM   23  C19 UNL     1      59.636  75.262  -5.356  1.00  0.00     0.086 C 
ENDROOT
BRANCH   9  24
HETATM   24  O3  UNL     1      60.427  77.889  -1.274  1.00  0.00    -0.395 OA
ATOM     25  H3  UNL     1      61.192  78.269  -1.689  1.00  0.00     0.210 HD
ENDBRANCH   9  24
TORSDOF 1
ENDMDL
MODEL 5
REMARK VINA RESULT: -7.548291062      0.983      1.006
REMARK  1 active torsions:
REMARK  status: ('A' for Active; 'I' for Inactive)
REMARK    1  A    between atoms: C7_9  and  O3_10 
ROOT
HETATM    1  C1  UNL     1      63.050  77.195  -5.699  1.00  0.00     0.076 C 
HETATM    2  C2  UNL     1      61.685  76.817  -6.094  1.00  0.00     0.042 C 
HETATM    3  C3  UNL     1      61.058  77.453  -7.076  1.00  0.00     0.040 C 
HETATM    4  C4  UNL     1      59.706  76.968  -7.358  1.00  0.00     0.195 C 
HETATM    5  O1  UNL     1      58.870  77.809  -8.034  1.00  0.00    -0.231 OA
HETATM    6  O2  UNL     1      57.687  77.215  -7.832  1.00  0.00    -0.234 OA
HETATM    7  C5  UNL     1      57.616  76.984  -6.434  1.00  0.00     0.172 C 
HETATM    8  C6  UNL     1      56.767  75.812  -6.207  1.00  0.00     0.067 C 
HETATM    9  C7  UNL     1      55.312  76.118  -6.376  1.00  0.00     0.120 C 
HETATM   10  C8  UNL     1      54.765  77.096  -5.394  1.00  0.00     0.032 C 
HETATM   11  C9  UNL     1      54.920  76.682  -3.958  1.00  0.00     0.007 C 
HETATM   12  C10 UNL     1      55.563  77.801  -3.206  1.00  0.00    -0.015 C 
HETATM   13  C11 UNL     1      54.470  78.751  -2.692  1.00  0.00     0.010 C 
HETATM   14  C12 UNL     1      56.367  77.390  -2.027  1.00  0.00    -0.015 C 
HETATM   15  C13 UNL     1      55.459  76.968  -0.915  1.00  0.00     0.010 C 
HETATM   16  C14 UNL     1      57.422  76.371  -2.299  1.00  0.00     0.008 C 
HETATM   17  C15 UNL     1      58.548  76.964  -3.157  1.00  0.00     0.046 C 
HETATM   18  C16 UNL     1      59.428  75.911  -3.727  1.00  0.00     0.127 C 
HETATM   19  C17 UNL     1      60.794  76.048  -3.032  1.00  0.00     0.054 C 
HETATM   20  F1  UNL     1      58.954  74.675  -3.256  1.00  0.00    -0.241 F 
HETATM   21  C18 UNL     1      59.559  75.882  -5.212  1.00  0.00     0.177 C 
HETATM   22  O4  UNL     1      60.948  75.795  -5.504  1.00  0.00    -0.347 OA
HETATM   23  C19 UNL     1      58.995  76.978  -5.980  1.00  0.00     0.086 C 
ENDROOT
BRANCH   9  24
HETATM   24  O3  UNL     1      54.518  74.973  -6.334  1.00  0.00    -0.395 OA
ATOM     25  H3  UNL     1      54.394  74.648  -5.450  1.00  0.00     0.210 HD
ENDBRANCH   9  24
TORSDOF 1
ENDMDL
