MODEL 1
REMARK VINA RESULT: -7.322322359      0.000      0.000
REMARK  0 active torsions:
REMARK  status: ('A' for Active; 'I' for Inactive)
ROOT
HETATM    1  N1  UNL     1      61.613  79.399  -0.712  1.00  0.00    -0.193 NA
HETATM    2  C1  UNL     1      61.448  78.400  -1.240  1.00  0.00     0.112 C 
HETATM    3  C2  UNL     1      61.224  77.111  -1.944  1.00  0.00     0.239 C 
HETATM    4  C3  UNL     1      61.399  76.069  -0.921  1.00  0.00     0.112 C 
HETATM    5  N2  UNL     1      61.564  75.233  -0.107  1.00  0.00    -0.193 NA
HETATM    6  N3  UNL     1      62.245  76.929  -2.945  1.00  0.00    -0.351 N 
ATOM      7  H3  UNL     1      63.004  76.312  -2.658  1.00  0.00     0.163 HD
HETATM    8  C4  UNL     1      62.388  77.454  -4.259  1.00  0.00     0.059 A 
HETATM    9  C5  UNL     1      63.705  77.535  -4.661  1.00  0.00     0.050 A 
HETATM   10  C6  UNL     1      64.012  78.024  -5.912  1.00  0.00     0.013 A 
HETATM   11 BR1  UNL     1      65.829  78.135  -6.467  1.00  0.00    -0.051 Br
HETATM   12  C7  UNL     1      62.974  78.431  -6.758  1.00  0.00     0.021 A 
HETATM   13  C8  UNL     1      61.681  78.332  -6.316  1.00  0.00     0.034 A 
HETATM   14  C9  UNL     1      61.342  77.847  -5.069  1.00  0.00     0.073 A 
HETATM   15  N4  UNL     1      59.943  77.829  -4.812  1.00  0.00    -0.272 N 
HETATM   16  S1  UNL     1      58.905  78.452  -6.078  1.00  0.00     0.051 SA
HETATM   17  C10 UNL     1      59.251  77.367  -3.651  1.00  0.00     0.058 A 
HETATM   18  C11 UNL     1      57.882  77.252  -3.886  1.00  0.00     0.031 A 
HETATM   19  C12 UNL     1      57.090  76.827  -2.866  1.00  0.00     0.002 A 
HETATM   20  C13 UNL     1      57.620  76.520  -1.636  1.00  0.00     0.001 A 
HETATM   21  C14 UNL     1      58.970  76.642  -1.433  1.00  0.00     0.014 A 
HETATM   22  C15 UNL     1      59.837  77.072  -2.440  1.00  0.00     0.026 A 
ENDROOT
TORSDOF 0
ENDMDL
MODEL 2
REMARK VINA RESULT: -7.224529333      3.698      4.839
REMARK  0 active torsions:
REMARK  status: ('A' for Active; 'I' for Inactive)
ROOT
HETATM    1  N1  UNL     1      59.167  79.208  -5.813  1.00  0.00    -0.193 NA
HETATM    2  C1  UNL     1      58.903  78.255  -5.240  1.00  0.00     0.112 C 
HETATM    3  C2  UNL     1      58.542  77.013  -4.510  1.00  0.00     0.239 C 
HETATM    4  C3  UNL     1      59.222  77.111  -3.210  1.00  0.00     0.112 C 
HETATM    5  N2  UNL     1      59.787  77.176  -2.178  1.00  0.00    -0.193 NA
HETATM    6  N3  UNL     1      59.079  75.874  -5.211  1.00  0.00    -0.351 N 
ATOM      7  H3  UNL     1      59.947  75.513  -4.815  1.00  0.00     0.163 HD
HETATM    8  C4  UNL     1      58.620  75.161  -6.353  1.00  0.00     0.059 A 
HETATM    9  C5  UNL     1      59.644  74.549  -7.046  1.00  0.00     0.050 A 
HETATM   10  C6  UNL     1      59.364  73.818  -8.180  1.00  0.00     0.013 A 
HETATM   11 BR1  UNL     1      60.776  72.974  -9.136  1.00  0.00    -0.051 Br
HETATM   12  C7  UNL     1      58.036  73.708  -8.608  1.00  0.00     0.021 A 
HETATM   13  C8  UNL     1      57.053  74.332  -7.888  1.00  0.00     0.034 A 
HETATM   14  C9  UNL     1      57.302  75.072  -6.749  1.00  0.00     0.073 A 
HETATM   15  N4  UNL     1      56.138  75.634  -6.154  1.00  0.00    -0.272 N 
HETATM   16  S1  UNL     1      54.618  75.337  -6.971  1.00  0.00     0.051 SA
HETATM   17  C10 UNL     1      56.030  76.418  -4.965  1.00  0.00     0.058 A 
HETATM   18  C11 UNL     1      54.703  76.544  -4.557  1.00  0.00     0.031 A 
HETATM   19  C12 UNL     1      54.443  77.272  -3.439  1.00  0.00     0.002 A 
HETATM   20  C13 UNL     1      55.456  77.869  -2.728  1.00  0.00     0.001 A 
HETATM   21  C14 UNL     1      56.751  77.729  -3.152  1.00  0.00     0.014 A 
HETATM   22  C15 UNL     1      57.085  76.993  -4.292  1.00  0.00     0.026 A 
ENDROOT
TORSDOF 0
ENDMDL
MODEL 3
REMARK VINA RESULT: -7.186051778      2.770      4.946
REMARK  0 active torsions:
REMARK  status: ('A' for Active; 'I' for Inactive)
ROOT
HETATM    1  N1  UNL     1      55.811  75.355  -6.241  1.00  0.00    -0.193 NA
HETATM    2  C1  UNL     1      56.013  76.297  -5.627  1.00  0.00     0.112 C 
HETATM    3  C2  UNL     1      56.292  77.511  -4.819  1.00  0.00     0.239 C 
HETATM    4  C3  UNL     1      55.084  78.343  -4.930  1.00  0.00     0.112 C 
HETATM    5  N2  UNL     1      54.127  79.021  -5.040  1.00  0.00    -0.193 NA
HETATM    6  N3  UNL     1      57.389  78.236  -5.408  1.00  0.00    -0.351 N 
ATOM      7  H3  UNL     1      57.104  79.031  -5.980  1.00  0.00     0.163 HD
HETATM    8  C4  UNL     1      58.797  78.045  -5.339  1.00  0.00     0.059 A 
HETATM    9  C5  UNL     1      59.457  78.536  -6.447  1.00  0.00     0.050 A 
HETATM   10  C6  UNL     1      60.828  78.428  -6.532  1.00  0.00     0.013 A 
HETATM   11 BR1  UNL     1      61.738  79.104  -8.061  1.00  0.00    -0.051 Br
HETATM   12  C7  UNL     1      61.530  77.819  -5.486  1.00  0.00     0.021 A 
HETATM   13  C8  UNL     1      60.832  77.348  -4.405  1.00  0.00     0.034 A 
HETATM   14  C9  UNL     1      59.460  77.441  -4.291  1.00  0.00     0.073 A 
HETATM   15  N4  UNL     1      58.937  76.888  -3.088  1.00  0.00    -0.272 N 
HETATM   16  S1  UNL     1      60.093  76.159  -1.993  1.00  0.00     0.051 SA
HETATM   17  C10 UNL     1      57.583  76.844  -2.637  1.00  0.00     0.058 A 
HETATM   18  C11 UNL     1      57.505  76.479  -1.294  1.00  0.00     0.031 A 
HETATM   19  C12 UNL     1      56.274  76.389  -0.725  1.00  0.00     0.002 A 
HETATM   20  C13 UNL     1      55.135  76.648  -1.450  1.00  0.00     0.001 A 
HETATM   21  C14 UNL     1      55.241  77.005  -2.768  1.00  0.00     0.014 A 
HETATM   22  C15 UNL     1      56.477  77.117  -3.411  1.00  0.00     0.026 A 
ENDROOT
TORSDOF 0
ENDMDL
MODEL 4
REMARK VINA RESULT: -7.135934914      2.916      4.323
REMARK  0 active torsions:
REMARK  status: ('A' for Active; 'I' for Inactive)
ROOT
HETATM    1  N1  UNL     1      58.475  76.395  -1.287  1.00  0.00    -0.193 NA
HETATM    2  C1  UNL     1      59.510  76.715  -1.650  1.00  0.00     0.112 C 
HETATM    3  C2  UNL     1      60.859  77.110  -2.131  1.00  0.00     0.239 C 
HETATM    4  C3  UNL     1      61.230  78.289  -1.335  1.00  0.00     0.112 C 
HETATM    5  N2  UNL     1      61.516  79.250  -0.716  1.00  0.00    -0.193 NA
HETATM    6  N3  UNL     1      60.774  77.511  -3.513  1.00  0.00    -0.351 N 
ATOM      7  H3  UNL     1      60.743  78.521  -3.652  1.00  0.00     0.163 HD
HETATM    8  C4  UNL     1      60.726  76.757  -4.718  1.00  0.00     0.059 A 
HETATM    9  C5  UNL     1      60.080  77.424  -5.738  1.00  0.00     0.050 A 
HETATM   10  C6  UNL     1      59.949  76.827  -6.973  1.00  0.00     0.013 A 
HETATM   11 BR1  UNL     1      59.059  77.747  -8.382  1.00  0.00    -0.051 Br
HETATM   12  C7  UNL     1      60.478  75.546  -7.170  1.00  0.00     0.021 A 
HETATM   13  C8  UNL     1      61.112  74.923  -6.127  1.00  0.00     0.034 A 
HETATM   14  C9  UNL     1      61.258  75.495  -4.880  1.00  0.00     0.073 A 
HETATM   15  N4  UNL     1      61.948  74.677  -3.942  1.00  0.00    -0.272 N 
HETATM   16  S1  UNL     1      62.450  73.095  -4.500  1.00  0.00     0.051 SA
HETATM   17  C10 UNL     1      62.298  74.966  -2.587  1.00  0.00     0.058 A 
HETATM   18  C11 UNL     1      63.208  74.038  -2.087  1.00  0.00     0.031 A 
HETATM   19  C12 UNL     1      63.630  74.181  -0.802  1.00  0.00     0.002 A 
HETATM   20  C13 UNL     1      63.172  75.211  -0.016  1.00  0.00     0.001 A 
HETATM   21  C14 UNL     1      62.277  76.110  -0.534  1.00  0.00     0.014 A 
HETATM   22  C15 UNL     1      61.806  76.018  -1.846  1.00  0.00     0.026 A 
ENDROOT
TORSDOF 0
ENDMDL
MODEL 5
REMARK VINA RESULT: -7.066326279      3.304      5.323
REMARK  0 active torsions:
REMARK  status: ('A' for Active; 'I' for Inactive)
ROOT
HETATM    1  N1  UNL     1      57.332  74.307  -6.444  1.00  0.00    -0.193 NA
HETATM    2  C1  UNL     1      57.622  75.359  -6.104  1.00  0.00     0.112 C 
HETATM    3  C2  UNL     1      57.991  76.721  -5.641  1.00  0.00     0.239 C 
HETATM    4  C3  UNL     1      58.094  77.535  -6.861  1.00  0.00     0.112 C 
HETATM    5  N2  UNL     1      58.202  78.182  -7.839  1.00  0.00    -0.193 NA
HETATM    6  N3  UNL     1      59.291  76.678  -5.021  1.00  0.00    -0.351 N 
ATOM      7  H3  UNL     1      60.051  76.989  -5.625  1.00  0.00     0.163 HD
HETATM    8  C4  UNL     1      59.709  76.282  -3.720  1.00  0.00     0.059 A 
HETATM    9  C5  UNL     1      61.013  75.834  -3.692  1.00  0.00     0.050 A 
HETATM   10  C6  UNL     1      61.568  75.413  -2.503  1.00  0.00     0.013 A 
HETATM   11 BR1  UNL     1      63.368  74.794  -2.464  1.00  0.00    -0.051 Br
HETATM   12  C7  UNL     1      60.793  75.449  -1.338  1.00  0.00     0.021 A 
HETATM   13  C8  UNL     1      59.502  75.903  -1.414  1.00  0.00     0.034 A 
HETATM   14  C9  UNL     1      58.918  76.331  -2.590  1.00  0.00     0.073 A 
HETATM   15  N4  UNL     1      57.570  76.762  -2.446  1.00  0.00    -0.272 N 
HETATM   16  S1  UNL     1      56.874  76.641  -0.844  1.00  0.00     0.051 SA
HETATM   17  C10 UNL     1      56.688  77.290  -3.438  1.00  0.00     0.058 A 
HETATM   18  C11 UNL     1      55.554  77.856  -2.861  1.00  0.00     0.031 A 
HETATM   19  C12 UNL     1      54.616  78.396  -3.685  1.00  0.00     0.002 A 
HETATM   20  C13 UNL     1      54.779  78.384  -5.049  1.00  0.00     0.001 A 
HETATM   21  C14 UNL     1      55.905  77.820  -5.590  1.00  0.00     0.014 A 
HETATM   22  C15 UNL     1      56.904  77.250  -4.798  1.00  0.00     0.026 A 
ENDROOT
TORSDOF 0
ENDMDL
