MODEL 1
REMARK VINA RESULT: -7.495256377      0.000      0.000
REMARK  7 active torsions:
REMARK  status: ('A' for Active; 'I' for Inactive)
REMARK    1  A    between atoms: C2_2  and  C4_4 
REMARK    2  A    between atoms: C4_4  and  N1_5 
REMARK    3  A    between atoms: C4_4  and  C11_19 
REMARK    4  A    between atoms: N1_5  and  C5_7 
REMARK    5  A    between atoms: C5_7  and  C6_11 
REMARK    6  A    between atoms: C6_11  and  O1_12 
REMARK    7  A    between atoms: C6_11  and  N3_14 
ROOT
HETATM    1  C5  UNL     1      32.917  12.988  -7.144  1.00  0.00     0.131 C 
HETATM    2  N2  UNL     1      33.684  12.649  -8.121  1.00  0.00    -0.385 N 
ATOM      3  H21 UNL     1      33.498  12.924  -9.086  1.00  0.00     0.157 HD
ATOM      4  H22 UNL     1      34.544  12.142  -7.915  1.00  0.00     0.157 HD
ENDROOT
BRANCH   1   5
HETATM    5  N1  UNL     1      33.177  12.605  -5.797  1.00  0.00    -0.363 N 
ATOM      6  H1  UNL     1      32.564  12.922  -5.045  1.00  0.00     0.161 HD
BRANCH   5   7
HETATM    7  C4  UNL     1      34.338  11.746  -5.497  1.00  0.00     0.175 C 
BRANCH   7   8
HETATM    8  C2  UNL     1      33.922  10.483  -4.885  1.00  0.00     0.009 C 
HETATM    9  C1  UNL     1      33.263  10.408  -3.595  1.00  0.00     0.012 C 
HETATM   10  C3  UNL     1      34.795   9.297  -5.232  1.00  0.00     0.012 C 
ENDBRANCH   7   8
BRANCH   7  11
HETATM   11  C11 UNL     1      35.074  12.697  -4.556  1.00  0.00     0.254 C 
HETATM   12  N4  UNL     1      36.416  12.361  -4.245  1.00  0.00    -0.060 NA
HETATM   13  O2  UNL     1      34.533  13.690  -4.092  1.00  0.00    -0.275 OA
ENDBRANCH   7  11
ENDBRANCH   5   7
ENDBRANCH   1   5
BRANCH   1  14
HETATM   14  C6  UNL     1      31.683  13.716  -7.440  1.00  0.00     0.424 C 
BRANCH  14  15
HETATM   15  O1  UNL     1      30.658  13.062  -6.750  1.00  0.00    -0.362 OA
ATOM     16  H1  UNL     1      29.903  13.638  -6.776  1.00  0.00     0.212 HD
ENDBRANCH  14  15
BRANCH  14  17
HETATM   17  N3  UNL     1      31.420  14.068  -8.774  1.00  0.00     0.124 N 
HETATM   18  C7  UNL     1      31.119  15.438  -9.017  1.00  0.00     0.276 C 
HETATM   19  C8  UNL     1      29.584  15.462  -9.203  1.00  0.00     0.032 C 
HETATM   20  C9  UNL     1      29.150  14.015  -9.120  1.00  0.00     0.032 C 
HETATM   21  C10 UNL     1      30.455  13.261  -9.458  1.00  0.00     0.276 C 
ENDBRANCH  14  17
ENDBRANCH   1  14
TORSDOF 7
ENDMDL
MODEL 2
REMARK VINA RESULT: -7.284484239      1.577      2.111
REMARK  7 active torsions:
REMARK  status: ('A' for Active; 'I' for Inactive)
REMARK    1  A    between atoms: C2_2  and  C4_4 
REMARK    2  A    between atoms: C4_4  and  N1_5 
REMARK    3  A    between atoms: C4_4  and  C11_19 
REMARK    4  A    between atoms: N1_5  and  C5_7 
REMARK    5  A    between atoms: C5_7  and  C6_11 
REMARK    6  A    between atoms: C6_11  and  O1_12 
REMARK    7  A    between atoms: C6_11  and  N3_14 
ROOT
HETATM    1  C5  UNL     1      32.753  12.682  -7.202  1.00  0.00     0.131 C 
HETATM    2  N2  UNL     1      33.842  12.840  -7.871  1.00  0.00    -0.385 N 
ATOM      3  H21 UNL     1      33.978  13.610  -8.525  1.00  0.00     0.157 HD
ATOM      4  H22 UNL     1      34.622  12.208  -7.691  1.00  0.00     0.157 HD
ENDROOT
BRANCH   1   5
HETATM    5  N1  UNL     1      32.563  11.606  -6.289  1.00  0.00    -0.363 N 
ATOM      6  H1  UNL     1      31.885  10.872  -6.493  1.00  0.00     0.161 HD
BRANCH   5   7
HETATM    7  C4  UNL     1      33.354  11.563  -5.044  1.00  0.00     0.175 C 
BRANCH   7   8
HETATM    8  C2  UNL     1      34.636  10.887  -5.252  1.00  0.00     0.009 C 
HETATM    9  C1  UNL     1      34.743   9.490  -5.627  1.00  0.00     0.012 C 
HETATM   10  C3  UNL     1      35.771  11.415  -4.402  1.00  0.00     0.012 C 
ENDBRANCH   7   8
BRANCH   7  11
HETATM   11  C11 UNL     1      32.360  10.788  -4.182  1.00  0.00     0.254 C 
HETATM   12  N4  UNL     1      31.089  10.536  -4.758  1.00  0.00    -0.060 NA
HETATM   13  O2  UNL     1      32.643  10.412  -3.053  1.00  0.00    -0.275 OA
ENDBRANCH   7  11
ENDBRANCH   5   7
ENDBRANCH   1   5
BRANCH   1  14
HETATM   14  C6  UNL     1      31.634  13.589  -7.461  1.00  0.00     0.424 C 
BRANCH  14  15
HETATM   15  O1  UNL     1      30.533  13.071  -6.772  1.00  0.00    -0.362 OA
ATOM     16  H1  UNL     1      29.899  13.775  -6.706  1.00  0.00     0.212 HD
ENDBRANCH  14  15
BRANCH  14  17
HETATM   17  N3  UNL     1      31.410  14.013  -8.780  1.00  0.00     0.124 N 
HETATM   18  C7  UNL     1      31.089  15.389  -8.955  1.00  0.00     0.276 C 
HETATM   19  C8  UNL     1      29.561  15.395  -9.193  1.00  0.00     0.032 C 
HETATM   20  C9  UNL     1      29.154  13.938  -9.208  1.00  0.00     0.032 C 
HETATM   21  C10 UNL     1      30.484  13.229  -9.543  1.00  0.00     0.276 C 
ENDBRANCH  14  17
ENDBRANCH   1  14
TORSDOF 7
ENDMDL
MODEL 3
REMARK VINA RESULT: -6.904391456      1.829      6.183
REMARK  7 active torsions:
REMARK  status: ('A' for Active; 'I' for Inactive)
REMARK    1  A    between atoms: C2_2  and  C4_4 
REMARK    2  A    between atoms: C4_4  and  N1_5 
REMARK    3  A    between atoms: C4_4  and  C11_19 
REMARK    4  A    between atoms: N1_5  and  C5_7 
REMARK    5  A    between atoms: C5_7  and  C6_11 
REMARK    6  A    between atoms: C6_11  and  O1_12 
REMARK    7  A    between atoms: C6_11  and  N3_14 
ROOT
HETATM    1  C5  UNL     1      32.072  13.408  -7.753  1.00  0.00     0.131 C 
HETATM    2  N2  UNL     1      32.761  14.474  -7.530  1.00  0.00    -0.385 N 
ATOM      3  H21 UNL     1      33.215  14.657  -6.635  1.00  0.00     0.157 HD
ATOM      4  H22 UNL     1      32.911  15.127  -8.298  1.00  0.00     0.157 HD
ENDROOT
BRANCH   1   5
HETATM    5  N1  UNL     1      31.439  13.151  -9.002  1.00  0.00    -0.363 N 
ATOM      6  H1  UNL     1      31.978  12.781  -9.785  1.00  0.00     0.161 HD
BRANCH   5   7
HETATM    7  C4  UNL     1      29.997  13.423  -9.154  1.00  0.00     0.175 C 
BRANCH   7   8
HETATM    8  C2  UNL     1      29.431  12.678 -10.280  1.00  0.00     0.009 C 
HETATM    9  C1  UNL     1      30.052  12.629 -11.590  1.00  0.00     0.012 C 
HETATM   10  C3  UNL     1      27.921  12.588 -10.280  1.00  0.00     0.012 C 
ENDBRANCH   7   8
BRANCH   7  11
HETATM   11  C11 UNL     1      30.082  14.932  -9.369  1.00  0.00     0.254 C 
HETATM   12  N4  UNL     1      28.871  15.657  -9.233  1.00  0.00    -0.060 NA
HETATM   13  O2  UNL     1      31.137  15.484  -9.649  1.00  0.00    -0.275 OA
ENDBRANCH   7  11
ENDBRANCH   5   7
ENDBRANCH   1   5
BRANCH   1  14
HETATM   14  C6  UNL     1      31.856  12.470  -6.650  1.00  0.00     0.424 C 
BRANCH  14  15
HETATM   15  O1  UNL     1      30.625  12.803  -6.079  1.00  0.00    -0.362 OA
ATOM     16  H1  UNL     1      30.059  12.049  -6.195  1.00  0.00     0.212 HD
ENDBRANCH  14  15
BRANCH  14  17
HETATM   17  N3  UNL     1      32.917  12.226  -5.764  1.00  0.00     0.124 N 
HETATM   18  C7  UNL     1      33.901  11.294  -6.199  1.00  0.00     0.276 C 
HETATM   19  C8  UNL     1      33.572  10.002  -5.415  1.00  0.00     0.032 C 
HETATM   20  C9  UNL     1      32.420  10.370  -4.505  1.00  0.00     0.032 C 
HETATM   21  C10 UNL     1      32.550  11.906  -4.417  1.00  0.00     0.276 C 
ENDBRANCH  14  17
ENDBRANCH   1  14
TORSDOF 7
ENDMDL
MODEL 4
REMARK VINA RESULT: -6.720322235      1.340      1.748
REMARK  7 active torsions:
REMARK  status: ('A' for Active; 'I' for Inactive)
REMARK    1  A    between atoms: C2_2  and  C4_4 
REMARK    2  A    between atoms: C4_4  and  N1_5 
REMARK    3  A    between atoms: C4_4  and  C11_19 
REMARK    4  A    between atoms: N1_5  and  C5_7 
REMARK    5  A    between atoms: C5_7  and  C6_11 
REMARK    6  A    between atoms: C6_11  and  O1_12 
REMARK    7  A    between atoms: C6_11  and  N3_14 
ROOT
HETATM    1  C5  UNL     1      32.831  13.144  -7.558  1.00  0.00     0.131 C 
HETATM    2  N2  UNL     1      33.749  12.557  -8.244  1.00  0.00    -0.385 N 
ATOM      3  H21 UNL     1      33.947  12.796  -9.216  1.00  0.00     0.157 HD
ATOM      4  H22 UNL     1      34.345  11.874  -7.778  1.00  0.00     0.157 HD
ENDROOT
BRANCH   1   5
HETATM    5  N1  UNL     1      32.555  12.812  -6.201  1.00  0.00    -0.363 N 
ATOM      6  H1  UNL     1      31.823  13.304  -5.690  1.00  0.00     0.161 HD
BRANCH   5   7
HETATM    7  C4  UNL     1      33.337  11.749  -5.541  1.00  0.00     0.175 C 
BRANCH   7   8
HETATM    8  C2  UNL     1      32.550  11.071  -4.510  1.00  0.00     0.009 C 
HETATM    9  C1  UNL     1      33.143  10.453  -3.339  1.00  0.00     0.012 C 
HETATM   10  C3  UNL     1      31.286  10.411  -5.015  1.00  0.00     0.012 C 
ENDBRANCH   7   8
BRANCH   7  11
HETATM   11  C11 UNL     1      34.474  12.617  -5.005  1.00  0.00     0.254 C 
HETATM   12  N4  UNL     1      35.769  12.340  -5.509  1.00  0.00    -0.060 NA
HETATM   13  O2  UNL     1      34.276  13.498  -4.180  1.00  0.00    -0.275 OA
ENDBRANCH   7  11
ENDBRANCH   5   7
ENDBRANCH   1   5
BRANCH   1  14
HETATM   14  C6  UNL     1      31.975  14.126  -8.227  1.00  0.00     0.424 C 
BRANCH  14  15
HETATM   15  O1  UNL     1      32.362  15.382  -7.752  1.00  0.00    -0.362 OA
ATOM     16  H1  UNL     1      32.926  15.761  -8.416  1.00  0.00     0.212 HD
ENDBRANCH  14  15
BRANCH  14  17
HETATM   17  N3  UNL     1      30.596  13.874  -8.292  1.00  0.00     0.124 N 
HETATM   18  C7  UNL     1      30.196  12.748  -9.066  1.00  0.00     0.276 C 
HETATM   19  C8  UNL     1      29.668  13.361 -10.383  1.00  0.00     0.032 C 
HETATM   20  C9  UNL     1      29.751  14.860 -10.187  1.00  0.00     0.032 C 
HETATM   21  C10 UNL     1      29.769  14.988  -8.648  1.00  0.00     0.276 C 
ENDBRANCH  14  17
ENDBRANCH   1  14
TORSDOF 7
ENDMDL
MODEL 5
REMARK VINA RESULT: -6.541986560      1.882      6.197
REMARK  7 active torsions:
REMARK  status: ('A' for Active; 'I' for Inactive)
REMARK    1  A    between atoms: C2_2  and  C4_4 
REMARK    2  A    between atoms: C4_4  and  N1_5 
REMARK    3  A    between atoms: C4_4  and  C11_19 
REMARK    4  A    between atoms: N1_5  and  C5_7 
REMARK    5  A    between atoms: C5_7  and  C6_11 
REMARK    6  A    between atoms: C6_11  and  O1_12 
REMARK    7  A    between atoms: C6_11  and  N3_14 
ROOT
HETATM    1  C5  UNL     1      31.551  12.766  -7.051  1.00  0.00     0.131 C 
HETATM    2  N2  UNL     1      30.638  12.624  -6.154  1.00  0.00    -0.385 N 
ATOM      3  H21 UNL     1      30.853  12.431  -5.176  1.00  0.00     0.157 HD
ATOM      4  H22 UNL     1      29.665  12.777  -6.420  1.00  0.00     0.157 HD
ENDROOT
BRANCH   1   5
HETATM    5  N1  UNL     1      31.251  13.037  -8.416  1.00  0.00    -0.363 N 
ATOM      6  H1  UNL     1      31.946  12.856  -9.141  1.00  0.00     0.161 HD
BRANCH   5   7
HETATM    7  C4  UNL     1      29.927  13.581  -8.774  1.00  0.00     0.175 C 
BRANCH   7   8
HETATM    8  C2  UNL     1      29.361  12.885  -9.932  1.00  0.00     0.009 C 
HETATM    9  C1  UNL     1      30.074  12.721 -11.184  1.00  0.00     0.012 C 
HETATM   10  C3  UNL     1      27.857  12.991 -10.056  1.00  0.00     0.012 C 
ENDBRANCH   7   8
BRANCH   7  11
HETATM   11  C11 UNL     1      30.350  15.023  -9.044  1.00  0.00     0.254 C 
HETATM   12  N4  UNL     1      31.744  15.262  -9.143  1.00  0.00    -0.060 NA
HETATM   13  O2  UNL     1      29.530  15.923  -9.162  1.00  0.00    -0.275 OA
ENDBRANCH   7  11
ENDBRANCH   5   7
ENDBRANCH   1   5
BRANCH   1  14
HETATM   14  C6  UNL     1      32.947  12.547  -6.670  1.00  0.00     0.424 C 
BRANCH  14  15
HETATM   15  O1  UNL     1      33.727  13.262  -7.585  1.00  0.00    -0.362 OA
ATOM     16  H1  UNL     1      33.949  12.656  -8.282  1.00  0.00     0.212 HD
ENDBRANCH  14  15
BRANCH  14  17
HETATM   17  N3  UNL     1      33.361  11.238  -6.376  1.00  0.00     0.124 N 
HETATM   18  C7  UNL     1      32.452  10.444  -5.623  1.00  0.00     0.276 C 
HETATM   19  C8  UNL     1      33.039  10.447  -4.192  1.00  0.00     0.032 C 
HETATM   20  C9  UNL     1      34.337  11.220  -4.296  1.00  0.00     0.032 C 
HETATM   21  C10 UNL     1      34.666  11.106  -5.801  1.00  0.00     0.276 C 
ENDBRANCH  14  17
ENDBRANCH   1  14
TORSDOF 7
ENDMDL
