MODEL 1
REMARK VINA RESULT: -7.282343671      0.000      0.000
REMARK  7 active torsions:
REMARK  status: ('A' for Active; 'I' for Inactive)
REMARK    1  A    between atoms: N1_1  and  S1_4 
REMARK    2  A    between atoms: S1_4  and  C1_7 
REMARK    3  A    between atoms: C4_10  and  C5_11 
REMARK    4  A    between atoms: C5_11  and  N2_12 
REMARK    5  A    between atoms: C6_14  and  N3_15 
REMARK    6  A    between atoms: N3_15  and  N4_17 
REMARK    7  A    between atoms: N4_17  and  C7_19 
ROOT
HETATM    1  C1  UNL     1      31.109  13.641  -7.735  1.00  0.00     0.149 A 
HETATM    2  C2  UNL     1      32.433  13.909  -7.518  1.00  0.00     0.045 A 
HETATM    3  C3  UNL     1      32.884  13.077  -6.484  1.00  0.00     0.029 A 
HETATM    4  C4  UNL     1      31.797  12.320  -6.105  1.00  0.00     0.028 A 
HETATM    5  N5  UNL     1      30.756  12.689  -6.879  1.00  0.00    -0.348 N 
ATOM      6  H5  UNL     1      29.820  12.289  -6.814  1.00  0.00     0.166 HD
ENDROOT
BRANCH   4   7
HETATM    7  C5  UNL     1      31.768  11.273  -5.037  1.00  0.00     0.177 C 
BRANCH   7   8
HETATM    8  N2  UNL     1      33.041  10.885  -4.569  1.00  0.00    -0.379 N 
HETATM    9  C6  UNL     1      33.868  10.050  -5.014  1.00  0.00     0.193 C 
ATOM     10  H2  UNL     1      33.343  11.367  -3.722  1.00  0.00     0.160 HD
BRANCH   9  11
HETATM   11  N3  UNL     1      35.090   9.899  -4.284  1.00  0.00    -0.294 N 
ATOM     12  H3  UNL     1      35.417   8.966  -4.030  1.00  0.00     0.187 HD
BRANCH  11  13
HETATM   13  N4  UNL     1      35.841  11.021  -3.916  1.00  0.00    -0.277 N 
ATOM     14  H4  UNL     1      36.122  11.095  -2.939  1.00  0.00     0.189 HD
BRANCH  13  15
HETATM   15  C7  UNL     1      36.239  12.054  -4.782  1.00  0.00     0.368 C 
HETATM   16  O3  UNL     1      36.208  13.277  -4.584  1.00  0.00    -0.282 OA
ENDBRANCH  13  15
ENDBRANCH  11  13
ENDBRANCH   9  11
ENDBRANCH   7   8
ENDBRANCH   4   7
BRANCH   1  17
HETATM   17  S1  UNL     1      30.105  14.451  -8.946  1.00  0.00     0.272 S 
HETATM   18  O1  UNL     1      30.436  13.849 -10.279  1.00  0.00    -0.199 OA
HETATM   19  O2  UNL     1      28.651  14.209  -8.696  1.00  0.00    -0.199 OA
BRANCH  17  20
HETATM   20  N1  UNL     1      30.498  16.121  -9.012  1.00  0.00    -0.323 N 
ATOM     21  H12 UNL     1      30.017  16.818  -9.581  1.00  0.00     0.169 HD
ATOM     22  H11 UNL     1      31.288  16.280  -8.387  1.00  0.00     0.169 HD
ENDBRANCH  17  20
ENDBRANCH   1  17
TORSDOF 7
ENDMDL
MODEL 2
REMARK VINA RESULT: -7.201682297      2.866      7.003
REMARK  7 active torsions:
REMARK  status: ('A' for Active; 'I' for Inactive)
REMARK    1  A    between atoms: N1_1  and  S1_4 
REMARK    2  A    between atoms: S1_4  and  C1_7 
REMARK    3  A    between atoms: C4_10  and  C5_11 
REMARK    4  A    between atoms: C5_11  and  N2_12 
REMARK    5  A    between atoms: C6_14  and  N3_15 
REMARK    6  A    between atoms: N3_15  and  N4_17 
REMARK    7  A    between atoms: N4_17  and  C7_19 
ROOT
HETATM    1  C1  UNL     1      33.229  11.728  -5.343  1.00  0.00     0.149 A 
HETATM    2  C2  UNL     1      31.887  11.510  -5.498  1.00  0.00     0.045 A 
HETATM    3  C3  UNL     1      31.384  12.481  -6.374  1.00  0.00     0.029 A 
HETATM    4  C4  UNL     1      32.459  13.267  -6.726  1.00  0.00     0.028 A 
HETATM    5  N5  UNL     1      33.543  12.782  -6.087  1.00  0.00    -0.348 N 
ATOM      6  H5  UNL     1      34.481  13.174  -6.165  1.00  0.00     0.166 HD
ENDROOT
BRANCH   4   7
HETATM    7  C5  UNL     1      32.439  14.442  -7.652  1.00  0.00     0.177 C 
BRANCH   7   8
HETATM    8  N2  UNL     1      31.171  14.730  -8.198  1.00  0.00    -0.379 N 
HETATM    9  C6  UNL     1      30.783  15.665  -8.944  1.00  0.00     0.193 C 
ATOM     10  H2  UNL     1      30.441  14.064  -7.943  1.00  0.00     0.160 HD
BRANCH   9  11
HETATM   11  N3  UNL     1      29.402  15.659  -9.321  1.00  0.00    -0.294 N 
ATOM     12  H3  UNL     1      28.887  16.539  -9.371  1.00  0.00     0.187 HD
BRANCH  11  13
HETATM   13  N4  UNL     1      28.752  14.457  -9.623  1.00  0.00    -0.277 N 
ATOM     14  H4  UNL     1      28.206  14.022  -8.879  1.00  0.00     0.189 HD
BRANCH  13  15
HETATM   15  C7  UNL     1      28.790  13.800 -10.865  1.00  0.00     0.368 C 
HETATM   16  O3  UNL     1      29.776  13.556 -11.576  1.00  0.00    -0.282 OA
ENDBRANCH  13  15
ENDBRANCH  11  13
ENDBRANCH   9  11
ENDBRANCH   7   8
ENDBRANCH   4   7
BRANCH   1  17
HETATM   17  S1  UNL     1      34.295  10.754  -4.321  1.00  0.00     0.272 S 
HETATM   18  O1  UNL     1      33.468  10.225  -3.186  1.00  0.00    -0.199 OA
HETATM   19  O2  UNL     1      34.834   9.576  -5.066  1.00  0.00    -0.199 OA
BRANCH  17  20
HETATM   20  N1  UNL     1      35.532  11.741  -3.654  1.00  0.00    -0.323 N 
ATOM     21  H12 UNL     1      36.063  11.530  -2.810  1.00  0.00     0.169 HD
ATOM     22  H11 UNL     1      35.630  12.562  -4.251  1.00  0.00     0.169 HD
ENDBRANCH  17  20
ENDBRANCH   1  17
TORSDOF 7
ENDMDL
MODEL 3
REMARK VINA RESULT: -6.974158120      2.821      7.147
REMARK  7 active torsions:
REMARK  status: ('A' for Active; 'I' for Inactive)
REMARK    1  A    between atoms: N1_1  and  S1_4 
REMARK    2  A    between atoms: S1_4  and  C1_7 
REMARK    3  A    between atoms: C4_10  and  C5_11 
REMARK    4  A    between atoms: C5_11  and  N2_12 
REMARK    5  A    between atoms: C6_14  and  N3_15 
REMARK    6  A    between atoms: N3_15  and  N4_17 
REMARK    7  A    between atoms: N4_17  and  C7_19 
ROOT
HETATM    1  C1  UNL     1      33.344  12.137  -5.467  1.00  0.00     0.149 A 
HETATM    2  C2  UNL     1      32.037  11.737  -5.526  1.00  0.00     0.045 A 
HETATM    3  C3  UNL     1      31.362  12.577  -6.422  1.00  0.00     0.029 A 
HETATM    4  C4  UNL     1      32.302  13.471  -6.885  1.00  0.00     0.028 A 
HETATM    5  N5  UNL     1      33.474  13.173  -6.289  1.00  0.00    -0.348 N 
ATOM      6  H5  UNL     1      34.346  13.677  -6.448  1.00  0.00     0.166 HD
ENDROOT
BRANCH   4   7
HETATM    7  C5  UNL     1      32.076  14.571  -7.874  1.00  0.00     0.177 C 
BRANCH   7   8
HETATM    8  N2  UNL     1      30.842  14.498  -8.552  1.00  0.00    -0.379 N 
HETATM    9  C6  UNL     1      30.128  15.392  -9.073  1.00  0.00     0.193 C 
ATOM     10  H2  UNL     1      30.461  13.554  -8.634  1.00  0.00     0.160 HD
BRANCH   9  11
HETATM   11  N3  UNL     1      28.911  14.967  -9.695  1.00  0.00    -0.294 N 
ATOM     12  H3  UNL     1      28.459  15.566 -10.386  1.00  0.00     0.187 HD
BRANCH  11  13
HETATM   13  N4  UNL     1      28.336  13.736  -9.363  1.00  0.00    -0.277 N 
ATOM     14  H4  UNL     1      28.388  13.443  -8.388  1.00  0.00     0.189 HD
BRANCH  13  15
HETATM   15  C7  UNL     1      27.691  12.868 -10.263  1.00  0.00     0.368 C 
HETATM   16  O3  UNL     1      26.750  12.092 -10.042  1.00  0.00    -0.282 OA
ENDBRANCH  13  15
ENDBRANCH  11  13
ENDBRANCH   9  11
ENDBRANCH   7   8
ENDBRANCH   4   7
BRANCH   1  17
HETATM   17  S1  UNL     1      34.584  11.377  -4.460  1.00  0.00     0.272 S 
HETATM   18  O1  UNL     1      35.425  10.517  -5.356  1.00  0.00    -0.199 OA
HETATM   19  O2  UNL     1      35.486  12.398  -3.847  1.00  0.00    -0.199 OA
BRANCH  17  20
HETATM   20  N1  UNL     1      33.846  10.355  -3.293  1.00  0.00    -0.323 N 
ATOM     21  H12 UNL     1      33.897  10.482  -2.283  1.00  0.00     0.169 HD
ATOM     22  H11 UNL     1      33.359   9.613  -3.794  1.00  0.00     0.169 HD
ENDBRANCH  17  20
ENDBRANCH   1  17
TORSDOF 7
ENDMDL
MODEL 4
REMARK VINA RESULT: -6.941546722      2.949      7.142
REMARK  7 active torsions:
REMARK  status: ('A' for Active; 'I' for Inactive)
REMARK    1  A    between atoms: N1_1  and  S1_4 
REMARK    2  A    between atoms: S1_4  and  C1_7 
REMARK    3  A    between atoms: C4_10  and  C5_11 
REMARK    4  A    between atoms: C5_11  and  N2_12 
REMARK    5  A    between atoms: C6_14  and  N3_15 
REMARK    6  A    between atoms: N3_15  and  N4_17 
REMARK    7  A    between atoms: N4_17  and  C7_19 
ROOT
HETATM    1  C1  UNL     1      33.653  12.289  -5.813  1.00  0.00     0.149 A 
HETATM    2  C2  UNL     1      32.470  11.625  -5.987  1.00  0.00     0.045 A 
HETATM    3  C3  UNL     1      31.640  12.413  -6.796  1.00  0.00     0.029 A 
HETATM    4  C4  UNL     1      32.364  13.548  -7.090  1.00  0.00     0.028 A 
HETATM    5  N5  UNL     1      33.562  13.433  -6.482  1.00  0.00    -0.348 N 
ATOM      6  H5  UNL     1      34.303  14.133  -6.530  1.00  0.00     0.166 HD
ENDROOT
BRANCH   4   7
HETATM    7  C5  UNL     1      31.916  14.699  -7.934  1.00  0.00     0.177 C 
BRANCH   7   8
HETATM    8  N2  UNL     1      30.642  14.532  -8.515  1.00  0.00    -0.379 N 
HETATM    9  C6  UNL     1      29.922  15.323  -9.175  1.00  0.00     0.193 C 
ATOM     10  H2  UNL     1      30.233  13.607  -8.375  1.00  0.00     0.160 HD
BRANCH   9  11
HETATM   11  N3  UNL     1      28.659  14.822  -9.628  1.00  0.00    -0.294 N 
ATOM     12  H3  UNL     1      28.015  15.444 -10.118  1.00  0.00     0.187 HD
BRANCH  11  13
HETATM   13  N4  UNL     1      28.302  13.489  -9.404  1.00  0.00    -0.277 N 
ATOM     14  H4  UNL     1      28.601  13.066  -8.525  1.00  0.00     0.189 HD
BRANCH  13  15
HETATM   15  C7  UNL     1      27.564  12.684 -10.289  1.00  0.00     0.368 C 
HETATM   16  O3  UNL     1      26.661  11.877 -10.024  1.00  0.00    -0.282 OA
ENDBRANCH  13  15
ENDBRANCH  11  13
ENDBRANCH   9  11
ENDBRANCH   7   8
ENDBRANCH   4   7
BRANCH   1  17
HETATM   17  S1  UNL     1      35.013  11.685  -4.857  1.00  0.00     0.272 S 
HETATM   18  O1  UNL     1      34.815  12.158  -3.447  1.00  0.00    -0.199 OA
HETATM   19  O2  UNL     1      35.035  10.191  -4.827  1.00  0.00    -0.199 OA
BRANCH  17  20
HETATM   20  N1  UNL     1      36.482  12.360  -5.435  1.00  0.00    -0.323 N 
ATOM     21  H12 UNL     1      37.417  12.086  -5.131  1.00  0.00     0.169 HD
ATOM     22  H11 UNL     1      36.247  13.072  -6.126  1.00  0.00     0.169 HD
ENDBRANCH  17  20
ENDBRANCH   1  17
TORSDOF 7
ENDMDL
MODEL 5
REMARK VINA RESULT: -6.894235857      2.678      7.026
REMARK  7 active torsions:
REMARK  status: ('A' for Active; 'I' for Inactive)
REMARK    1  A    between atoms: N1_1  and  S1_4 
REMARK    2  A    between atoms: S1_4  and  C1_7 
REMARK    3  A    between atoms: C4_10  and  C5_11 
REMARK    4  A    between atoms: C5_11  and  N2_12 
REMARK    5  A    between atoms: C6_14  and  N3_15 
REMARK    6  A    between atoms: N3_15  and  N4_17 
REMARK    7  A    between atoms: N4_17  and  C7_19 
ROOT
HETATM    1  C1  UNL     1      33.329  12.063  -5.397  1.00  0.00     0.149 A 
HETATM    2  C2  UNL     1      32.017  11.720  -5.572  1.00  0.00     0.045 A 
HETATM    3  C3  UNL     1      31.447  12.619  -6.483  1.00  0.00     0.029 A 
HETATM    4  C4  UNL     1      32.454  13.491  -6.835  1.00  0.00     0.028 A 
HETATM    5  N5  UNL     1      33.563  13.122  -6.163  1.00  0.00    -0.348 N 
ATOM      6  H5  UNL     1      34.464  13.596  -6.234  1.00  0.00     0.166 HD
ENDROOT
BRANCH   4   7
HETATM    7  C5  UNL     1      32.349  14.635  -7.793  1.00  0.00     0.177 C 
BRANCH   7   8
HETATM    8  N2  UNL     1      31.060  14.823  -8.335  1.00  0.00    -0.379 N 
HETATM    9  C6  UNL     1      30.569  15.773  -8.995  1.00  0.00     0.193 C 
ATOM     10  H2  UNL     1      30.413  14.053  -8.160  1.00  0.00     0.160 HD
BRANCH   9  11
HETATM   11  N3  UNL     1      29.202  15.640  -9.400  1.00  0.00    -0.294 N 
ATOM     12  H3  UNL     1      28.610  16.468  -9.462  1.00  0.00     0.187 HD
BRANCH  11  13
HETATM   13  N4  UNL     1      28.672  14.383  -9.713  1.00  0.00    -0.277 N 
ATOM     14  H4  UNL     1      28.162  13.895  -8.977  1.00  0.00     0.189 HD
BRANCH  13  15
HETATM   15  C7  UNL     1      28.785  13.738 -10.957  1.00  0.00     0.368 C 
HETATM   16  O3  UNL     1      29.809  13.531 -11.625  1.00  0.00    -0.282 OA
ENDBRANCH  13  15
ENDBRANCH  11  13
ENDBRANCH   9  11
ENDBRANCH   7   8
ENDBRANCH   4   7
BRANCH   1  17
HETATM   17  S1  UNL     1      34.457  11.215  -4.329  1.00  0.00     0.272 S 
HETATM   18  O1  UNL     1      35.193  10.208  -5.163  1.00  0.00    -0.199 OA
HETATM   19  O2  UNL     1      35.473  12.151  -3.759  1.00  0.00    -0.199 OA
BRANCH  17  20
HETATM   20  N1  UNL     1      33.588  10.359  -3.120  1.00  0.00    -0.323 N 
ATOM     21  H12 UNL     1      33.999   9.723  -2.438  1.00  0.00     0.169 HD
ATOM     22  H11 UNL     1      32.602  10.604  -3.213  1.00  0.00     0.169 HD
ENDBRANCH  17  20
ENDBRANCH   1  17
TORSDOF 7
ENDMDL
