MODEL 1
REMARK VINA RESULT: -9.526864033      0.000      0.000
REMARK  8 active torsions:
REMARK  status: ('A' for Active; 'I' for Inactive)
REMARK    1  A    between atoms: N2_5  and  O1_6 
REMARK    2  A    between atoms: C4_9  and  C5_10 
REMARK    3  A    between atoms: C5_10  and  C6_11 
REMARK    4  A    between atoms: C6_11  and  N3_12 
REMARK       I    between atoms: N3_12  and  C7_14 
REMARK    5  A    between atoms: C7_14  and  C8_16 
REMARK       I    between atoms: C8_16  and  N4_18 
REMARK    6  A    between atoms: N4_18  and  C9_20 
REMARK    7  A    between atoms: C9_20  and  C10_21 
REMARK    8  A    between atoms: N5_32  and  O4_33 
ROOT
HETATM    1  C5  UNL     1       8.845  10.115  22.497  1.00  0.00     0.085 C 
ENDROOT
BRANCH   1   2
HETATM    2  C4  UNL     1       8.516   9.559  23.777  1.00  0.00    -0.020 A 
HETATM    3  C3  UNL     1       9.381   8.991  24.670  1.00  0.00     0.117 A 
HETATM    4  N2  UNL     1      10.699   9.032  24.443  1.00  0.00    -0.159 N 
HETATM    5  C19 UNL     1       8.896   8.378  25.845  1.00  0.00     0.095 A 
HETATM    6  N1  UNL     1      11.560   8.500  25.306  1.00  0.00    -0.261 N 
HETATM    7  C2  UNL     1      11.109   7.915  26.423  1.00  0.00     0.122 A 
ATOM      8  H1  UNL     1      12.562   8.538  25.119  1.00  0.00     0.191 HD
HETATM    9  C1  UNL     1      12.022   7.297  27.437  1.00  0.00     0.093 C 
HETATM   10  N5  UNL     1       9.795   7.853  26.693  1.00  0.00    -0.209 N 
HETATM   11  C18 UNL     1       7.551   8.334  26.130  1.00  0.00     0.034 A 
HETATM   12  C17 UNL     1       6.663   8.895  25.260  1.00  0.00     0.003 A 
HETATM   13  C16 UNL     1       7.142   9.485  24.124  1.00  0.00     0.010 A 
BRANCH   4  14
HETATM   14  O1  UNL     1      11.168   9.673  23.330  1.00  0.00    -0.267 OA
ATOM     15  H1  UNL     1      10.554  10.003  22.685  1.00  0.00     0.247 HD
ENDBRANCH   4  14
BRANCH  10  16
HETATM   16  O4  UNL     1       9.299   7.258  27.834  1.00  0.00    -0.281 OA
ATOM     17  H4  UNL     1       9.091   6.332  27.879  1.00  0.00     0.245 HD
ENDBRANCH  10  16
ENDBRANCH   1   2
BRANCH   1  18
HETATM   18  C6  UNL     1       7.677  10.225  21.532  1.00  0.00     0.069 C 
BRANCH  18  19
HETATM   19  N3  UNL     1       7.210   9.108  20.860  1.00  0.00    -0.332 N 
HETATM   20  C7  UNL     1       7.440   8.748  19.527  1.00  0.00     0.312 C 
HETATM   21  O2  UNL     1       8.138   9.464  18.786  1.00  0.00    -0.262 OA
ATOM     22  H3  UNL     1       6.628   8.470  21.403  1.00  0.00     0.168 HD
BRANCH  20  23
HETATM   23  C8  UNL     1       6.886   7.531  18.926  1.00  0.00     0.309 C 
HETATM   24  O3  UNL     1       6.243   7.635  17.853  1.00  0.00    -0.262 OA
HETATM   25  N4  UNL     1       7.109   6.284  19.594  1.00  0.00    -0.349 N 
ATOM     26  H4  UNL     1       7.638   6.241  20.466  1.00  0.00     0.163 HD
BRANCH  25  27
HETATM   27  C9  UNL     1       6.573   5.116  19.006  1.00  0.00     0.163 C 
BRANCH  27  28
HETATM   28  C10 UNL     1       7.550   4.066  18.707  1.00  0.00    -0.023 A 
HETATM   29  C11 UNL     1       8.497   4.115  17.720  1.00  0.00     0.010 A 
HETATM   30  C12 UNL     1       9.394   3.062  17.508  1.00  0.00     0.001 A 
HETATM   31  C13 UNL     1       9.358   1.936  18.283  1.00  0.00     0.001 A 
HETATM   32  C14 UNL     1       8.428   1.862  19.269  1.00  0.00     0.019 A 
HETATM   33  C15 UNL     1       7.552   2.885  19.480  1.00  0.00     0.018 A 
HETATM   34 BR1  UNL     1       6.265   2.730  20.880  1.00  0.00    -0.051 Br
ENDBRANCH  27  28
ENDBRANCH  25  27
ENDBRANCH  20  23
ENDBRANCH  18  19
ENDBRANCH   1  18
TORSDOF 8
ENDMDL
MODEL 2
REMARK VINA RESULT: -9.477581453      1.339      1.635
REMARK  8 active torsions:
REMARK  status: ('A' for Active; 'I' for Inactive)
REMARK    1  A    between atoms: N2_5  and  O1_6 
REMARK    2  A    between atoms: C4_9  and  C5_10 
REMARK    3  A    between atoms: C5_10  and  C6_11 
REMARK    4  A    between atoms: C6_11  and  N3_12 
REMARK       I    between atoms: N3_12  and  C7_14 
REMARK    5  A    between atoms: C7_14  and  C8_16 
REMARK       I    between atoms: C8_16  and  N4_18 
REMARK    6  A    between atoms: N4_18  and  C9_20 
REMARK    7  A    between atoms: C9_20  and  C10_21 
REMARK    8  A    between atoms: N5_32  and  O4_33 
ROOT
HETATM    1  C5  UNL     1       6.584  11.051  21.923  1.00  0.00     0.085 C 
ENDROOT
BRANCH   1   2
HETATM    2  C4  UNL     1       6.692  10.001  22.895  1.00  0.00    -0.020 A 
HETATM    3  C3  UNL     1       7.782   9.707  23.665  1.00  0.00     0.117 A 
HETATM    4  N2  UNL     1       8.850  10.514  23.647  1.00  0.00    -0.159 N 
HETATM    5  C19 UNL     1       7.784   8.567  24.498  1.00  0.00     0.095 A 
HETATM    6  N1  UNL     1       9.916  10.256  24.400  1.00  0.00    -0.261 N 
HETATM    7  C2  UNL     1       9.927   9.176  25.192  1.00  0.00     0.122 A 
ATOM      8  H1  UNL     1      10.724  10.879  24.375  1.00  0.00     0.191 HD
HETATM    9  C1  UNL     1      11.094   8.827  26.065  1.00  0.00     0.093 C 
HETATM   10  N5  UNL     1       8.877   8.341  25.243  1.00  0.00    -0.209 N 
HETATM   11  C18 UNL     1       6.699   7.725  24.564  1.00  0.00     0.034 A 
HETATM   12  C17 UNL     1       5.595   7.994  23.811  1.00  0.00     0.003 A 
HETATM   13  C16 UNL     1       5.603   9.098  23.006  1.00  0.00     0.010 A 
BRANCH   4  14
HETATM   14  O1  UNL     1       8.824  11.645  22.878  1.00  0.00    -0.267 OA
ATOM     15  H1  UNL     1       8.567  11.586  21.966  1.00  0.00     0.247 HD
ENDBRANCH   4  14
BRANCH  10  16
HETATM   16  O4  UNL     1       8.858   7.222  26.049  1.00  0.00    -0.281 OA
ATOM     17  H4  UNL     1       8.395   6.427  25.809  1.00  0.00     0.245 HD
ENDBRANCH  10  16
ENDBRANCH   1   2
BRANCH   1  18
HETATM   18  C6  UNL     1       7.191  10.728  20.568  1.00  0.00     0.069 C 
BRANCH  18  19
HETATM   19  N3  UNL     1       6.809   9.589  19.879  1.00  0.00    -0.332 N 
HETATM   20  C7  UNL     1       7.479   8.364  19.805  1.00  0.00     0.312 C 
HETATM   21  O2  UNL     1       8.557   8.190  20.404  1.00  0.00    -0.262 OA
ATOM     22  H3  UNL     1       5.932   9.653  19.361  1.00  0.00     0.168 HD
BRANCH  20  23
HETATM   23  C8  UNL     1       6.970   7.224  19.035  1.00  0.00     0.309 C 
HETATM   24  O3  UNL     1       6.273   7.455  18.018  1.00  0.00    -0.262 OA
HETATM   25  N4  UNL     1       7.296   5.904  19.485  1.00  0.00    -0.349 N 
ATOM     26  H4  UNL     1       7.865   5.757  20.319  1.00  0.00     0.163 HD
BRANCH  25  27
HETATM   27  C9  UNL     1       6.802   4.812  18.735  1.00  0.00     0.163 C 
BRANCH  27  28
HETATM   28  C10 UNL     1       7.791   3.780  18.415  1.00  0.00    -0.023 A 
HETATM   29  C11 UNL     1       8.627   3.786  17.331  1.00  0.00     0.010 A 
HETATM   30  C12 UNL     1       9.546   2.755  17.106  1.00  0.00     0.001 A 
HETATM   31  C13 UNL     1       9.644   1.695  17.964  1.00  0.00     0.001 A 
HETATM   32  C14 UNL     1       8.826   1.664  19.047  1.00  0.00     0.019 A 
HETATM   33  C15 UNL     1       7.930   2.666  19.271  1.00  0.00     0.018 A 
HETATM   34 BR1  UNL     1       6.803   2.576  20.809  1.00  0.00    -0.051 Br
ENDBRANCH  27  28
ENDBRANCH  25  27
ENDBRANCH  20  23
ENDBRANCH  18  19
ENDBRANCH   1  18
TORSDOF 8
ENDMDL
MODEL 3
REMARK VINA RESULT: -9.344356065      2.289      3.285
REMARK  8 active torsions:
REMARK  status: ('A' for Active; 'I' for Inactive)
REMARK    1  A    between atoms: N2_5  and  O1_6 
REMARK    2  A    between atoms: C4_9  and  C5_10 
REMARK    3  A    between atoms: C5_10  and  C6_11 
REMARK    4  A    between atoms: C6_11  and  N3_12 
REMARK       I    between atoms: N3_12  and  C7_14 
REMARK    5  A    between atoms: C7_14  and  C8_16 
REMARK       I    between atoms: C8_16  and  N4_18 
REMARK    6  A    between atoms: N4_18  and  C9_20 
REMARK    7  A    between atoms: C9_20  and  C10_21 
REMARK    8  A    between atoms: N5_32  and  O4_33 
ROOT
HETATM    1  C5  UNL     1       5.093   8.296  23.544  1.00  0.00     0.085 C 
ENDROOT
BRANCH   1   2
HETATM    2  C4  UNL     1       6.303   9.052  23.391  1.00  0.00    -0.020 A 
HETATM    3  C3  UNL     1       7.450   8.916  24.120  1.00  0.00     0.117 A 
HETATM    4  N2  UNL     1       7.568   7.916  25.002  1.00  0.00    -0.159 N 
HETATM    5  C19 UNL     1       8.525   9.812  23.936  1.00  0.00     0.095 A 
HETATM    6  N1  UNL     1       8.682   7.755  25.711  1.00  0.00    -0.261 N 
HETATM    7  C2  UNL     1       9.706   8.602  25.544  1.00  0.00     0.122 A 
ATOM      8  H1  UNL     1       8.757   6.990  26.381  1.00  0.00     0.191 HD
HETATM    9  C1  UNL     1      10.989   8.479  26.308  1.00  0.00     0.093 C 
HETATM   10  N5  UNL     1       9.634   9.618  24.669  1.00  0.00    -0.209 N 
HETATM   11  C18 UNL     1       8.455  10.839  23.024  1.00  0.00     0.034 A 
HETATM   12  C17 UNL     1       7.325  10.998  22.279  1.00  0.00     0.003 A 
HETATM   13  C16 UNL     1       6.289  10.127  22.465  1.00  0.00     0.010 A 
BRANCH   4  14
HETATM   14  O1  UNL     1       6.545   7.019  25.140  1.00  0.00    -0.267 OA
ATOM     15  H1  UNL     1       5.689   7.324  25.418  1.00  0.00     0.247 HD
ENDBRANCH   4  14
BRANCH  10  16
HETATM   16  O4  UNL     1      10.671  10.505  24.473  1.00  0.00    -0.281 OA
ATOM     17  H4  UNL     1      10.910  11.162  25.117  1.00  0.00     0.245 HD
ENDBRANCH  10  16
ENDBRANCH   1   2
BRANCH   1  18
HETATM   18  C6  UNL     1       4.413   7.914  22.240  1.00  0.00     0.069 C 
BRANCH  18  19
HETATM   19  N3  UNL     1       4.588   6.653  21.697  1.00  0.00    -0.332 N 
HETATM   20  C7  UNL     1       5.649   6.196  20.908  1.00  0.00     0.312 C 
HETATM   21  O2  UNL     1       6.593   6.951  20.611  1.00  0.00    -0.262 OA
ATOM     22  H3  UNL     1       3.852   5.974  21.896  1.00  0.00     0.168 HD
BRANCH  20  23
HETATM   23  C8  UNL     1       5.720   4.826  20.388  1.00  0.00     0.309 C 
HETATM   24  O3  UNL     1       5.691   3.875  21.205  1.00  0.00    -0.262 OA
HETATM   25  N4  UNL     1       5.820   4.645  18.971  1.00  0.00    -0.349 N 
ATOM     26  H4  UNL     1       5.842   5.445  18.337  1.00  0.00     0.163 HD
BRANCH  25  27
HETATM   27  C9  UNL     1       5.887   3.322  18.479  1.00  0.00     0.163 C 
BRANCH  27  28
HETATM   28  C10 UNL     1       7.240   2.825  18.213  1.00  0.00    -0.023 A 
HETATM   29  C11 UNL     1       7.977   2.033  19.051  1.00  0.00     0.010 A 
HETATM   30  C12 UNL     1       9.264   1.603  18.712  1.00  0.00     0.001 A 
HETATM   31  C13 UNL     1       9.839   1.959  17.524  1.00  0.00     0.001 A 
HETATM   32  C14 UNL     1       9.129   2.745  16.674  1.00  0.00     0.019 A 
HETATM   33  C15 UNL     1       7.875   3.167  17.000  1.00  0.00     0.018 A 
HETATM   34 BR1  UNL     1       6.919   4.269  15.770  1.00  0.00    -0.051 Br
ENDBRANCH  27  28
ENDBRANCH  25  27
ENDBRANCH  20  23
ENDBRANCH  18  19
ENDBRANCH   1  18
TORSDOF 8
ENDMDL
MODEL 4
REMARK VINA RESULT: -9.213283484      1.246      1.318
REMARK  8 active torsions:
REMARK  status: ('A' for Active; 'I' for Inactive)
REMARK    1  A    between atoms: N2_5  and  O1_6 
REMARK    2  A    between atoms: C4_9  and  C5_10 
REMARK    3  A    between atoms: C5_10  and  C6_11 
REMARK    4  A    between atoms: C6_11  and  N3_12 
REMARK       I    between atoms: N3_12  and  C7_14 
REMARK    5  A    between atoms: C7_14  and  C8_16 
REMARK       I    between atoms: C8_16  and  N4_18 
REMARK    6  A    between atoms: N4_18  and  C9_20 
REMARK    7  A    between atoms: C9_20  and  C10_21 
REMARK    8  A    between atoms: N5_32  and  O4_33 
ROOT
HETATM    1  C5  UNL     1       8.877   9.933  22.286  1.00  0.00     0.085 C 
ENDROOT
BRANCH   1   2
HETATM    2  C4  UNL     1       8.529   9.486  23.604  1.00  0.00    -0.020 A 
HETATM    3  C3  UNL     1       9.374   8.954  24.537  1.00  0.00     0.117 A 
HETATM    4  N2  UNL     1      10.693   8.928  24.308  1.00  0.00    -0.159 N 
HETATM    5  C19 UNL     1       8.869   8.447  25.754  1.00  0.00     0.095 A 
HETATM    6  N1  UNL     1      11.535   8.429  25.209  1.00  0.00    -0.261 N 
HETATM    7  C2  UNL     1      11.064   7.945  26.365  1.00  0.00     0.122 A 
ATOM      8  H1  UNL     1      12.537   8.414  25.019  1.00  0.00     0.191 HD
HETATM    9  C1  UNL     1      11.956   7.370  27.422  1.00  0.00     0.093 C 
HETATM   10  N5  UNL     1       9.749   7.953  26.638  1.00  0.00    -0.209 N 
HETATM   11  C18 UNL     1       7.524   8.476  26.040  1.00  0.00     0.034 A 
HETATM   12  C17 UNL     1       6.656   9.004  25.131  1.00  0.00     0.003 A 
HETATM   13  C16 UNL     1       7.154   9.490  23.955  1.00  0.00     0.010 A 
BRANCH   4  14
HETATM   14  O1  UNL     1      11.183   9.466  23.150  1.00  0.00    -0.267 OA
ATOM     15  H1  UNL     1      10.663   9.424  22.356  1.00  0.00     0.247 HD
ENDBRANCH   4  14
BRANCH  10  16
HETATM   16  O4  UNL     1       9.234   7.464  27.820  1.00  0.00    -0.281 OA
ATOM     17  H4  UNL     1       9.724   6.883  28.390  1.00  0.00     0.245 HD
ENDBRANCH  10  16
ENDBRANCH   1   2
BRANCH   1  18
HETATM   18  C6  UNL     1       7.697  10.125  21.348  1.00  0.00     0.069 C 
BRANCH  18  19
HETATM   19  N3  UNL     1       7.532   9.305  20.245  1.00  0.00    -0.332 N 
HETATM   20  C7  UNL     1       7.009   8.008  20.208  1.00  0.00     0.312 C 
HETATM   21  O2  UNL     1       6.621   7.448  21.250  1.00  0.00    -0.262 OA
ATOM     22  H3  UNL     1       7.829   9.694  19.350  1.00  0.00     0.168 HD
BRANCH  20  23
HETATM   23  C8  UNL     1       6.886   7.235  18.968  1.00  0.00     0.309 C 
HETATM   24  O3  UNL     1       6.434   7.811  17.949  1.00  0.00    -0.262 OA
HETATM   25  N4  UNL     1       7.289   5.861  18.984  1.00  0.00    -0.349 N 
ATOM     26  H4  UNL     1       7.652   5.428  19.834  1.00  0.00     0.163 HD
BRANCH  25  27
HETATM   27  C9  UNL     1       7.168   5.125  17.783  1.00  0.00     0.163 C 
BRANCH  27  28
HETATM   28  C10 UNL     1       7.979   3.906  17.717  1.00  0.00    -0.023 A 
HETATM   29  C11 UNL     1       9.275   3.787  18.140  1.00  0.00     0.010 A 
HETATM   30  C12 UNL     1       9.972   2.578  18.040  1.00  0.00     0.001 A 
HETATM   31  C13 UNL     1       9.383   1.463  17.512  1.00  0.00     0.001 A 
HETATM   32  C14 UNL     1       8.098   1.555  17.084  1.00  0.00     0.019 A 
HETATM   33  C15 UNL     1       7.414   2.730  17.180  1.00  0.00     0.018 A 
HETATM   34 BR1  UNL     1       5.609   2.805  16.565  1.00  0.00    -0.051 Br
ENDBRANCH  27  28
ENDBRANCH  25  27
ENDBRANCH  20  23
ENDBRANCH  18  19
ENDBRANCH   1  18
TORSDOF 8
ENDMDL
MODEL 5
REMARK VINA RESULT: -9.158186005      2.736      3.768
REMARK  8 active torsions:
REMARK  status: ('A' for Active; 'I' for Inactive)
REMARK    1  A    between atoms: N2_5  and  O1_6 
REMARK    2  A    between atoms: C4_9  and  C5_10 
REMARK    3  A    between atoms: C5_10  and  C6_11 
REMARK    4  A    between atoms: C6_11  and  N3_12 
REMARK       I    between atoms: N3_12  and  C7_14 
REMARK    5  A    between atoms: C7_14  and  C8_16 
REMARK       I    between atoms: C8_16  and  N4_18 
REMARK    6  A    between atoms: N4_18  and  C9_20 
REMARK    7  A    between atoms: C9_20  and  C10_21 
REMARK    8  A    between atoms: N5_32  and  O4_33 
ROOT
HETATM    1  C5  UNL     1       4.798   8.139  23.315  1.00  0.00     0.085 C 
ENDROOT
BRANCH   1   2
HETATM    2  C4  UNL     1       5.987   8.929  23.169  1.00  0.00    -0.020 A 
HETATM    3  C3  UNL     1       7.132   8.828  23.908  1.00  0.00     0.117 A 
HETATM    4  N2  UNL     1       7.271   7.835  24.794  1.00  0.00    -0.159 N 
HETATM    5  C19 UNL     1       8.183   9.754  23.729  1.00  0.00     0.095 A 
HETATM    6  N1  UNL     1       8.384   7.709  25.513  1.00  0.00    -0.261 N 
HETATM    7  C2  UNL     1       9.385   8.583  25.350  1.00  0.00     0.122 A 
ATOM      8  H1  UNL     1       8.474   6.947  26.186  1.00  0.00     0.191 HD
HETATM    9  C1  UNL     1      10.664   8.499  26.125  1.00  0.00     0.093 C 
HETATM   10  N5  UNL     1       9.290   9.593  24.471  1.00  0.00    -0.209 N 
HETATM   11  C18 UNL     1       8.091  10.775  22.812  1.00  0.00     0.034 A 
HETATM   12  C17 UNL     1       6.963  10.899  22.058  1.00  0.00     0.003 A 
HETATM   13  C16 UNL     1       5.950  10.000  22.239  1.00  0.00     0.010 A 
BRANCH   4  14
HETATM   14  O1  UNL     1       6.272   6.910  24.928  1.00  0.00    -0.267 OA
ATOM     15  H1  UNL     1       6.426   6.012  24.659  1.00  0.00     0.247 HD
ENDBRANCH   4  14
BRANCH  10  16
HETATM   16  O4  UNL     1      10.303  10.509  24.280  1.00  0.00    -0.281 OA
ATOM     17  H4  UNL     1      10.243  11.408  24.581  1.00  0.00     0.245 HD
ENDBRANCH  10  16
ENDBRANCH   1   2
BRANCH   1  18
HETATM   18  C6  UNL     1       4.187   7.662  22.008  1.00  0.00     0.069 C 
BRANCH  18  19
HETATM   19  N3  UNL     1       4.564   6.451  21.455  1.00  0.00    -0.332 N 
HETATM   20  C7  UNL     1       4.682   5.213  22.096  1.00  0.00     0.312 C 
HETATM   21  O2  UNL     1       4.437   5.099  23.311  1.00  0.00    -0.262 OA
ATOM     22  H3  UNL     1       4.782   6.462  20.458  1.00  0.00     0.168 HD
BRANCH  20  23
HETATM   23  C8  UNL     1       5.094   3.991  21.396  1.00  0.00     0.309 C 
HETATM   24  O3  UNL     1       5.389   2.982  22.081  1.00  0.00    -0.262 OA
HETATM   25  N4  UNL     1       5.137   4.013  19.965  1.00  0.00    -0.349 N 
ATOM     26  H4  UNL     1       4.890   4.855  19.443  1.00  0.00     0.163 HD
BRANCH  25  27
HETATM   27  C9  UNL     1       5.534   2.831  19.300  1.00  0.00     0.163 C 
BRANCH  27  28
HETATM   28  C10 UNL     1       6.925   2.813  18.841  1.00  0.00    -0.023 A 
HETATM   29  C11 UNL     1       7.901   1.962  19.286  1.00  0.00     0.010 A 
HETATM   30  C12 UNL     1       9.207   2.017  18.786  1.00  0.00     0.001 A 
HETATM   31  C13 UNL     1       9.561   2.926  17.829  1.00  0.00     0.001 A 
HETATM   32  C14 UNL     1       8.612   3.782  17.370  1.00  0.00     0.019 A 
HETATM   33  C15 UNL     1       7.338   3.734  17.854  1.00  0.00     0.018 A 
HETATM   34 BR1  UNL     1       6.042   4.958  17.175  1.00  0.00    -0.051 Br
ENDBRANCH  27  28
ENDBRANCH  25  27
ENDBRANCH  20  23
ENDBRANCH  18  19
ENDBRANCH   1  18
TORSDOF 8
ENDMDL
