MODEL 1
REMARK VINA RESULT: -8.179356089      0.000      0.000
REMARK  7 active torsions:
REMARK  status: ('A' for Active; 'I' for Inactive)
REMARK    1  A    between atoms: N1_5  and  C3_6 
REMARK    2  A    between atoms: C3_6  and  C4_7 
REMARK    3  A    between atoms: N2_14  and  C9_15 
REMARK    4  A    between atoms: C9_15  and  C10_16 
REMARK    5  A    between atoms: C10_16  and  N3_17 
REMARK    6  A    between atoms: C12_19  and  C13_20 
REMARK    7  A    between atoms: C14_21  and  C15_22 
ROOT
HETATM    1  C10 UNL     1       7.772  10.401  20.320  1.00  0.00     0.168 C 
ENDROOT
BRANCH   1   2
HETATM    2  C9  UNL     1       7.026  10.882  21.512  1.00  0.00     0.159 C 
BRANCH   2   3
HETATM    3  N2  UNL     1       7.052   9.999  22.641  1.00  0.00    -0.260 N 
HETATM    4  C1  UNL     1       8.094   9.793  23.604  1.00  0.00     0.320 A 
HETATM    5  O1  UNL     1       9.196  10.406  23.554  1.00  0.00    -0.262 OA
HETATM    6  C2  UNL     1       7.637   8.806  24.564  1.00  0.00     0.320 A 
HETATM    7  O2  UNL     1       8.283   8.374  25.551  1.00  0.00    -0.262 OA
HETATM    8  N1  UNL     1       6.326   8.411  24.191  1.00  0.00    -0.255 N 
HETATM    9  C8  UNL     1       5.968   9.136  23.023  1.00  0.00     0.335 A 
HETATM   10  O4  UNL     1       4.870   9.056  22.389  1.00  0.00    -0.246 OA
BRANCH   8  11
HETATM   11  C3  UNL     1       5.460   7.458  24.835  1.00  0.00     0.202 C 
BRANCH  11  12
HETATM   12  C4  UNL     1       4.134   8.053  25.166  1.00  0.00     0.071 A 
HETATM   13  C5  UNL     1       2.897   7.470  25.027  1.00  0.00     0.036 A 
HETATM   14  C6  UNL     1       1.964   8.389  25.459  1.00  0.00     0.027 A 
HETATM   15  C7  UNL     1       2.690   9.496  25.843  1.00  0.00     0.142 A 
HETATM   16  O3  UNL     1       3.963   9.262  25.657  1.00  0.00    -0.325 OA
ENDBRANCH  11  12
ENDBRANCH   8  11
ENDBRANCH   2   3
ENDBRANCH   1   2
BRANCH   1  17
HETATM   17  N3  UNL     1       7.384   9.085  19.879  1.00  0.00    -0.301 N 
HETATM   18  C11 UNL     1       8.166   8.013  19.661  1.00  0.00     0.132 A 
HETATM   19  C12 UNL     1       7.388   6.964  19.266  1.00  0.00     0.052 A 
HETATM   20  C21 UNL     1       6.086   7.431  19.248  1.00  0.00     0.129 A 
HETATM   21  N4  UNL     1       6.120   8.704  19.620  1.00  0.00    -0.309 N 
ATOM     22  H4  UNL     1       5.302   9.309  19.699  1.00  0.00     0.186 HD
BRANCH  19  23
HETATM   23  C13 UNL     1       7.844   5.636  18.935  1.00  0.00    -0.059 C 
HETATM   24  C14 UNL     1       8.245   4.531  18.653  1.00  0.00    -0.061 C 
BRANCH  24  25
HETATM   25  C15 UNL     1       8.742   3.228  18.310  1.00  0.00     0.018 A 
HETATM   26  C16 UNL     1       9.125   2.908  17.021  1.00  0.00     0.022 A 
HETATM   27  C17 UNL     1       9.604   1.658  16.684  1.00  0.00     0.020 A 
HETATM   28  C18 UNL     1       9.719   0.669  17.637  1.00  0.00     0.011 A 
HETATM   29 BR1  UNL     1      10.386  -1.077  17.175  1.00  0.00    -0.051 Br
HETATM   30  C19 UNL     1       9.343   0.967  18.927  1.00  0.00     0.020 A 
HETATM   31  C20 UNL     1       8.866   2.220  19.253  1.00  0.00     0.022 A 
ENDBRANCH  24  25
ENDBRANCH  19  23
ENDBRANCH   1  17
TORSDOF 7
ENDMDL
MODEL 2
REMARK VINA RESULT: -8.119780914      2.216      3.914
REMARK  7 active torsions:
REMARK  status: ('A' for Active; 'I' for Inactive)
REMARK    1  A    between atoms: N1_5  and  C3_6 
REMARK    2  A    between atoms: C3_6  and  C4_7 
REMARK    3  A    between atoms: N2_14  and  C9_15 
REMARK    4  A    between atoms: C9_15  and  C10_16 
REMARK    5  A    between atoms: C10_16  and  N3_17 
REMARK    6  A    between atoms: C12_19  and  C13_20 
REMARK    7  A    between atoms: C14_21  and  C15_22 
ROOT
HETATM    1  C10 UNL     1       6.726  10.206  20.281  1.00  0.00     0.168 C 
ENDROOT
BRANCH   1   2
HETATM    2  C9  UNL     1       6.415  10.365  21.726  1.00  0.00     0.159 C 
BRANCH   2   3
HETATM    3  N2  UNL     1       7.353   9.750  22.620  1.00  0.00    -0.260 N 
HETATM    4  C1  UNL     1       7.319   8.443  23.207  1.00  0.00     0.320 A 
HETATM    5  O1  UNL     1       6.379   7.627  22.995  1.00  0.00    -0.262 OA
HETATM    6  C2  UNL     1       8.503   8.283  24.030  1.00  0.00     0.320 A 
HETATM    7  O2  UNL     1       8.812   7.266  24.698  1.00  0.00    -0.262 OA
HETATM    8  N1  UNL     1       9.255   9.484  23.946  1.00  0.00    -0.255 N 
HETATM    9  C8  UNL     1       8.558  10.377  23.089  1.00  0.00     0.335 A 
HETATM   10  O4  UNL     1       8.916  11.553  22.768  1.00  0.00    -0.246 OA
BRANCH   8  11
HETATM   11  C3  UNL     1      10.505   9.805  24.586  1.00  0.00     0.202 C 
BRANCH  11  12
HETATM   12  C4  UNL     1      10.846   8.822  25.654  1.00  0.00     0.071 A 
HETATM   13  C5  UNL     1      11.926   7.973  25.696  1.00  0.00     0.036 A 
HETATM   14  C6  UNL     1      11.831   7.252  26.867  1.00  0.00     0.027 A 
HETATM   15  C7  UNL     1      10.685   7.704  27.484  1.00  0.00     0.142 A 
HETATM   16  O3  UNL     1      10.131   8.627  26.742  1.00  0.00    -0.325 OA
ENDBRANCH  11  12
ENDBRANCH   8  11
ENDBRANCH   2   3
ENDBRANCH   1   2
BRANCH   1  17
HETATM   17  N3  UNL     1       6.539   8.865  19.787  1.00  0.00    -0.301 N 
HETATM   18  C11 UNL     1       7.453   7.887  19.660  1.00  0.00     0.132 A 
HETATM   19  C12 UNL     1       6.847   6.769  19.164  1.00  0.00     0.052 A 
HETATM   20  C21 UNL     1       5.514   7.096  18.988  1.00  0.00     0.129 A 
HETATM   21  N4  UNL     1       5.365   8.357  19.371  1.00  0.00    -0.309 N 
ATOM     22  H4  UNL     1       4.483   8.870  19.351  1.00  0.00     0.186 HD
BRANCH  19  23
HETATM   23  C13 UNL     1       7.481   5.504  18.884  1.00  0.00    -0.059 C 
HETATM   24  C14 UNL     1       8.000   4.441  18.633  1.00  0.00    -0.061 C 
BRANCH  24  25
HETATM   25  C15 UNL     1       8.598   3.174  18.319  1.00  0.00     0.018 A 
HETATM   26  C16 UNL     1       8.738   2.177  19.264  1.00  0.00     0.022 A 
HETATM   27  C17 UNL     1       9.311   0.956  18.969  1.00  0.00     0.020 A 
HETATM   28  C18 UNL     1       9.773   0.686  17.699  1.00  0.00     0.011 A 
HETATM   29 BR1  UNL     1      10.573  -1.013  17.278  1.00  0.00    -0.051 Br
HETATM   30  C19 UNL     1       9.643   1.666  16.742  1.00  0.00     0.020 A 
HETATM   31  C20 UNL     1       9.068   2.882  17.048  1.00  0.00     0.022 A 
ENDBRANCH  24  25
ENDBRANCH  19  23
ENDBRANCH   1  17
TORSDOF 7
ENDMDL
MODEL 3
REMARK VINA RESULT: -8.099073290      1.404      2.039
REMARK  7 active torsions:
REMARK  status: ('A' for Active; 'I' for Inactive)
REMARK    1  A    between atoms: N1_5  and  C3_6 
REMARK    2  A    between atoms: C3_6  and  C4_7 
REMARK    3  A    between atoms: N2_14  and  C9_15 
REMARK    4  A    between atoms: C9_15  and  C10_16 
REMARK    5  A    between atoms: C10_16  and  N3_17 
REMARK    6  A    between atoms: C12_19  and  C13_20 
REMARK    7  A    between atoms: C14_21  and  C15_22 
ROOT
HETATM    1  C10 UNL     1       7.933  10.752  20.404  1.00  0.00     0.168 C 
ENDROOT
BRANCH   1   2
HETATM    2  C9  UNL     1       7.525  11.090  21.793  1.00  0.00     0.159 C 
BRANCH   2   3
HETATM    3  N2  UNL     1       7.425   9.971  22.685  1.00  0.00    -0.260 N 
HETATM    4  C1  UNL     1       8.471   9.224  23.319  1.00  0.00     0.320 A 
HETATM    5  O1  UNL     1       9.694   9.480  23.139  1.00  0.00    -0.262 OA
HETATM    6  C2  UNL     1       7.862   8.194  24.140  1.00  0.00     0.320 A 
HETATM    7  O2  UNL     1       8.468   7.349  24.843  1.00  0.00    -0.262 OA
HETATM    8  N1  UNL     1       6.453   8.312  24.009  1.00  0.00    -0.255 N 
HETATM    9  C8  UNL     1       6.186   9.391  23.125  1.00  0.00     0.335 A 
HETATM   10  O4  UNL     1       5.042   9.805  22.760  1.00  0.00    -0.246 OA
BRANCH   8  11
HETATM   11  C3  UNL     1       5.427   7.516  24.630  1.00  0.00     0.202 C 
BRANCH  11  12
HETATM   12  C4  UNL     1       4.886   6.487  23.696  1.00  0.00     0.071 A 
HETATM   13  C5  UNL     1       5.259   6.261  22.393  1.00  0.00     0.036 A 
HETATM   14  C6  UNL     1       4.493   5.214  21.926  1.00  0.00     0.027 A 
HETATM   15  C7  UNL     1       3.683   4.854  22.981  1.00  0.00     0.142 A 
HETATM   16  O3  UNL     1       3.942   5.624  24.006  1.00  0.00    -0.325 OA
ENDBRANCH  11  12
ENDBRANCH   8  11
ENDBRANCH   2   3
ENDBRANCH   1   2
BRANCH   1  17
HETATM   17  N3  UNL     1       7.487   9.455  19.963  1.00  0.00    -0.301 N 
HETATM   18  C11 UNL     1       8.225   8.358  19.718  1.00  0.00     0.132 A 
HETATM   19  C12 UNL     1       7.400   7.341  19.333  1.00  0.00     0.052 A 
HETATM   20  C21 UNL     1       6.116   7.855  19.349  1.00  0.00     0.129 A 
HETATM   21  N4  UNL     1       6.205   9.122  19.730  1.00  0.00    -0.309 N 
ATOM     22  H4  UNL     1       5.411   9.755  19.833  1.00  0.00     0.186 HD
BRANCH  19  23
HETATM   23  C13 UNL     1       7.801   6.000  18.982  1.00  0.00    -0.059 C 
HETATM   24  C14 UNL     1       8.156   4.883  18.686  1.00  0.00    -0.061 C 
BRANCH  24  25
HETATM   25  C15 UNL     1       8.601   3.564  18.332  1.00  0.00     0.018 A 
HETATM   26  C16 UNL     1       8.784   2.575  19.279  1.00  0.00     0.022 A 
HETATM   27  C17 UNL     1       9.211   1.305  18.945  1.00  0.00     0.020 A 
HETATM   28  C18 UNL     1       9.476   0.976  17.633  1.00  0.00     0.011 A 
HETATM   29 BR1  UNL     1      10.072  -0.793  17.159  1.00  0.00    -0.051 Br
HETATM   30  C19 UNL     1       9.300   1.947  16.674  1.00  0.00     0.020 A 
HETATM   31  C20 UNL     1       8.872   3.212  17.019  1.00  0.00     0.022 A 
ENDBRANCH  24  25
ENDBRANCH  19  23
ENDBRANCH   1  17
TORSDOF 7
ENDMDL
MODEL 4
REMARK VINA RESULT: -7.961990329      1.786      4.047
REMARK  7 active torsions:
REMARK  status: ('A' for Active; 'I' for Inactive)
REMARK    1  A    between atoms: N1_5  and  C3_6 
REMARK    2  A    between atoms: C3_6  and  C4_7 
REMARK    3  A    between atoms: N2_14  and  C9_15 
REMARK    4  A    between atoms: C9_15  and  C10_16 
REMARK    5  A    between atoms: C10_16  and  N3_17 
REMARK    6  A    between atoms: C12_19  and  C13_20 
REMARK    7  A    between atoms: C14_21  and  C15_22 
ROOT
HETATM    1  C10 UNL     1       2.697   7.793  22.584  1.00  0.00     0.168 C 
ENDROOT
BRANCH   1   2
HETATM    2  C9  UNL     1       3.131   9.054  23.241  1.00  0.00     0.159 C 
BRANCH   2   3
HETATM    3  N2  UNL     1       4.506   9.083  23.649  1.00  0.00    -0.260 N 
HETATM    4  C1  UNL     1       5.101   8.582  24.854  1.00  0.00     0.320 A 
HETATM    5  O1  UNL     1       4.427   8.029  25.766  1.00  0.00    -0.262 OA
HETATM    6  C2  UNL     1       6.528   8.837  24.795  1.00  0.00     0.320 A 
HETATM    7  O2  UNL     1       7.374   8.538  25.674  1.00  0.00    -0.262 OA
HETATM    8  N1  UNL     1       6.803   9.488  23.564  1.00  0.00    -0.255 N 
HETATM    9  C8  UNL     1       5.575   9.637  22.866  1.00  0.00     0.335 A 
HETATM   10  O4  UNL     1       5.412  10.174  21.726  1.00  0.00    -0.246 OA
BRANCH   8  11
HETATM   11  C3  UNL     1       8.071   9.940  23.053  1.00  0.00     0.202 C 
BRANCH  11  12
HETATM   12  C4  UNL     1       8.499   9.151  21.863  1.00  0.00     0.071 A 
HETATM   13  C5  UNL     1       8.431   7.788  21.694  1.00  0.00     0.036 A 
HETATM   14  C6  UNL     1       8.938   7.508  20.443  1.00  0.00     0.027 A 
HETATM   15  C7  UNL     1       9.292   8.728  19.909  1.00  0.00     0.142 A 
HETATM   16  O3  UNL     1       9.020   9.672  20.773  1.00  0.00    -0.325 OA
ENDBRANCH  11  12
ENDBRANCH   8  11
ENDBRANCH   2   3
ENDBRANCH   1   2
BRANCH   1  17
HETATM   17  N3  UNL     1       3.592   7.332  21.553  1.00  0.00    -0.301 N 
HETATM   18  C11 UNL     1       4.416   6.270  21.576  1.00  0.00     0.132 A 
HETATM   19  C12 UNL     1       5.075   6.188  20.383  1.00  0.00     0.052 A 
HETATM   20  C21 UNL     1       4.624   7.248  19.617  1.00  0.00     0.129 A 
HETATM   21  N4  UNL     1       3.737   7.912  20.347  1.00  0.00    -0.309 N 
ATOM     22  H4  UNL     1       3.237   8.746  20.038  1.00  0.00     0.186 HD
BRANCH  19  23
HETATM   23  C13 UNL     1       6.046   5.190  20.008  1.00  0.00    -0.059 C 
HETATM   24  C14 UNL     1       6.849   4.339  19.703  1.00  0.00    -0.061 C 
BRANCH  24  25
HETATM   25  C15 UNL     1       7.790   3.312  19.354  1.00  0.00     0.018 A 
HETATM   26  C16 UNL     1       8.866   3.556  18.523  1.00  0.00     0.022 A 
HETATM   27  C17 UNL     1       9.774   2.574  18.184  1.00  0.00     0.020 A 
HETATM   28  C18 UNL     1       9.636   1.292  18.671  1.00  0.00     0.011 A 
HETATM   29 BR1  UNL     1      10.898  -0.085  18.204  1.00  0.00    -0.051 Br
HETATM   30  C19 UNL     1       8.570   1.027  19.501  1.00  0.00     0.020 A 
HETATM   31  C20 UNL     1       7.669   2.017  19.833  1.00  0.00     0.022 A 
ENDBRANCH  24  25
ENDBRANCH  19  23
ENDBRANCH   1  17
TORSDOF 7
ENDMDL
MODEL 5
REMARK VINA RESULT: -7.956930245      2.023      4.501
REMARK  7 active torsions:
REMARK  status: ('A' for Active; 'I' for Inactive)
REMARK    1  A    between atoms: N1_5  and  C3_6 
REMARK    2  A    between atoms: C3_6  and  C4_7 
REMARK    3  A    between atoms: N2_14  and  C9_15 
REMARK    4  A    between atoms: C9_15  and  C10_16 
REMARK    5  A    between atoms: C10_16  and  N3_17 
REMARK    6  A    between atoms: C12_19  and  C13_20 
REMARK    7  A    between atoms: C14_21  and  C15_22 
ROOT
HETATM    1  C10 UNL     1       3.964   7.945  24.587  1.00  0.00     0.168 C 
ENDROOT
BRANCH   1   2
HETATM    2  C9  UNL     1       4.525   9.321  24.604  1.00  0.00     0.159 C 
BRANCH   2   3
HETATM    3  N2  UNL     1       5.725   9.497  23.839  1.00  0.00    -0.260 N 
HETATM    4  C1  UNL     1       7.089   9.309  24.240  1.00  0.00     0.320 A 
HETATM    5  O1  UNL     1       7.410   8.952  25.407  1.00  0.00    -0.262 OA
HETATM    6  C2  UNL     1       7.941   9.599  23.103  1.00  0.00     0.320 A 
HETATM    7  O2  UNL     1       9.196   9.542  23.080  1.00  0.00    -0.262 OA
HETATM    8  N1  UNL     1       7.106   9.961  22.014  1.00  0.00    -0.255 N 
HETATM    9  C8  UNL     1       5.758   9.899  22.459  1.00  0.00     0.335 A 
HETATM   10  O4  UNL     1       4.721  10.154  21.772  1.00  0.00    -0.246 OA
BRANCH   8  11
HETATM   11  C3  UNL     1       7.487  10.334  20.677  1.00  0.00     0.202 C 
BRANCH  11  12
HETATM   12  C4  UNL     1       7.742  11.798  20.564  1.00  0.00     0.071 A 
HETATM   13  C5  UNL     1       6.827  12.788  20.292  1.00  0.00     0.036 A 
HETATM   14  C6  UNL     1       7.512  13.984  20.286  1.00  0.00     0.027 A 
HETATM   15  C7  UNL     1       8.824  13.657  20.557  1.00  0.00     0.142 A 
HETATM   16  O3  UNL     1       8.921  12.362  20.714  1.00  0.00    -0.325 OA
ENDBRANCH  11  12
ENDBRANCH   8  11
ENDBRANCH   2   3
ENDBRANCH   1   2
BRANCH   1  17
HETATM   17  N3  UNL     1       4.224   7.222  23.368  1.00  0.00    -0.301 N 
HETATM   18  C11 UNL     1       5.233   6.376  23.098  1.00  0.00     0.132 A 
HETATM   19  C12 UNL     1       5.090   5.901  21.826  1.00  0.00     0.052 A 
HETATM   20  C21 UNL     1       3.946   6.489  21.318  1.00  0.00     0.129 A 
HETATM   21  N4  UNL     1       3.453   7.274  22.266  1.00  0.00    -0.309 N 
ATOM     22  H4  UNL     1       2.608   7.838  22.173  1.00  0.00     0.186 HD
BRANCH  19  23
HETATM   23  C13 UNL     1       5.966   4.969  21.157  1.00  0.00    -0.059 C 
HETATM   24  C14 UNL     1       6.712   4.190  20.612  1.00  0.00    -0.061 C 
BRANCH  24  25
HETATM   25  C15 UNL     1       7.616   3.268  19.983  1.00  0.00     0.018 A 
HETATM   26  C16 UNL     1       7.563   1.910  20.227  1.00  0.00     0.022 A 
HETATM   27  C17 UNL     1       8.428   1.018  19.625  1.00  0.00     0.020 A 
HETATM   28  C18 UNL     1       9.393   1.461  18.745  1.00  0.00     0.011 A 
HETATM   29 BR1  UNL     1      10.604   0.224  17.902  1.00  0.00    -0.051 Br
HETATM   30  C19 UNL     1       9.463   2.811  18.489  1.00  0.00     0.020 A 
HETATM   31  C20 UNL     1       8.593   3.692  19.095  1.00  0.00     0.022 A 
ENDBRANCH  24  25
ENDBRANCH  19  23
ENDBRANCH   1  17
TORSDOF 7
ENDMDL
