MODEL 1
REMARK VINA RESULT: -7.133441424      0.000      0.000
REMARK  2 active torsions:
REMARK  status: ('A' for Active; 'I' for Inactive)
REMARK    1  A    between atoms: C1_4  and  C2_6 
REMARK    2  A    between atoms: C4_8  and  N3_9 
ROOT
HETATM    1  C2  UNL     1       1.914  -6.073  33.759  1.00  0.00     0.008 A 
HETATM    2  C3  UNL     1       2.339  -5.415  32.621  1.00  0.00     0.053 A 
HETATM    3  C4  UNL     1       1.451  -4.978  31.676  1.00  0.00     0.138 A 
HETATM    4  C5  UNL     1       0.109  -5.214  31.891  1.00  0.00     0.129 A 
HETATM    5  O3  UNL     1      -0.743  -4.792  30.978  1.00  0.00    -0.258 OA
HETATM    6  C6  UNL     1      -2.041  -4.980  31.107  1.00  0.00     0.372 A 
HETATM    7  O4  UNL     1      -2.852  -4.564  30.212  1.00  0.00    -0.238 OA
HETATM    8  N4  UNL     1      -2.551  -5.609  32.177  1.00  0.00    -0.268 N 
ATOM      9  H4  UNL     1      -3.557  -5.749  32.272  1.00  0.00     0.174 HD
HETATM   10  C7  UNL     1      -1.702  -6.048  33.120  1.00  0.00     0.262 A 
HETATM   11  O5  UNL     1      -2.110  -6.654  34.163  1.00  0.00    -0.267 OA
HETATM   12  C8  UNL     1      -0.337  -5.868  33.015  1.00  0.00     0.070 A 
HETATM   13  C9  UNL     1       0.567  -6.298  33.950  1.00  0.00     0.035 A 
ENDROOT
BRANCH   1  14
HETATM   14  C1  UNL     1       2.872  -6.536  34.763  1.00  0.00     0.120 C 
HETATM   15  N1  UNL     1       2.819  -7.771  35.184  1.00  0.00    -0.387 N 
ATOM     16  H12 UNL     1       3.487  -8.094  35.885  1.00  0.00     0.157 HD
ATOM     17  H11 UNL     1       2.113  -8.408  34.813  1.00  0.00     0.157 HD
HETATM   18  N2  UNL     1       3.848  -5.656  35.275  1.00  0.00    -0.082 NA
ENDBRANCH   1  14
BRANCH   3  19
HETATM   19  N3  UNL     1       1.864  -4.299  30.501  1.00  0.00    -0.113 N 
HETATM   20  O1  UNL     1       2.672  -4.829  29.712  1.00  0.00    -0.532 OA
HETATM   21  O2  UNL     1       1.330  -3.048  30.290  1.00  0.00    -0.532 OA
ENDBRANCH   3  19
TORSDOF 2
ENDMDL
MODEL 2
REMARK VINA RESULT: -6.746227838      2.198      5.944
REMARK  2 active torsions:
REMARK  status: ('A' for Active; 'I' for Inactive)
REMARK    1  A    between atoms: C1_4  and  C2_6 
REMARK    2  A    between atoms: C4_8  and  N3_9 
ROOT
HETATM    1  C2  UNL     1      -2.161  -6.019  30.164  1.00  0.00     0.008 A 
HETATM    2  C3  UNL     1      -2.788  -6.233  31.376  1.00  0.00     0.053 A 
HETATM    3  C4  UNL     1      -2.088  -6.237  32.552  1.00  0.00     0.138 A 
HETATM    4  C5  UNL     1      -0.727  -6.020  32.495  1.00  0.00     0.129 A 
HETATM    5  O3  UNL     1      -0.056  -6.025  33.630  1.00  0.00    -0.258 OA
HETATM    6  C6  UNL     1       1.246  -5.827  33.662  1.00  0.00     0.372 A 
HETATM    7  O4  UNL     1       1.880  -5.836  34.770  1.00  0.00    -0.238 OA
HETATM    8  N4  UNL     1       1.945  -5.611  32.537  1.00  0.00    -0.268 N 
ATOM      9  H4  UNL     1       2.953  -5.456  32.569  1.00  0.00     0.174 HD
HETATM   10  C7  UNL     1       1.284  -5.602  31.369  1.00  0.00     0.262 A 
HETATM   11  O5  UNL     1       1.877  -5.403  30.260  1.00  0.00    -0.267 OA
HETATM   12  C8  UNL     1      -0.080  -5.805  31.300  1.00  0.00     0.070 A 
HETATM   13  C9  UNL     1      -0.798  -5.806  30.135  1.00  0.00     0.035 A 
ENDROOT
BRANCH   1  14
HETATM   14  C1  UNL     1      -2.919  -6.016  28.914  1.00  0.00     0.120 C 
HETATM   15  N1  UNL     1      -2.320  -6.331  27.796  1.00  0.00    -0.387 N 
ATOM     16  H12 UNL     1      -2.849  -6.329  26.923  1.00  0.00     0.157 HD
ATOM     17  H11 UNL     1      -1.330  -6.576  27.798  1.00  0.00     0.157 HD
HETATM   18  N2  UNL     1      -4.287  -5.677  28.911  1.00  0.00    -0.082 NA
ENDBRANCH   1  14
BRANCH   3  19
HETATM   19  N3  UNL     1      -2.712  -6.454  33.808  1.00  0.00    -0.113 N 
HETATM   20  O1  UNL     1      -2.568  -5.636  34.738  1.00  0.00    -0.532 OA
HETATM   21  O2  UNL     1      -3.470  -7.596  33.932  1.00  0.00    -0.532 OA
ENDBRANCH   3  19
TORSDOF 2
ENDMDL
MODEL 3
REMARK VINA RESULT: -6.374190593      4.930      6.919
REMARK  2 active torsions:
REMARK  status: ('A' for Active; 'I' for Inactive)
REMARK    1  A    between atoms: C1_4  and  C2_6 
REMARK    2  A    between atoms: C4_8  and  N3_9 
ROOT
HETATM    1  C2  UNL     1      -3.615  -7.816  27.877  1.00  0.00     0.008 A 
HETATM    2  C3  UNL     1      -3.497  -6.518  28.334  1.00  0.00     0.053 A 
HETATM    3  C4  UNL     1      -3.481  -6.232  29.672  1.00  0.00     0.138 A 
HETATM    4  C5  UNL     1      -3.587  -7.282  30.560  1.00  0.00     0.129 A 
HETATM    5  O3  UNL     1      -3.571  -7.001  31.848  1.00  0.00    -0.258 OA
HETATM    6  C6  UNL     1      -3.669  -7.946  32.761  1.00  0.00     0.372 A 
HETATM    7  O4  UNL     1      -3.652  -7.656  34.005  1.00  0.00    -0.238 OA
HETATM    8  N4  UNL     1      -3.788  -9.237  32.416  1.00  0.00    -0.268 N 
ATOM      9  H4  UNL     1      -3.861  -9.964  33.128  1.00  0.00     0.174 HD
HETATM   10  C7  UNL     1      -3.807  -9.548  31.111  1.00  0.00     0.262 A 
HETATM   11  O5  UNL     1      -3.917 -10.750  30.705  1.00  0.00    -0.267 OA
HETATM   12  C8  UNL     1      -3.706  -8.582  30.129  1.00  0.00     0.070 A 
HETATM   13  C9  UNL     1      -3.721  -8.849  28.786  1.00  0.00     0.035 A 
ENDROOT
BRANCH   1  14
HETATM   14  C1  UNL     1      -3.632  -8.112  26.445  1.00  0.00     0.120 C 
HETATM   15  N1  UNL     1      -3.974  -7.178  25.597  1.00  0.00    -0.387 N 
ATOM     16  H12 UNL     1      -3.986  -7.385  24.598  1.00  0.00     0.157 HD
ATOM     17  H11 UNL     1      -4.228  -6.250  25.935  1.00  0.00     0.157 HD
HETATM   18  N2  UNL     1      -3.281  -9.396  25.979  1.00  0.00    -0.082 NA
ENDBRANCH   1  14
BRANCH   3  19
HETATM   19  N3  UNL     1      -3.360  -4.906  30.164  1.00  0.00    -0.113 N 
HETATM   20  O1  UNL     1      -2.236  -4.407  30.372  1.00  0.00    -0.532 OA
HETATM   21  O2  UNL     1      -4.532  -4.221  30.391  1.00  0.00    -0.532 OA
ENDBRANCH   3  19
TORSDOF 2
ENDMDL
MODEL 4
REMARK VINA RESULT: -6.262886554      3.756      7.045
REMARK  2 active torsions:
REMARK  status: ('A' for Active; 'I' for Inactive)
REMARK    1  A    between atoms: C1_4  and  C2_6 
REMARK    2  A    between atoms: C4_8  and  N3_9 
ROOT
HETATM    1  C2  UNL     1      -3.392  -7.577  28.438  1.00  0.00     0.008 A 
HETATM    2  C3  UNL     1      -3.875  -8.606  29.223  1.00  0.00     0.053 A 
HETATM    3  C4  UNL     1      -3.779  -8.570  30.587  1.00  0.00     0.138 A 
HETATM    4  C5  UNL     1      -3.182  -7.469  31.164  1.00  0.00     0.129 A 
HETATM    5  O3  UNL     1      -3.091  -7.438  32.479  1.00  0.00    -0.258 OA
HETATM    6  C6  UNL     1      -2.534  -6.423  33.108  1.00  0.00     0.372 A 
HETATM    7  O4  UNL     1      -2.455  -6.409  34.383  1.00  0.00    -0.238 OA
HETATM    8  N4  UNL     1      -2.035  -5.375  32.434  1.00  0.00    -0.268 N 
ATOM      9  H4  UNL     1      -1.607  -4.591  32.927  1.00  0.00     0.174 HD
HETATM   10  C7  UNL     1      -2.115  -5.384  31.094  1.00  0.00     0.262 A 
HETATM   11  O5  UNL     1      -1.665  -4.427  30.385  1.00  0.00    -0.267 OA
HETATM   12  C8  UNL     1      -2.693  -6.432  30.404  1.00  0.00     0.070 A 
HETATM   13  C9  UNL     1      -2.798  -6.487  29.040  1.00  0.00     0.035 A 
ENDROOT
BRANCH   1  14
HETATM   14  C1  UNL     1      -3.500  -7.626  26.981  1.00  0.00     0.120 C 
HETATM   15  N1  UNL     1      -3.904  -6.570  26.327  1.00  0.00    -0.387 N 
ATOM     16  H12 UNL     1      -3.979  -6.605  25.310  1.00  0.00     0.157 HD
ATOM     17  H11 UNL     1      -4.142  -5.716  26.833  1.00  0.00     0.157 HD
HETATM   18  N2  UNL     1      -3.170  -8.806  26.282  1.00  0.00    -0.082 NA
ENDBRANCH   1  14
BRANCH   3  19
HETATM   19  N3  UNL     1      -4.269  -9.616  31.412  1.00  0.00    -0.113 N 
HETATM   20  O1  UNL     1      -3.530 -10.565  31.740  1.00  0.00    -0.532 OA
HETATM   21  O2  UNL     1      -5.580  -9.518  31.818  1.00  0.00    -0.532 OA
ENDBRANCH   3  19
TORSDOF 2
ENDMDL
MODEL 5
REMARK VINA RESULT: -6.171199940      4.918      6.866
REMARK  2 active torsions:
REMARK  status: ('A' for Active; 'I' for Inactive)
REMARK    1  A    between atoms: C1_4  and  C2_6 
REMARK    2  A    between atoms: C4_8  and  N3_9 
ROOT
HETATM    1  C2  UNL     1      -3.634  -8.154  28.093  1.00  0.00     0.008 A 
HETATM    2  C3  UNL     1      -3.543  -6.818  28.432  1.00  0.00     0.053 A 
HETATM    3  C4  UNL     1      -3.541  -6.411  29.738  1.00  0.00     0.138 A 
HETATM    4  C5  UNL     1      -3.633  -7.378  30.717  1.00  0.00     0.129 A 
HETATM    5  O3  UNL     1      -3.631  -6.982  31.975  1.00  0.00    -0.258 OA
HETATM    6  C6  UNL     1      -3.718  -7.842  32.969  1.00  0.00     0.372 A 
HETATM    7  O4  UNL     1      -3.714  -7.440  34.181  1.00  0.00    -0.238 OA
HETATM    8  N4  UNL     1      -3.811  -9.161  32.742  1.00  0.00    -0.268 N 
ATOM      9  H4  UNL     1      -3.876  -9.822  33.516  1.00  0.00     0.174 HD
HETATM   10  C7  UNL     1      -3.816  -9.589  31.470  1.00  0.00     0.262 A 
HETATM   11  O5  UNL     1      -3.902 -10.825  31.174  1.00  0.00    -0.267 OA
HETATM   12  C8  UNL     1      -3.726  -8.714  30.405  1.00  0.00     0.070 A 
HETATM   13  C9  UNL     1      -3.728  -9.102  29.092  1.00  0.00     0.035 A 
ENDROOT
BRANCH   1  14
HETATM   14  C1  UNL     1      -3.636  -8.579  26.694  1.00  0.00     0.120 C 
HETATM   15  N1  UNL     1      -3.405  -9.830  26.398  1.00  0.00    -0.387 N 
ATOM     16  H12 UNL     1      -3.406 -10.125  25.422  1.00  0.00     0.157 HD
ATOM     17  H11 UNL     1      -3.225 -10.506  27.141  1.00  0.00     0.157 HD
HETATM   18  N2  UNL     1      -3.885  -7.644  25.667  1.00  0.00    -0.082 NA
ENDBRANCH   1  14
BRANCH   3  19
HETATM   19  N3  UNL     1      -3.446  -5.044  30.108  1.00  0.00    -0.113 N 
HETATM   20  O1  UNL     1      -4.475  -4.362  30.285  1.00  0.00    -0.532 OA
HETATM   21  O2  UNL     1      -2.178  -4.531  30.257  1.00  0.00    -0.532 OA
ENDBRANCH   3  19
TORSDOF 2
ENDMDL
