MODEL 1
REMARK VINA RESULT: -6.644967452      0.000      0.000
REMARK  8 active torsions:
REMARK  status: ('A' for Active; 'I' for Inactive)
REMARK    1  A    between atoms: O1_2  and  C2_3 
REMARK    2  A    between atoms: C3_4  and  N1_5 
REMARK    3  A    between atoms: C4_9  and  O2_10 
REMARK    4  A    between atoms: C6_12  and  N2_13 
REMARK       I    between atoms: N2_13  and  C8_15 
REMARK    5  A    between atoms: C9_18  and  C10_19 
REMARK    6  A    between atoms: C10_19  and  O4_20 
REMARK    7  A    between atoms: C10_19  and  C11_22 
REMARK    8  A    between atoms: C11_22  and  O5_24 
ROOT
HETATM    1  C2  UNL     1      42.019  16.663  -1.031  1.00  0.00     0.172 C 
HETATM    2  C3  UNL     1      42.677  15.635  -0.172  1.00  0.00     0.247 C 
HETATM    3  C4  UNL     1      41.958  14.379   0.136  1.00  0.00     0.200 C 
HETATM    4  C6  UNL     1      40.651  14.127  -0.518  1.00  0.00     0.032 C 
HETATM    5  C9  UNL     1      40.428  14.909  -1.822  1.00  0.00     0.086 C 
HETATM    6  C13 UNL     1      40.602  16.316  -1.391  1.00  0.00     0.136 C 
HETATM    7  C14 UNL     1      39.948  17.304  -2.189  1.00  0.00     0.067 C 
HETATM    8  N4  UNL     1      39.384  18.132  -2.812  1.00  0.00    -0.197 NA
ENDROOT
BRANCH   1   9
HETATM    9  O1  UNL     1      41.970  17.887  -0.367  1.00  0.00    -0.387 OA
HETATM   10  C1  UNL     1      42.700  18.882  -0.997  1.00  0.00     0.202 C 
ENDBRANCH   1   9
BRANCH   5  11
HETATM   11  C10 UNL     1      41.043  14.379  -3.013  1.00  0.00     0.157 C 
BRANCH  11  12
HETATM   12  O4  UNL     1      42.315  13.888  -3.001  1.00  0.00    -0.392 OA
ATOM     13  H4  UNL     1      42.522  13.035  -3.365  1.00  0.00     0.210 HD
ENDBRANCH  11  12
BRANCH  11  14
HETATM   14  C11 UNL     1      40.905  15.160  -4.320  1.00  0.00     0.143 C 
HETATM   15  C12 UNL     1      42.002  14.868  -5.312  1.00  0.00     0.042 C 
BRANCH  14  16
HETATM   16  O5  UNL     1      39.741  14.666  -5.009  1.00  0.00    -0.393 OA
ATOM     17  H5  UNL     1      39.027  15.271  -4.845  1.00  0.00     0.210 HD
ENDBRANCH  14  16
ENDBRANCH  11  14
ENDBRANCH   5  11
BRANCH   2  18
HETATM   18  N1  UNL     1      43.170  16.293   1.040  1.00  0.00    -0.070 N 
ATOM     19  H13 UNL     1      43.571  17.212   0.852  1.00  0.00     0.274 HD
ATOM     20  H12 UNL     1      42.415  16.595   1.656  1.00  0.00     0.274 HD
ATOM     21  H11 UNL     1      43.827  15.665   1.502  1.00  0.00     0.274 HD
ENDBRANCH   2  18
BRANCH   4  22
HETATM   22  N2  UNL     1      40.108  12.844  -0.423  1.00  0.00    -0.311 N 
HETATM   23  C7  UNL     1      38.962  12.726   0.554  1.00  0.00     0.160 C 
HETATM   24  C8  UNL     1      40.411  11.648  -1.053  1.00  0.00     0.334 C 
HETATM   25  N3  UNL     1      39.608  10.473  -0.760  1.00  0.00    -0.040 NA
HETATM   26  O3  UNL     1      41.320  11.466  -1.865  1.00  0.00    -0.251 OA
ENDBRANCH   4  22
BRANCH   3  27
HETATM   27  O2  UNL     1      42.840  13.270   0.119  1.00  0.00    -0.383 OA
HETATM   28  C5  UNL     1      43.115  12.753   1.356  1.00  0.00     0.202 C 
ENDBRANCH   3  27
TORSDOF 8
ENDMDL
MODEL 2
REMARK VINA RESULT: -6.272925674      0.974      1.198
REMARK  8 active torsions:
REMARK  status: ('A' for Active; 'I' for Inactive)
REMARK    1  A    between atoms: O1_2  and  C2_3 
REMARK    2  A    between atoms: C3_4  and  N1_5 
REMARK    3  A    between atoms: C4_9  and  O2_10 
REMARK    4  A    between atoms: C6_12  and  N2_13 
REMARK       I    between atoms: N2_13  and  C8_15 
REMARK    5  A    between atoms: C9_18  and  C10_19 
REMARK    6  A    between atoms: C10_19  and  O4_20 
REMARK    7  A    between atoms: C10_19  and  C11_22 
REMARK    8  A    between atoms: C11_22  and  O5_24 
ROOT
HETATM    1  C2  UNL     1      42.053  16.874  -1.245  1.00  0.00     0.172 C 
HETATM    2  C3  UNL     1      42.766  15.863  -0.410  1.00  0.00     0.247 C 
HETATM    3  C4  UNL     1      42.103  14.575  -0.107  1.00  0.00     0.200 C 
HETATM    4  C6  UNL     1      40.796  14.279  -0.742  1.00  0.00     0.032 C 
HETATM    5  C9  UNL     1      40.520  15.069  -2.032  1.00  0.00     0.086 C 
HETATM    6  C13 UNL     1      40.645  16.475  -1.586  1.00  0.00     0.136 C 
HETATM    7  C14 UNL     1      39.938  17.447  -2.360  1.00  0.00     0.067 C 
HETATM    8  N4  UNL     1      39.332  18.259  -2.963  1.00  0.00    -0.197 NA
ENDROOT
BRANCH   1   9
HETATM    9  O1  UNL     1      41.967  18.087  -0.564  1.00  0.00    -0.387 OA
HETATM   10  C1  UNL     1      42.606  19.128  -1.216  1.00  0.00     0.202 C 
ENDBRANCH   1   9
BRANCH   5  11
HETATM   11  C10 UNL     1      41.135  14.578  -3.240  1.00  0.00     0.157 C 
BRANCH  11  12
HETATM   12  O4  UNL     1      42.460  14.259  -3.287  1.00  0.00    -0.392 OA
ATOM     13  H4  UNL     1      42.867  13.729  -2.611  1.00  0.00     0.210 HD
ENDBRANCH  11  12
BRANCH  11  14
HETATM   14  C11 UNL     1      40.824  15.283  -4.561  1.00  0.00     0.143 C 
HETATM   15  C12 UNL     1      41.847  15.019  -5.637  1.00  0.00     0.042 C 
BRANCH  14  16
HETATM   16  O5  UNL     1      39.642  14.677  -5.116  1.00  0.00    -0.393 OA
ATOM     17  H5  UNL     1      39.671  14.793  -6.059  1.00  0.00     0.210 HD
ENDBRANCH  14  16
ENDBRANCH  11  14
ENDBRANCH   5  11
BRANCH   2  18
HETATM   18  N1  UNL     1      43.252  16.525   0.802  1.00  0.00    -0.070 N 
ATOM     19  H13 UNL     1      43.926  15.958   1.315  1.00  0.00     0.274 HD
ATOM     20  H12 UNL     1      43.863  17.317   0.598  1.00  0.00     0.274 HD
ATOM     21  H11 UNL     1      42.447  16.787   1.370  1.00  0.00     0.274 HD
ENDBRANCH   2  18
BRANCH   4  22
HETATM   22  N2  UNL     1      40.306  12.974  -0.655  1.00  0.00    -0.311 N 
HETATM   23  C7  UNL     1      40.963  12.002  -1.606  1.00  0.00     0.160 C 
HETATM   24  C8  UNL     1      39.333  12.388   0.137  1.00  0.00     0.334 C 
HETATM   25  N3  UNL     1      39.088  10.961   0.012  1.00  0.00    -0.040 NA
HETATM   26  O3  UNL     1      38.628  12.966   0.967  1.00  0.00    -0.251 OA
ENDBRANCH   4  22
BRANCH   3  27
HETATM   27  O2  UNL     1      43.027  13.503  -0.153  1.00  0.00    -0.383 OA
HETATM   28  C5  UNL     1      43.367  13.002   1.075  1.00  0.00     0.202 C 
ENDBRANCH   3  27
TORSDOF 8
ENDMDL
MODEL 3
REMARK VINA RESULT: -6.238000763      3.412      6.139
REMARK  8 active torsions:
REMARK  status: ('A' for Active; 'I' for Inactive)
REMARK    1  A    between atoms: O1_2  and  C2_3 
REMARK    2  A    between atoms: C3_4  and  N1_5 
REMARK    3  A    between atoms: C4_9  and  O2_10 
REMARK    4  A    between atoms: C6_12  and  N2_13 
REMARK       I    between atoms: N2_13  and  C8_15 
REMARK    5  A    between atoms: C9_18  and  C10_19 
REMARK    6  A    between atoms: C10_19  and  O4_20 
REMARK    7  A    between atoms: C10_19  and  C11_22 
REMARK    8  A    between atoms: C11_22  and  O5_24 
ROOT
HETATM    1  C2  UNL     1      41.145  16.049  -2.404  1.00  0.00     0.172 C 
HETATM    2  C3  UNL     1      42.170  16.763  -1.586  1.00  0.00     0.247 C 
HETATM    3  C4  UNL     1      43.231  17.536  -2.268  1.00  0.00     0.200 C 
HETATM    4  C6  UNL     1      43.176  17.676  -3.744  1.00  0.00     0.032 C 
HETATM    5  C9  UNL     1      41.778  17.477  -4.351  1.00  0.00     0.086 C 
HETATM    6  C13 UNL     1      41.410  16.121  -3.881  1.00  0.00     0.136 C 
HETATM    7  C14 UNL     1      40.454  15.417  -4.677  1.00  0.00     0.067 C 
HETATM    8  N4  UNL     1      39.695  14.804  -5.341  1.00  0.00    -0.197 NA
ENDROOT
BRANCH   1   9
HETATM    9  O1  UNL     1      41.121  14.696  -2.072  1.00  0.00    -0.387 OA
HETATM   10  C1  UNL     1      39.962  14.313  -1.418  1.00  0.00     0.202 C 
ENDBRANCH   1   9
BRANCH   5  11
HETATM   11  C10 UNL     1      40.872  18.597  -4.284  1.00  0.00     0.157 C 
BRANCH  11  12
HETATM   12  O4  UNL     1      39.692  18.519  -3.605  1.00  0.00    -0.392 OA
ATOM     13  H4  UNL     1      39.225  17.696  -3.515  1.00  0.00     0.210 HD
ENDBRANCH  11  12
BRANCH  11  14
HETATM   14  C11 UNL     1      40.572  19.375  -5.565  1.00  0.00     0.143 C 
HETATM   15  C12 UNL     1      39.101  19.457  -5.886  1.00  0.00     0.042 C 
BRANCH  14  16
HETATM   16  O5  UNL     1      40.904  20.756  -5.330  1.00  0.00    -0.393 OA
ATOM     17  H5  UNL     1      40.112  21.269  -5.443  1.00  0.00     0.210 HD
ENDBRANCH  14  16
ENDBRANCH  11  14
ENDBRANCH   5  11
BRANCH   2  18
HETATM   18  N1  UNL     1      42.721  15.820  -0.612  1.00  0.00    -0.070 N 
ATOM     19  H13 UNL     1      43.700  16.007  -0.395  1.00  0.00     0.274 HD
ATOM     20  H12 UNL     1      42.343  15.958   0.325  1.00  0.00     0.274 HD
ATOM     21  H11 UNL     1      42.571  14.873  -0.960  1.00  0.00     0.274 HD
ENDBRANCH   2  18
BRANCH   4  22
HETATM   22  N2  UNL     1      44.024  18.609  -4.345  1.00  0.00    -0.311 N 
HETATM   23  C7  UNL     1      45.176  17.997  -5.107  1.00  0.00     0.160 C 
HETATM   24  C8  UNL     1      44.019  19.993  -4.385  1.00  0.00     0.334 C 
HETATM   25  N3  UNL     1      45.043  20.680  -5.154  1.00  0.00    -0.040 NA
HETATM   26  O3  UNL     1      43.212  20.732  -3.819  1.00  0.00    -0.251 OA
ENDBRANCH   4  22
BRANCH   3  27
HETATM   27  O2  UNL     1      43.505  18.743  -1.579  1.00  0.00    -0.383 OA
HETATM   28  C5  UNL     1      42.451  19.225  -0.851  1.00  0.00     0.202 C 
ENDBRANCH   3  27
TORSDOF 8
ENDMDL
MODEL 4
REMARK VINA RESULT: -6.120797790      2.275      5.199
REMARK  8 active torsions:
REMARK  status: ('A' for Active; 'I' for Inactive)
REMARK    1  A    between atoms: O1_2  and  C2_3 
REMARK    2  A    between atoms: C3_4  and  N1_5 
REMARK    3  A    between atoms: C4_9  and  O2_10 
REMARK    4  A    between atoms: C6_12  and  N2_13 
REMARK       I    between atoms: N2_13  and  C8_15 
REMARK    5  A    between atoms: C9_18  and  C10_19 
REMARK    6  A    between atoms: C10_19  and  O4_20 
REMARK    7  A    between atoms: C10_19  and  C11_22 
REMARK    8  A    between atoms: C11_22  and  O5_24 
ROOT
HETATM    1  C2  UNL     1      42.535  14.643  -0.630  1.00  0.00     0.172 C 
HETATM    2  C3  UNL     1      42.494  16.010  -0.033  1.00  0.00     0.247 C 
HETATM    3  C4  UNL     1      42.801  17.182  -0.884  1.00  0.00     0.200 C 
HETATM    4  C6  UNL     1      43.023  16.971  -2.335  1.00  0.00     0.032 C 
HETATM    5  C9  UNL     1      42.401  15.682  -2.895  1.00  0.00     0.086 C 
HETATM    6  C13 UNL     1      43.017  14.631  -2.053  1.00  0.00     0.136 C 
HETATM    7  C14 UNL     1      43.090  13.325  -2.630  1.00  0.00     0.067 C 
HETATM    8  N4  UNL     1      43.194  12.249  -3.102  1.00  0.00    -0.197 NA
ENDROOT
BRANCH   1   9
HETATM    9  O1  UNL     1      43.408  13.829   0.090  1.00  0.00    -0.387 OA
HETATM   10  C1  UNL     1      42.772  12.786   0.743  1.00  0.00     0.202 C 
ENDBRANCH   1   9
BRANCH   5  11
HETATM   11  C10 UNL     1      40.990  15.715  -3.191  1.00  0.00     0.157 C 
BRANCH  11  12
HETATM   12  O4  UNL     1      40.112  14.875  -2.572  1.00  0.00    -0.392 OA
ATOM     13  H4  UNL     1      39.934  14.005  -2.911  1.00  0.00     0.210 HD
ENDBRANCH  11  12
BRANCH  11  14
HETATM   14  C11 UNL     1      40.548  15.784  -4.653  1.00  0.00     0.143 C 
HETATM   15  C12 UNL     1      41.608  15.325  -5.622  1.00  0.00     0.042 C 
BRANCH  14  16
HETATM   16  O5  UNL     1      39.516  14.801  -4.850  1.00  0.00    -0.393 OA
ATOM     17  H5  UNL     1      39.691  14.354  -5.670  1.00  0.00     0.210 HD
ENDBRANCH  14  16
ENDBRANCH  11  14
ENDBRANCH   5  11
BRANCH   2  18
HETATM   18  N1  UNL     1      43.293  16.003   1.193  1.00  0.00    -0.070 N 
ATOM     19  H13 UNL     1      44.282  15.826   1.017  1.00  0.00     0.274 HD
ATOM     20  H12 UNL     1      43.389  16.931   1.605  1.00  0.00     0.274 HD
ATOM     21  H11 UNL     1      42.884  15.327   1.839  1.00  0.00     0.274 HD
ENDBRANCH   2  18
BRANCH   4  22
HETATM   22  N2  UNL     1      43.057  18.096  -3.163  1.00  0.00    -0.311 N 
HETATM   23  C7  UNL     1      44.419  18.398  -3.742  1.00  0.00     0.160 C 
HETATM   24  C8  UNL     1      42.083  18.995  -3.564  1.00  0.00     0.334 C 
HETATM   25  N3  UNL     1      42.441  20.056  -4.490  1.00  0.00    -0.040 NA
HETATM   26  O3  UNL     1      40.902  18.992  -3.209  1.00  0.00    -0.251 OA
ENDBRANCH   4  22
BRANCH   3  27
HETATM   27  O2  UNL     1      41.947  18.270  -0.579  1.00  0.00    -0.383 OA
HETATM   28  C5  UNL     1      42.599  19.384  -0.124  1.00  0.00     0.202 C 
ENDBRANCH   3  27
TORSDOF 8
ENDMDL
MODEL 5
REMARK VINA RESULT: -6.117896190      2.307      4.990
REMARK  8 active torsions:
REMARK  status: ('A' for Active; 'I' for Inactive)
REMARK    1  A    between atoms: O1_2  and  C2_3 
REMARK    2  A    between atoms: C3_4  and  N1_5 
REMARK    3  A    between atoms: C4_9  and  O2_10 
REMARK    4  A    between atoms: C6_12  and  N2_13 
REMARK       I    between atoms: N2_13  and  C8_15 
REMARK    5  A    between atoms: C9_18  and  C10_19 
REMARK    6  A    between atoms: C10_19  and  O4_20 
REMARK    7  A    between atoms: C10_19  and  C11_22 
REMARK    8  A    between atoms: C11_22  and  O5_24 
ROOT
HETATM    1  C2  UNL     1      41.251  13.986  -1.469  1.00  0.00     0.172 C 
HETATM    2  C3  UNL     1      42.329  13.878  -0.442  1.00  0.00     0.247 C 
HETATM    3  C4  UNL     1      43.574  14.661  -0.613  1.00  0.00     0.200 C 
HETATM    4  C6  UNL     1      43.664  15.621  -1.740  1.00  0.00     0.032 C 
HETATM    5  C9  UNL     1      42.307  16.096  -2.282  1.00  0.00     0.086 C 
HETATM    6  C13 UNL     1      41.641  14.826  -2.652  1.00  0.00     0.136 C 
HETATM    7  C14 UNL     1      40.630  14.915  -3.658  1.00  0.00     0.067 C 
HETATM    8  N4  UNL     1      39.819  14.961  -4.514  1.00  0.00    -0.197 NA
ENDROOT
BRANCH   1   9
HETATM    9  O1  UNL     1      40.933  12.724  -1.967  1.00  0.00    -0.387 OA
HETATM   10  C1  UNL     1      39.811  12.168  -1.375  1.00  0.00     0.202 C 
ENDBRANCH   1   9
BRANCH   5  11
HETATM   11  C10 UNL     1      41.638  17.139  -1.543  1.00  0.00     0.157 C 
BRANCH  11  12
HETATM   12  O4  UNL     1      40.749  16.851  -0.551  1.00  0.00    -0.392 OA
ATOM     13  H4  UNL     1      39.812  16.845  -0.711  1.00  0.00     0.210 HD
ENDBRANCH  11  12
BRANCH  11  14
HETATM   14  C11 UNL     1      41.046  18.319  -2.313  1.00  0.00     0.143 C 
HETATM   15  C12 UNL     1      41.785  18.635  -3.589  1.00  0.00     0.042 C 
BRANCH  14  16
HETATM   16  O5  UNL     1      39.754  17.920  -2.807  1.00  0.00    -0.393 OA
ATOM     17  H5  UNL     1      39.603  18.373  -3.628  1.00  0.00     0.210 HD
ENDBRANCH  14  16
ENDBRANCH  11  14
ENDBRANCH   5  11
BRANCH   2  18
HETATM   18  N1  UNL     1      42.604  12.459  -0.209  1.00  0.00    -0.070 N 
ATOM     19  H13 UNL     1      43.560  12.291   0.105  1.00  0.00     0.274 HD
ATOM     20  H12 UNL     1      42.121  12.096   0.614  1.00  0.00     0.274 HD
ATOM     21  H11 UNL     1      42.374  11.943  -1.058  1.00  0.00     0.274 HD
ENDBRANCH   2  18
BRANCH   4  22
HETATM   22  N2  UNL     1      44.725  16.528  -1.743  1.00  0.00    -0.311 N 
HETATM   23  C7  UNL     1      45.840  16.174  -2.699  1.00  0.00     0.160 C 
HETATM   24  C8  UNL     1      44.961  17.699  -1.041  1.00  0.00     0.334 C 
HETATM   25  N3  UNL     1      46.172  18.453  -1.315  1.00  0.00    -0.040 NA
HETATM   26  O3  UNL     1      44.228  18.189  -0.180  1.00  0.00    -0.251 OA
ENDBRANCH   4  22
BRANCH   3  27
HETATM   27  O2  UNL     1      44.026  15.175   0.627  1.00  0.00    -0.383 OA
HETATM   28  C5  UNL     1      43.034  15.369   1.550  1.00  0.00     0.202 C 
ENDBRANCH   3  27
TORSDOF 8
ENDMDL
