MODEL 1
REMARK VINA RESULT: -8.101785532      0.000      0.000
REMARK  8 active torsions:
REMARK  status: ('A' for Active; 'I' for Inactive)
REMARK    1  A    between atoms: N1_1  and  C1_4 
REMARK    2  A    between atoms: C2_5  and  N2_6 
REMARK       I    between atoms: N2_6  and  C3_8 
REMARK    3  A    between atoms: C3_8  and  C4_10 
REMARK    4  A    between atoms: C4_10  and  C5_11 
REMARK    5  A    between atoms: C5_11  and  C6_12 
REMARK    6  A    between atoms: C7_15  and  C8_16 
REMARK    7  A    between atoms: N5_23  and  C13_24 
REMARK    8  A    between atoms: C13_24  and  C14_25 
REMARK       I    between atoms: C14_25  and  N6_27 
ROOT
HETATM    1  C1  UNL     1      33.414  40.614  15.054  1.00  0.00     0.145 A 
HETATM    2  C2  UNL     1      34.345  39.814  14.421  1.00  0.00     0.105 A 
HETATM    3  C7  UNL     1      34.254  38.588  15.030  1.00  0.00     0.060 A 
HETATM    4  N4  UNL     1      33.303  38.689  15.975  1.00  0.00    -0.298 N 
ATOM      5  H4  UNL     1      33.022  37.923  16.588  1.00  0.00     0.187 HD
HETATM    6  N5  UNL     1      32.779  39.899  16.013  1.00  0.00    -0.266 N 
ENDROOT
BRANCH   2   7
HETATM    7  N2  UNL     1      35.221  40.168  13.362  1.00  0.00    -0.322 N 
HETATM    8  C3  UNL     1      36.318  41.070  13.522  1.00  0.00     0.222 C 
HETATM    9  O1  UNL     1      36.465  41.550  14.697  1.00  0.00    -0.273 OA
ATOM     10  H2  UNL     1      35.060  39.758  12.443  1.00  0.00     0.169 HD
BRANCH   8  11
HETATM   11  C4  UNL     1      37.222  41.433  12.421  1.00  0.00     0.112 C 
BRANCH  11  12
HETATM   12  C5  UNL     1      37.164  40.339  11.381  1.00  0.00     0.109 C 
BRANCH  12  13
HETATM   13  C6  UNL     1      38.328  39.464  11.539  1.00  0.00     0.231 C 
HETATM   14  N3  UNL     1      38.251  38.122  11.104  1.00  0.00    -0.062 NA
HETATM   15  O2  UNL     1      39.376  39.898  12.051  1.00  0.00    -0.277 OA
ENDBRANCH  12  13
ENDBRANCH  11  12
ENDBRANCH   8  11
ENDBRANCH   2   7
BRANCH   1  16
HETATM   16  N1  UNL     1      33.166  41.872  14.785  1.00  0.00    -0.382 N 
ATOM     17  H12 UNL     1      33.885  42.587  14.661  1.00  0.00     0.157 HD
ATOM     18  H11 UNL     1      32.244  42.292  14.667  1.00  0.00     0.157 HD
ENDBRANCH   1  16
BRANCH   3  19
HETATM   19  C8  UNL     1      35.064  37.421  14.676  1.00  0.00     0.039 C 
HETATM   20  C9  UNL     1      34.297  36.126  14.769  1.00  0.00     0.011 C 
HETATM   21  C10 UNL     1      34.981  35.192  13.768  1.00  0.00     0.001 C 
HETATM   22  C11 UNL     1      36.064  36.018  13.107  1.00  0.00     0.001 C 
HETATM   23  C12 UNL     1      35.465  37.411  13.198  1.00  0.00     0.011 C 
ENDBRANCH   3  19
BRANCH   6  24
HETATM   24  C13 UNL     1      31.730  40.407  16.890  1.00  0.00     0.253 C 
BRANCH  24  25
HETATM   25  C14 UNL     1      30.389  39.983  16.446  1.00  0.00     0.239 C 
HETATM   26  O3  UNL     1      30.168  38.758  16.295  1.00  0.00    -0.271 OA
HETATM   27  N6  UNL     1      29.380  40.949  16.196  1.00  0.00    -0.351 N 
HETATM   28  C15 UNL     1      28.038  40.627  15.758  1.00  0.00     0.126 C 
HETATM   29  C18 UNL     1      29.506  42.405  16.333  1.00  0.00     0.126 C 
HETATM   30  C16 UNL     1      27.218  41.732  16.371  1.00  0.00     0.021 C 
HETATM   31  C17 UNL     1      28.111  42.930  16.284  1.00  0.00     0.021 C 
ENDBRANCH  24  25
ENDBRANCH   6  24
TORSDOF 8
ENDMDL
MODEL 2
REMARK VINA RESULT: -7.986135979      3.283      8.769
REMARK  8 active torsions:
REMARK  status: ('A' for Active; 'I' for Inactive)
REMARK    1  A    between atoms: N1_1  and  C1_4 
REMARK    2  A    between atoms: C2_5  and  N2_6 
REMARK       I    between atoms: N2_6  and  C3_8 
REMARK    3  A    between atoms: C3_8  and  C4_10 
REMARK    4  A    between atoms: C4_10  and  C5_11 
REMARK    5  A    between atoms: C5_11  and  C6_12 
REMARK    6  A    between atoms: C7_15  and  C8_16 
REMARK    7  A    between atoms: N5_23  and  C13_24 
REMARK    8  A    between atoms: C13_24  and  C14_25 
REMARK       I    between atoms: C14_25  and  N6_27 
ROOT
HETATM    1  C1  UNL     1      31.707  40.690  17.540  1.00  0.00     0.145 A 
HETATM    2  C2  UNL     1      30.470  41.272  17.740  1.00  0.00     0.105 A 
HETATM    3  C7  UNL     1      29.836  41.217  16.525  1.00  0.00     0.060 A 
HETATM    4  N4  UNL     1      30.682  40.623  15.665  1.00  0.00    -0.298 N 
ATOM      5  H4  UNL     1      30.472  40.450  14.683  1.00  0.00     0.187 HD
HETATM    6  N5  UNL     1      31.819  40.295  16.249  1.00  0.00    -0.266 N 
ENDROOT
BRANCH   2   7
HETATM    7  N2  UNL     1      29.949  41.817  18.941  1.00  0.00    -0.322 N 
HETATM    8  C3  UNL     1      29.801  41.062  20.145  1.00  0.00     0.222 C 
HETATM    9  O1  UNL     1      30.173  39.842  20.074  1.00  0.00    -0.273 OA
ATOM     10  H2  UNL     1      29.666  42.797  18.945  1.00  0.00     0.169 HD
BRANCH   8  11
HETATM   11  C4  UNL     1      29.261  41.633  21.387  1.00  0.00     0.112 C 
BRANCH  11  12
HETATM   12  C5  UNL     1      29.991  41.007  22.552  1.00  0.00     0.109 C 
BRANCH  12  13
HETATM   13  C6  UNL     1      31.202  41.783  22.832  1.00  0.00     0.231 C 
HETATM   14  N3  UNL     1      32.450  41.314  22.365  1.00  0.00    -0.062 NA
HETATM   15  O2  UNL     1      31.132  42.847  23.474  1.00  0.00    -0.277 OA
ENDBRANCH  12  13
ENDBRANCH  11  12
ENDBRANCH   8  11
ENDBRANCH   2   7
BRANCH   1  16
HETATM   16  N1  UNL     1      32.642  40.533  18.444  1.00  0.00    -0.382 N 
ATOM     17  H12 UNL     1      32.730  39.713  19.045  1.00  0.00     0.157 HD
ATOM     18  H11 UNL     1      33.387  41.196  18.661  1.00  0.00     0.157 HD
ENDBRANCH   1  16
BRANCH   3  19
HETATM   19  C8  UNL     1      28.486  41.724  16.267  1.00  0.00     0.039 C 
HETATM   20  C9  UNL     1      28.450  43.221  16.085  1.00  0.00     0.011 C 
HETATM   21  C10 UNL     1      27.236  43.477  15.188  1.00  0.00     0.001 C 
HETATM   22  C11 UNL     1      26.676  42.110  14.851  1.00  0.00     0.001 C 
HETATM   23  C12 UNL     1      27.932  41.258  14.919  1.00  0.00     0.011 C 
ENDBRANCH   3  19
BRANCH   6  24
HETATM   24  C13 UNL     1      32.984  39.640  15.664  1.00  0.00     0.253 C 
BRANCH  24  25
HETATM   25  C14 UNL     1      33.719  40.538  14.754  1.00  0.00     0.239 C 
HETATM   26  O3  UNL     1      33.393  41.749  14.715  1.00  0.00    -0.271 OA
HETATM   27  N6  UNL     1      34.768  40.032  13.944  1.00  0.00    -0.351 N 
HETATM   28  C15 UNL     1      35.543  40.837  13.023  1.00  0.00     0.126 C 
HETATM   29  C18 UNL     1      35.247  38.646  13.892  1.00  0.00     0.126 C 
HETATM   30  C16 UNL     1      36.886  40.154  13.038  1.00  0.00     0.021 C 
HETATM   31  C17 UNL     1      36.546  38.702  13.161  1.00  0.00     0.021 C 
ENDBRANCH  24  25
ENDBRANCH   6  24
TORSDOF 8
ENDMDL
MODEL 3
REMARK VINA RESULT: -7.973743554      5.618      8.530
REMARK  8 active torsions:
REMARK  status: ('A' for Active; 'I' for Inactive)
REMARK    1  A    between atoms: N1_1  and  C1_4 
REMARK    2  A    between atoms: C2_5  and  N2_6 
REMARK       I    between atoms: N2_6  and  C3_8 
REMARK    3  A    between atoms: C3_8  and  C4_10 
REMARK    4  A    between atoms: C4_10  and  C5_11 
REMARK    5  A    between atoms: C5_11  and  C6_12 
REMARK    6  A    between atoms: C7_15  and  C8_16 
REMARK    7  A    between atoms: N5_23  and  C13_24 
REMARK    8  A    between atoms: C13_24  and  C14_25 
REMARK       I    between atoms: C14_25  and  N6_27 
ROOT
HETATM    1  C1  UNL     1      30.482  41.482  21.006  1.00  0.00     0.145 A 
HETATM    2  C2  UNL     1      30.271  41.049  19.712  1.00  0.00     0.105 A 
HETATM    3  C7  UNL     1      31.512  40.726  19.224  1.00  0.00     0.060 A 
HETATM    4  N4  UNL     1      32.397  40.967  20.207  1.00  0.00    -0.298 N 
ATOM      5  H4  UNL     1      33.402  40.816  20.123  1.00  0.00     0.187 HD
HETATM    6  N5  UNL     1      31.805  41.424  21.294  1.00  0.00    -0.266 N 
ENDROOT
BRANCH   2   7
HETATM    7  N2  UNL     1      29.038  40.951  19.017  1.00  0.00    -0.322 N 
HETATM    8  C3  UNL     1      28.544  41.975  18.151  1.00  0.00     0.222 C 
HETATM    9  O1  UNL     1      29.293  43.004  18.039  1.00  0.00    -0.273 OA
ATOM     10  H2  UNL     1      28.477  40.109  19.141  1.00  0.00     0.169 HD
BRANCH   8  11
HETATM   11  C4  UNL     1      27.266  41.868  17.433  1.00  0.00     0.112 C 
BRANCH  11  12
HETATM   12  C5  UNL     1      27.416  40.820  16.355  1.00  0.00     0.109 C 
BRANCH  12  13
HETATM   13  C6  UNL     1      27.604  41.484  15.063  1.00  0.00     0.231 C 
HETATM   14  N3  UNL     1      28.109  40.745  13.971  1.00  0.00    -0.062 NA
HETATM   15  O2  UNL     1      27.320  42.688  14.928  1.00  0.00    -0.277 OA
ENDBRANCH  12  13
ENDBRANCH  11  12
ENDBRANCH   8  11
ENDBRANCH   2   7
BRANCH   1  16
HETATM   16  N1  UNL     1      29.561  41.890  21.844  1.00  0.00    -0.382 N 
ATOM     17  H12 UNL     1      29.019  41.272  22.449  1.00  0.00     0.157 HD
ATOM     18  H11 UNL     1      29.272  42.857  21.997  1.00  0.00     0.157 HD
ENDBRANCH   1  16
BRANCH   3  19
HETATM   19  C8  UNL     1      31.769  40.217  17.875  1.00  0.00     0.039 C 
HETATM   20  C9  UNL     1      30.825  39.110  17.479  1.00  0.00     0.011 C 
HETATM   21  C10 UNL     1      30.747  39.189  15.952  1.00  0.00     0.001 C 
HETATM   22  C11 UNL     1      31.599  40.377  15.556  1.00  0.00     0.001 C 
HETATM   23  C12 UNL     1      31.466  41.254  16.790  1.00  0.00     0.011 C 
ENDBRANCH   3  19
BRANCH   6  24
HETATM   24  C13 UNL     1      32.410  41.802  22.566  1.00  0.00     0.253 C 
BRANCH  24  25
HETATM   25  C14 UNL     1      33.576  42.686  22.379  1.00  0.00     0.239 C 
HETATM   26  O3  UNL     1      33.384  43.924  22.317  1.00  0.00    -0.271 OA
HETATM   27  N6  UNL     1      34.880  42.137  22.271  1.00  0.00    -0.351 N 
HETATM   28  C15 UNL     1      36.080  42.925  22.085  1.00  0.00     0.126 C 
HETATM   29  C18 UNL     1      35.240  40.715  22.326  1.00  0.00     0.126 C 
HETATM   30  C16 UNL     1      37.127  42.101  22.788  1.00  0.00     0.021 C 
HETATM   31  C17 UNL     1      36.722  40.689  22.499  1.00  0.00     0.021 C 
ENDBRANCH  24  25
ENDBRANCH   6  24
TORSDOF 8
ENDMDL
MODEL 4
REMARK VINA RESULT: -7.769423592      3.441      6.100
REMARK  8 active torsions:
REMARK  status: ('A' for Active; 'I' for Inactive)
REMARK    1  A    between atoms: N1_1  and  C1_4 
REMARK    2  A    between atoms: C2_5  and  N2_6 
REMARK       I    between atoms: N2_6  and  C3_8 
REMARK    3  A    between atoms: C3_8  and  C4_10 
REMARK    4  A    between atoms: C4_10  and  C5_11 
REMARK    5  A    between atoms: C5_11  and  C6_12 
REMARK    6  A    between atoms: C7_15  and  C8_16 
REMARK    7  A    between atoms: N5_23  and  C13_24 
REMARK    8  A    between atoms: C13_24  and  C14_25 
REMARK       I    between atoms: C14_25  and  N6_27 
ROOT
HETATM    1  C1  UNL     1      31.426  40.816  18.217  1.00  0.00     0.145 A 
HETATM    2  C2  UNL     1      31.146  41.145  16.906  1.00  0.00     0.105 A 
HETATM    3  C7  UNL     1      29.778  41.217  16.827  1.00  0.00     0.060 A 
HETATM    4  N4  UNL     1      29.299  40.939  18.052  1.00  0.00    -0.298 N 
ATOM      5  H4  UNL     1      28.307  40.920  18.287  1.00  0.00     0.187 HD
HETATM    6  N5  UNL     1      30.269  40.693  18.912  1.00  0.00    -0.266 N 
ENDROOT
BRANCH   2   7
HETATM    7  N2  UNL     1      32.066  41.365  15.848  1.00  0.00    -0.322 N 
HETATM    8  C3  UNL     1      33.017  40.389  15.421  1.00  0.00     0.222 C 
HETATM    9  O1  UNL     1      32.991  39.283  16.062  1.00  0.00    -0.273 OA
ATOM     10  H2  UNL     1      32.046  42.265  15.369  1.00  0.00     0.169 HD
BRANCH   8  11
HETATM   11  C4  UNL     1      33.968  40.623  14.324  1.00  0.00     0.112 C 
BRANCH  11  12
HETATM   12  C5  UNL     1      35.309  40.062  14.734  1.00  0.00     0.109 C 
BRANCH  12  13
HETATM   13  C6  UNL     1      36.369  40.792  14.034  1.00  0.00     0.231 C 
HETATM   14  N3  UNL     1      36.929  40.243  12.859  1.00  0.00    -0.062 NA
HETATM   15  O2  UNL     1      36.772  41.886  14.470  1.00  0.00    -0.277 OA
ENDBRANCH  12  13
ENDBRANCH  11  12
ENDBRANCH   8  11
ENDBRANCH   2   7
BRANCH   1  16
HETATM   16  N1  UNL     1      32.619  40.644  18.733  1.00  0.00    -0.382 N 
ATOM     17  H12 UNL     1      32.817  40.639  19.734  1.00  0.00     0.157 HD
ATOM     18  H11 UNL     1      33.484  40.498  18.213  1.00  0.00     0.157 HD
ENDBRANCH   1  16
BRANCH   3  19
HETATM   19  C8  UNL     1      29.031  41.541  15.610  1.00  0.00     0.039 C 
HETATM   20  C9  UNL     1      28.958  40.385  14.644  1.00  0.00     0.011 C 
HETATM   21  C10 UNL     1      27.666  40.614  13.856  1.00  0.00     0.001 C 
HETATM   22  C11 UNL     1      27.032  41.853  14.454  1.00  0.00     0.001 C 
HETATM   23  C12 UNL     1      27.544  41.781  15.882  1.00  0.00     0.011 C 
ENDBRANCH   3  19
BRANCH   6  24
HETATM   24  C13 UNL     1      30.164  40.354  20.326  1.00  0.00     0.253 C 
BRANCH  24  25
HETATM   25  C14 UNL     1      30.202  41.554  21.183  1.00  0.00     0.239 C 
HETATM   26  O3  UNL     1      29.139  42.197  21.360  1.00  0.00    -0.271 OA
HETATM   27  N6  UNL     1      31.419  41.964  21.786  1.00  0.00    -0.351 N 
HETATM   28  C15 UNL     1      31.551  43.126  22.639  1.00  0.00     0.126 C 
HETATM   29  C18 UNL     1      32.725  41.307  21.661  1.00  0.00     0.126 C 
HETATM   30  C16 UNL     1      32.652  42.718  23.583  1.00  0.00     0.021 C 
HETATM   31  C17 UNL     1      33.577  41.913  22.725  1.00  0.00     0.021 C 
ENDBRANCH  24  25
ENDBRANCH   6  24
TORSDOF 8
ENDMDL
MODEL 5
REMARK VINA RESULT: -7.662107259      5.537      7.496
REMARK  8 active torsions:
REMARK  status: ('A' for Active; 'I' for Inactive)
REMARK    1  A    between atoms: N1_1  and  C1_4 
REMARK    2  A    between atoms: C2_5  and  N2_6 
REMARK       I    between atoms: N2_6  and  C3_8 
REMARK    3  A    between atoms: C3_8  and  C4_10 
REMARK    4  A    between atoms: C4_10  and  C5_11 
REMARK    5  A    between atoms: C5_11  and  C6_12 
REMARK    6  A    between atoms: C7_15  and  C8_16 
REMARK    7  A    between atoms: N5_23  and  C13_24 
REMARK    8  A    between atoms: C13_24  and  C14_25 
REMARK       I    between atoms: C14_25  and  N6_27 
ROOT
HETATM    1  C1  UNL     1      31.524  40.762  17.962  1.00  0.00     0.145 A 
HETATM    2  C2  UNL     1      31.464  41.161  19.283  1.00  0.00     0.105 A 
HETATM    3  C7  UNL     1      30.240  40.745  19.739  1.00  0.00     0.060 A 
HETATM    4  N4  UNL     1      29.625  40.131  18.713  1.00  0.00    -0.298 N 
ATOM      5  H4  UNL     1      28.693  39.720  18.767  1.00  0.00     0.187 HD
HETATM    6  N5  UNL     1      30.375  40.126  17.628  1.00  0.00    -0.266 N 
ENDROOT
BRANCH   2   7
HETATM    7  N2  UNL     1      32.452  41.856  20.028  1.00  0.00    -0.322 N 
HETATM    8  C3  UNL     1      33.475  41.197  20.778  1.00  0.00     0.222 C 
HETATM    9  O1  UNL     1      33.446  39.920  20.738  1.00  0.00    -0.273 OA
ATOM     10  H2  UNL     1      32.431  42.875  20.027  1.00  0.00     0.169 HD
BRANCH   8  11
HETATM   11  C4  UNL     1      34.496  41.922  21.547  1.00  0.00     0.112 C 
BRANCH  11  12
HETATM   12  C5  UNL     1      35.375  40.907  22.239  1.00  0.00     0.109 C 
BRANCH  12  13
HETATM   13  C6  UNL     1      36.681  41.511  22.514  1.00  0.00     0.231 C 
HETATM   14  N3  UNL     1      37.800  40.676  22.727  1.00  0.00    -0.062 NA
HETATM   15  O2  UNL     1      36.804  42.749  22.559  1.00  0.00    -0.277 OA
ENDBRANCH  12  13
ENDBRANCH  11  12
ENDBRANCH   8  11
ENDBRANCH   2   7
BRANCH   1  16
HETATM   16  N1  UNL     1      32.526  40.957  17.140  1.00  0.00    -0.382 N 
ATOM     17  H12 UNL     1      32.438  41.384  16.217  1.00  0.00     0.157 HD
ATOM     18  H11 UNL     1      33.502  40.714  17.312  1.00  0.00     0.157 HD
ENDBRANCH   1  16
BRANCH   3  19
HETATM   19  C8  UNL     1      29.743  40.956  21.101  1.00  0.00     0.039 C 
HETATM   20  C9  UNL     1      29.448  39.666  21.822  1.00  0.00     0.011 C 
HETATM   21  C10 UNL     1      29.630  39.995  23.306  1.00  0.00     0.001 C 
HETATM   22  C11 UNL     1      30.083  41.440  23.355  1.00  0.00     0.001 C 
HETATM   23  C12 UNL     1      30.803  41.564  22.023  1.00  0.00     0.011 C 
ENDBRANCH   3  19
BRANCH   6  24
HETATM   24  C13 UNL     1      30.072  39.563  16.317  1.00  0.00     0.253 C 
BRANCH  24  25
HETATM   25  C14 UNL     1      28.852  40.154  15.735  1.00  0.00     0.239 C 
HETATM   26  O3  UNL     1      27.986  39.386  15.252  1.00  0.00    -0.271 OA
HETATM   27  N6  UNL     1      28.674  41.562  15.727  1.00  0.00    -0.351 N 
HETATM   28  C15 UNL     1      27.512  42.230  15.178  1.00  0.00     0.126 C 
HETATM   29  C18 UNL     1      29.602  42.567  16.256  1.00  0.00     0.126 C 
HETATM   30  C16 UNL     1      27.399  43.458  16.044  1.00  0.00     0.021 C 
HETATM   31  C17 UNL     1      28.822  43.838  16.310  1.00  0.00     0.021 C 
ENDBRANCH  24  25
ENDBRANCH   6  24
TORSDOF 8
ENDMDL
