MODEL 1
REMARK VINA RESULT: -6.380143721      0.000      0.000
REMARK  4 active torsions:
REMARK  status: ('A' for Active; 'I' for Inactive)
REMARK    1  A    between atoms: C4_7  and  N3_8 
REMARK    2  A    between atoms: N3_8  and  N4_10 
REMARK       I    between atoms: N4_10  and  C5_12 
REMARK       I    between atoms: C5_12  and  N6_16 
REMARK    3  A    between atoms: N6_16  and  N7_18 
REMARK    4  A    between atoms: N7_18  and  N8_19 
ROOT
HETATM    1  N4  UNL     1      -0.737   9.312   8.466  1.00  0.00    -0.117 N 
ATOM      2  H4  UNL     1      -0.516   8.838   7.590  1.00  0.00     0.206 HD
HETATM    3  C5  UNL     1      -1.796  10.262   8.482  1.00  0.00     0.704 C 
HETATM    4  N5  UNL     1      -2.978   9.839   8.188  1.00  0.00    -0.232 N 
ATOM      5  H51 UNL     1      -3.738  10.520   8.200  1.00  0.00     0.174 HD
ATOM      6  H52 UNL     1      -3.130   8.857   7.956  1.00  0.00     0.174 HD
HETATM    7  N6  UNL     1      -1.585  11.630   8.807  1.00  0.00    -0.116 N 
ATOM      8  H6  UNL     1      -2.340  12.155   9.246  1.00  0.00     0.203 HD
ENDROOT
BRANCH   1   9
HETATM    9  N3  UNL     1       0.015   9.004   9.604  1.00  0.00    -0.118 N 
ATOM     10  H3  UNL     1       1.032   9.041   9.545  1.00  0.00     0.206 HD
BRANCH   9  11
HETATM   11  C4  UNL     1      -0.592   8.637  10.850  1.00  0.00     0.690 A 
HETATM   12  N1  UNL     1      -1.000   7.320  11.185  1.00  0.00    -0.220 N 
HETATM   13  C1  UNL     1      -0.868   6.172  10.315  1.00  0.00     0.168 C 
HETATM   14  C2  UNL     1      -1.567   7.282  12.510  1.00  0.00     0.161 A 
HETATM   15  C3  UNL     1      -1.472   8.718  12.943  1.00  0.00     0.158 A 
HETATM   16  N2  UNL     1      -0.859   9.399  11.832  1.00  0.00    -0.223 N 
ATOM     17  H2  UNL     1      -0.659  10.399  11.833  1.00  0.00     0.177 HD
ENDBRANCH   9  11
ENDBRANCH   1   9
BRANCH   7  18
HETATM   18  N7  UNL     1      -0.387  12.272   8.545  1.00  0.00    -0.015 NA
BRANCH  18  19
HETATM   19  N8  UNL     1       0.424  12.356   9.704  1.00  0.00    -0.328 N 
ATOM     20  H82 UNL     1       1.006  11.588  10.038  1.00  0.00     0.174 HD
ATOM     21  H81 UNL     1       0.348  13.270  10.150  1.00  0.00     0.174 HD
ENDBRANCH  18  19
ENDBRANCH   7  18
TORSDOF 4
ENDMDL
MODEL 2
REMARK VINA RESULT: -6.223416017      1.030      2.221
REMARK  4 active torsions:
REMARK  status: ('A' for Active; 'I' for Inactive)
REMARK    1  A    between atoms: C4_7  and  N3_8 
REMARK    2  A    between atoms: N3_8  and  N4_10 
REMARK       I    between atoms: N4_10  and  C5_12 
REMARK       I    between atoms: C5_12  and  N6_16 
REMARK    3  A    between atoms: N6_16  and  N7_18 
REMARK    4  A    between atoms: N7_18  and  N8_19 
ROOT
HETATM    1  N4  UNL     1      -0.426  10.973   9.978  1.00  0.00    -0.117 N 
ATOM      2  H4  UNL     1      -0.404  11.744  10.646  1.00  0.00     0.206 HD
HETATM    3  C5  UNL     1      -0.874  11.230   8.652  1.00  0.00     0.704 C 
HETATM    4  N5  UNL     1      -0.200  12.075   7.951  1.00  0.00    -0.232 N 
ATOM      5  H51 UNL     1      -0.522  12.260   7.000  1.00  0.00     0.174 HD
ATOM      6  H52 UNL     1       0.621  12.533   8.346  1.00  0.00     0.174 HD
HETATM    7  N6  UNL     1      -2.019  10.592   8.101  1.00  0.00    -0.116 N 
ATOM      8  H6  UNL     1      -2.054  10.426   7.095  1.00  0.00     0.203 HD
ENDROOT
BRANCH   1   9
HETATM    9  N3  UNL     1      -0.016   9.705  10.401  1.00  0.00    -0.118 N 
ATOM     10  H3  UNL     1       0.800   9.281   9.960  1.00  0.00     0.206 HD
BRANCH   9  11
HETATM   11  C4  UNL     1      -0.699   8.980  11.433  1.00  0.00     0.690 A 
HETATM   12  N1  UNL     1      -1.065   7.612  11.341  1.00  0.00    -0.220 N 
HETATM   13  C1  UNL     1      -0.808   6.767  10.195  1.00  0.00     0.168 C 
HETATM   14  C2  UNL     1      -1.731   7.180  12.544  1.00  0.00     0.161 A 
HETATM   15  C3  UNL     1      -1.742   8.432  13.375  1.00  0.00     0.158 A 
HETATM   16  N2  UNL     1      -1.080   9.420  12.563  1.00  0.00    -0.223 N 
ATOM     17  H2  UNL     1      -0.930  10.382  12.866  1.00  0.00     0.177 HD
ENDBRANCH   9  11
ENDBRANCH   1   9
BRANCH   7  18
HETATM   18  N7  UNL     1      -3.086  10.188   8.883  1.00  0.00    -0.015 NA
BRANCH  18  19
HETATM   19  N8  UNL     1      -3.356   8.806   8.726  1.00  0.00    -0.328 N 
ATOM     20  H82 UNL     1      -4.126   8.445   8.163  1.00  0.00     0.174 HD
ATOM     21  H81 UNL     1      -2.689   8.232   9.241  1.00  0.00     0.174 HD
ENDBRANCH  18  19
ENDBRANCH   7  18
TORSDOF 4
ENDMDL
MODEL 3
REMARK VINA RESULT: -6.165275671      1.637      2.707
REMARK  4 active torsions:
REMARK  status: ('A' for Active; 'I' for Inactive)
REMARK    1  A    between atoms: C4_7  and  N3_8 
REMARK    2  A    between atoms: N3_8  and  N4_10 
REMARK       I    between atoms: N4_10  and  C5_12 
REMARK       I    between atoms: C5_12  and  N6_16 
REMARK    3  A    between atoms: N6_16  and  N7_18 
REMARK    4  A    between atoms: N7_18  and  N8_19 
ROOT
HETATM    1  N4  UNL     1      -0.897  10.392  11.299  1.00  0.00    -0.117 N 
ATOM      2  H4  UNL     1      -1.776  10.814  11.598  1.00  0.00     0.206 HD
HETATM    3  C5  UNL     1      -0.080  11.098  10.373  1.00  0.00     0.704 C 
HETATM    4  N5  UNL     1       0.372  12.250  10.735  1.00  0.00    -0.232 N 
ATOM      5  H51 UNL     1       0.957  12.756  10.071  1.00  0.00     0.174 HD
ATOM      6  H52 UNL     1       0.142  12.625  11.656  1.00  0.00     0.174 HD
HETATM    7  N6  UNL     1       0.240  10.575   9.090  1.00  0.00    -0.116 N 
ATOM      8  H6  UNL     1       1.128  10.833   8.659  1.00  0.00     0.203 HD
ENDROOT
BRANCH   1   9
HETATM    9  N3  UNL     1      -0.541   9.142  11.815  1.00  0.00    -0.118 N 
ATOM     10  H3  UNL     1       0.177   8.600  11.336  1.00  0.00     0.206 HD
BRANCH   9  11
HETATM   11  C4  UNL     1      -1.150   8.595  12.992  1.00  0.00     0.690 A 
HETATM   12  N1  UNL     1      -1.419   7.215  13.186  1.00  0.00    -0.220 N 
HETATM   13  C1  UNL     1      -1.124   6.176  12.224  1.00  0.00     0.168 C 
HETATM   14  C2  UNL     1      -2.028   6.990  14.474  1.00  0.00     0.161 A 
HETATM   15  C3  UNL     1      -2.113   8.380  15.038  1.00  0.00     0.158 A 
HETATM   16  N2  UNL     1      -1.540   9.226  14.024  1.00  0.00    -0.223 N 
ATOM     17  H2  UNL     1      -1.454  10.238  14.125  1.00  0.00     0.177 HD
ENDBRANCH   9  11
ENDBRANCH   1   9
BRANCH   7  18
HETATM   18  N7  UNL     1      -0.613   9.727   8.407  1.00  0.00    -0.015 NA
BRANCH  18  19
HETATM   19  N8  UNL     1      -1.580  10.447   7.664  1.00  0.00    -0.328 N 
ATOM     20  H82 UNL     1      -1.702  11.457   7.731  1.00  0.00     0.174 HD
ATOM     21  H81 UNL     1      -2.128   9.831   7.064  1.00  0.00     0.174 HD
ENDBRANCH  18  19
ENDBRANCH   7  18
TORSDOF 4
ENDMDL
MODEL 4
REMARK VINA RESULT: -6.139086018      1.389      2.562
REMARK  4 active torsions:
REMARK  status: ('A' for Active; 'I' for Inactive)
REMARK    1  A    between atoms: C4_7  and  N3_8 
REMARK    2  A    between atoms: N3_8  and  N4_10 
REMARK       I    between atoms: N4_10  and  C5_12 
REMARK       I    between atoms: C5_12  and  N6_16 
REMARK    3  A    between atoms: N6_16  and  N7_18 
REMARK    4  A    between atoms: N7_18  and  N8_19 
ROOT
HETATM    1  N4  UNL     1      -0.792  10.635  11.226  1.00  0.00    -0.117 N 
ATOM      2  H4  UNL     1      -0.991  11.199  12.053  1.00  0.00     0.206 HD
HETATM    3  C5  UNL     1      -0.572  11.296   9.986  1.00  0.00     0.704 C 
HETATM    4  N5  UNL     1       0.427  12.107   9.912  1.00  0.00    -0.232 N 
ATOM      5  H51 UNL     1       0.584  12.581   9.023  1.00  0.00     0.174 HD
ATOM      6  H52 UNL     1       1.028  12.257  10.723  1.00  0.00     0.174 HD
HETATM    7  N6  UNL     1      -1.410  11.087   8.856  1.00  0.00    -0.116 N 
ATOM      8  H6  UNL     1      -1.010  11.178   7.922  1.00  0.00     0.203 HD
ENDROOT
BRANCH   1   9
HETATM    9  N3  UNL     1      -0.746   9.244  11.356  1.00  0.00    -0.118 N 
ATOM     10  H3  UNL     1      -0.427   8.688  10.563  1.00  0.00     0.206 HD
BRANCH   9  11
HETATM   11  C4  UNL     1      -1.133   8.571  12.562  1.00  0.00     0.690 A 
HETATM   12  N1  UNL     1      -1.208   7.160  12.702  1.00  0.00    -0.220 N 
HETATM   13  C1  UNL     1      -0.915   6.213  11.650  1.00  0.00     0.168 C 
HETATM   14  C2  UNL     1      -1.619   6.802  14.037  1.00  0.00     0.161 A 
HETATM   15  C3  UNL     1      -1.798   8.143  14.691  1.00  0.00     0.158 A 
HETATM   16  N2  UNL     1      -1.461   9.100  13.670  1.00  0.00    -0.223 N 
ATOM     17  H2  UNL     1      -1.485  10.109  13.821  1.00  0.00     0.177 HD
ENDBRANCH   9  11
ENDBRANCH   1   9
BRANCH   7  18
HETATM   18  N7  UNL     1      -2.749  10.764   8.981  1.00  0.00    -0.015 NA
BRANCH  18  19
HETATM   19  N8  UNL     1      -3.115   9.705   8.114  1.00  0.00    -0.328 N 
ATOM     20  H82 UNL     1      -2.629   9.502   7.240  1.00  0.00     0.174 HD
ATOM     21  H81 UNL     1      -3.913   9.183   8.474  1.00  0.00     0.174 HD
ENDBRANCH  18  19
ENDBRANCH   7  18
TORSDOF 4
ENDMDL
MODEL 5
REMARK VINA RESULT: -6.089776040      1.467      2.612
REMARK  4 active torsions:
REMARK  status: ('A' for Active; 'I' for Inactive)
REMARK    1  A    between atoms: C4_7  and  N3_8 
REMARK    2  A    between atoms: N3_8  and  N4_10 
REMARK       I    between atoms: N4_10  and  C5_12 
REMARK       I    between atoms: C5_12  and  N6_16 
REMARK    3  A    between atoms: N6_16  and  N7_18 
REMARK    4  A    between atoms: N7_18  and  N8_19 
ROOT
HETATM    1  N4  UNL     1      -1.161  10.688  11.281  1.00  0.00    -0.117 N 
ATOM      2  H4  UNL     1      -1.308  11.426  11.970  1.00  0.00     0.206 HD
HETATM    3  C5  UNL     1      -0.510  11.015  10.058  1.00  0.00     0.704 C 
HETATM    4  N5  UNL     1       0.698  11.460  10.128  1.00  0.00    -0.232 N 
ATOM      5  H51 UNL     1       1.164  11.694   9.251  1.00  0.00     0.174 HD
ATOM      6  H52 UNL     1       1.155  11.566  11.034  1.00  0.00     0.174 HD
HETATM    7  N6  UNL     1      -1.147  10.867   8.796  1.00  0.00    -0.116 N 
ATOM      8  H6  UNL     1      -0.576  10.662   7.976  1.00  0.00     0.203 HD
ENDROOT
BRANCH   1   9
HETATM    9  N3  UNL     1      -1.607   9.396  11.574  1.00  0.00    -0.118 N 
ATOM     10  H3  UNL     1      -2.526   9.107  11.241  1.00  0.00     0.206 HD
BRANCH   9  11
HETATM   11  C4  UNL     1      -0.819   8.463  12.325  1.00  0.00     0.690 A 
HETATM   12  N1  UNL     1      -0.178   7.326  11.767  1.00  0.00    -0.220 N 
HETATM   13  C1  UNL     1      -0.238   6.950  10.371  1.00  0.00     0.168 C 
HETATM   14  C2  UNL     1       0.539   6.595  12.782  1.00  0.00     0.161 A 
HETATM   15  C3  UNL     1       0.258   7.400  14.019  1.00  0.00     0.158 A 
HETATM   16  N2  UNL     1      -0.568   8.491  13.570  1.00  0.00    -0.223 N 
ATOM     17  H2  UNL     1      -0.920   9.217  14.194  1.00  0.00     0.177 HD
ENDBRANCH   9  11
ENDBRANCH   1   9
BRANCH   7  18
HETATM   18  N7  UNL     1      -2.517  10.992   8.643  1.00  0.00    -0.015 NA
BRANCH  18  19
HETATM   19  N8  UNL     1      -3.101   9.790   8.173  1.00  0.00    -0.328 N 
ATOM     20  H82 UNL     1      -3.682   9.184   8.752  1.00  0.00     0.174 HD
ATOM     21  H81 UNL     1      -2.868   9.616   7.196  1.00  0.00     0.174 HD
ENDBRANCH  18  19
ENDBRANCH   7  18
TORSDOF 4
ENDMDL
