MODEL 1
REMARK VINA RESULT: -6.620091993      0.000      0.000
REMARK  4 active torsions:
REMARK  status: ('A' for Active; 'I' for Inactive)
REMARK    1  A    between atoms: N1_1  and  C1_4 
REMARK    2  A    between atoms: C3_13  and  C4_14 
REMARK       I    between atoms: C4_14  and  N6_16 
REMARK    3  A    between atoms: N6_16  and  N7_18 
REMARK    4  A    between atoms: N7_18  and  N8_19 
ROOT
HETATM    1  C1  UNL     1      -0.119  11.179   9.356  1.00  0.00     0.146 A 
HETATM    2  N2  UNL     1      -0.132  11.870   8.167  1.00  0.00    -0.268 N 
ATOM      3  H2  UNL     1       0.553  12.562   7.865  1.00  0.00     0.190 HD
HETATM    4  N3  UNL     1      -1.183  11.476   7.493  1.00  0.00    -0.219 N 
ATOM      5  H3  UNL     1      -1.446  11.822   6.570  1.00  0.00     0.210 HD
HETATM    6  N4  UNL     1      -1.855  10.564   8.179  1.00  0.00    -0.178 N 
HETATM    7  N5  UNL     1      -2.942   9.798   8.134  1.00  0.00    -0.288 N 
ATOM      8  H5  UNL     1      -3.607   9.763   7.361  1.00  0.00     0.188 HD
HETATM    9  C2  UNL     1      -3.026   9.078   9.262  1.00  0.00     0.129 A 
HETATM   10  C3  UNL     1      -1.941   9.399  10.076  1.00  0.00     0.084 A 
HETATM   11  C5  UNL     1      -1.228  10.332   9.371  1.00  0.00     0.138 A 
ENDROOT
BRANCH  10  12
HETATM   12  C4  UNL     1      -1.676   8.765  11.342  1.00  0.00     0.272 C 
HETATM   13  O1  UNL     1      -1.782   7.488  11.472  1.00  0.00    -0.266 OA
HETATM   14  N6  UNL     1      -1.283   9.432  12.551  1.00  0.00    -0.250 N 
ATOM     15  H6  UNL     1      -1.163  10.445  12.524  1.00  0.00     0.187 HD
BRANCH  14  16
HETATM   16  N7  UNL     1      -1.058   8.779  13.751  1.00  0.00    -0.027 NA
BRANCH  16  17
HETATM   17  N8  UNL     1       0.116   8.039  13.702  1.00  0.00    -0.329 N 
ATOM     18  H82 UNL     1       0.374   7.440  12.918  1.00  0.00     0.174 HD
ATOM     19  H81 UNL     1       0.671   8.178  14.546  1.00  0.00     0.174 HD
ENDBRANCH  16  17
ENDBRANCH  14  16
ENDBRANCH  10  12
BRANCH   1  20
HETATM   20  N1  UNL     1       0.723  11.301  10.280  1.00  0.00    -0.382 N 
ATOM     21  H12 UNL     1       1.536  11.918  10.268  1.00  0.00     0.157 HD
ATOM     22  H11 UNL     1       0.731  10.791  11.164  1.00  0.00     0.157 HD
ENDBRANCH   1  20
TORSDOF 4
ENDMDL
MODEL 2
REMARK VINA RESULT: -6.477472062      3.045      4.298
REMARK  4 active torsions:
REMARK  status: ('A' for Active; 'I' for Inactive)
REMARK    1  A    between atoms: N1_1  and  C1_4 
REMARK    2  A    between atoms: C3_13  and  C4_14 
REMARK       I    between atoms: C4_14  and  N6_16 
REMARK    3  A    between atoms: N6_16  and  N7_18 
REMARK    4  A    between atoms: N7_18  and  N8_19 
ROOT
HETATM    1  C1  UNL     1      -1.026   9.729   9.430  1.00  0.00     0.146 A 
HETATM    2  N2  UNL     1      -1.301  10.916  10.068  1.00  0.00    -0.268 N 
ATOM      3  H2  UNL     1      -1.579  11.790   9.621  1.00  0.00     0.190 HD
HETATM    4  N3  UNL     1      -1.144  10.720  11.353  1.00  0.00    -0.219 N 
ATOM      5  H3  UNL     1      -1.282  11.431  12.072  1.00  0.00     0.210 HD
HETATM    6  N4  UNL     1      -0.780   9.468  11.586  1.00  0.00    -0.178 N 
HETATM    7  N5  UNL     1      -0.451   8.630  12.565  1.00  0.00    -0.288 N 
ATOM      8  H5  UNL     1      -0.428   8.863  13.558  1.00  0.00     0.188 HD
HETATM    9  C2  UNL     1      -0.156   7.430  12.044  1.00  0.00     0.129 A 
HETATM   10  C3  UNL     1      -0.300   7.501  10.659  1.00  0.00     0.084 A 
HETATM   11  C5  UNL     1      -0.689   8.788  10.404  1.00  0.00     0.138 A 
ENDROOT
BRANCH  10  12
HETATM   12  C4  UNL     1      -0.124   6.373   9.779  1.00  0.00     0.272 C 
HETATM   13  O1  UNL     1      -0.618   5.222  10.080  1.00  0.00    -0.266 OA
HETATM   14  N6  UNL     1       0.579   6.384   8.528  1.00  0.00    -0.250 N 
ATOM     15  H6  UNL     1       0.986   7.265   8.213  1.00  0.00     0.187 HD
BRANCH  14  16
HETATM   16  N7  UNL     1       0.737   5.267   7.725  1.00  0.00    -0.027 NA
BRANCH  16  17
HETATM   17  N8  UNL     1      -0.455   4.937   7.093  1.00  0.00    -0.329 N 
ATOM     18  H82 UNL     1      -0.616   5.052   6.092  1.00  0.00     0.174 HD
ATOM     19  H81 UNL     1      -1.132   4.569   7.761  1.00  0.00     0.174 HD
ENDBRANCH  16  17
ENDBRANCH  14  16
ENDBRANCH  10  12
BRANCH   1  20
HETATM   20  N1  UNL     1      -1.044   9.527   8.191  1.00  0.00    -0.382 N 
ATOM     21  H12 UNL     1      -1.567  10.074   7.506  1.00  0.00     0.157 HD
ATOM     22  H11 UNL     1      -0.561   8.780   7.691  1.00  0.00     0.157 HD
ENDBRANCH   1  20
TORSDOF 4
ENDMDL
MODEL 3
REMARK VINA RESULT: -6.424027263      2.644      4.917
REMARK  4 active torsions:
REMARK  status: ('A' for Active; 'I' for Inactive)
REMARK    1  A    between atoms: N1_1  and  C1_4 
REMARK    2  A    between atoms: C3_13  and  C4_14 
REMARK       I    between atoms: C4_14  and  N6_16 
REMARK    3  A    between atoms: N6_16  and  N7_18 
REMARK    4  A    between atoms: N7_18  and  N8_19 
ROOT
HETATM    1  C1  UNL     1      -0.096   6.391   9.818  1.00  0.00     0.146 A 
HETATM    2  N2  UNL     1      -0.377   5.205  10.455  1.00  0.00    -0.268 N 
ATOM      3  H2  UNL     1      -0.197   4.269  10.093  1.00  0.00     0.190 HD
HETATM    4  N3  UNL     1      -0.917   5.496  11.612  1.00  0.00    -0.219 N 
ATOM      5  H3  UNL     1      -1.227   4.810  12.300  1.00  0.00     0.210 HD
HETATM    6  N4  UNL     1      -1.002   6.809  11.763  1.00  0.00    -0.178 N 
HETATM    7  N5  UNL     1      -1.423   7.751  12.604  1.00  0.00    -0.288 N 
ATOM      8  H5  UNL     1      -1.851   7.579  13.514  1.00  0.00     0.188 HD
HETATM    9  C2  UNL     1      -1.197   8.959  12.069  1.00  0.00     0.129 A 
HETATM   10  C3  UNL     1      -0.603   8.788  10.820  1.00  0.00     0.084 A 
HETATM   11  C5  UNL     1      -0.496   7.433  10.657  1.00  0.00     0.138 A 
ENDROOT
BRANCH  10  12
HETATM   12  C4  UNL     1      -0.162   9.879   9.988  1.00  0.00     0.272 C 
HETATM   13  O1  UNL     1       0.024   9.708   8.725  1.00  0.00    -0.266 OA
HETATM   14  N6  UNL     1       0.109  11.218  10.431  1.00  0.00    -0.250 N 
ATOM     15  H6  UNL     1      -0.031  11.436  11.417  1.00  0.00     0.187 HD
BRANCH  14  16
HETATM   16  N7  UNL     1       0.549  12.229   9.594  1.00  0.00    -0.027 NA
BRANCH  16  17
HETATM   17  N8  UNL     1      -0.438  12.588   8.685  1.00  0.00    -0.329 N 
ATOM     18  H82 UNL     1      -0.582  12.118   7.791  1.00  0.00     0.174 HD
ATOM     19  H81 UNL     1      -0.988  13.373   9.034  1.00  0.00     0.174 HD
ENDBRANCH  16  17
ENDBRANCH  14  16
ENDBRANCH  10  12
BRANCH   1  20
HETATM   20  N1  UNL     1       0.405   6.522   8.674  1.00  0.00    -0.382 N 
ATOM     21  H12 UNL     1      -0.023   6.221   7.798  1.00  0.00     0.157 HD
ATOM     22  H11 UNL     1       1.317   6.925   8.455  1.00  0.00     0.157 HD
ENDBRANCH   1  20
TORSDOF 4
ENDMDL
MODEL 4
REMARK VINA RESULT: -6.147697351      3.381      7.019
REMARK  4 active torsions:
REMARK  status: ('A' for Active; 'I' for Inactive)
REMARK    1  A    between atoms: N1_1  and  C1_4 
REMARK    2  A    between atoms: C3_13  and  C4_14 
REMARK       I    between atoms: C4_14  and  N6_16 
REMARK    3  A    between atoms: N6_16  and  N7_18 
REMARK    4  A    between atoms: N7_18  and  N8_19 
ROOT
HETATM    1  C1  UNL     1      -2.331   7.198  16.266  1.00  0.00     0.146 A 
HETATM    2  N2  UNL     1      -2.141   6.512  17.443  1.00  0.00    -0.268 N 
ATOM      3  H2  UNL     1      -2.770   6.507  18.245  1.00  0.00     0.190 HD
HETATM    4  N3  UNL     1      -1.005   5.868  17.346  1.00  0.00    -0.219 N 
ATOM      5  H3  UNL     1      -0.608   5.274  18.074  1.00  0.00     0.210 HD
HETATM    6  N4  UNL     1      -0.446   6.096  16.168  1.00  0.00    -0.178 N 
HETATM    7  N5  UNL     1       0.632   5.816  15.438  1.00  0.00    -0.288 N 
ATOM      8  H5  UNL     1       1.402   5.215  15.732  1.00  0.00     0.188 HD
HETATM    9  C2  UNL     1       0.547   6.447  14.258  1.00  0.00     0.129 A 
HETATM   10  C3  UNL     1      -0.644   7.171  14.227  1.00  0.00     0.084 A 
HETATM   11  C5  UNL     1      -1.241   6.933  15.435  1.00  0.00     0.138 A 
ENDROOT
BRANCH  10  12
HETATM   12  C4  UNL     1      -1.093   7.920  13.081  1.00  0.00     0.272 C 
HETATM   13  O1  UNL     1      -2.347   8.001  12.799  1.00  0.00    -0.266 OA
HETATM   14  N6  UNL     1      -0.253   8.633  12.160  1.00  0.00    -0.250 N 
ATOM     15  H6  UNL     1       0.753   8.630  12.325  1.00  0.00     0.187 HD
BRANCH  14  16
HETATM   16  N7  UNL     1      -0.732   9.325  11.060  1.00  0.00    -0.027 NA
BRANCH  16  17
HETATM   17  N8  UNL     1      -1.072  10.628  11.401  1.00  0.00    -0.329 N 
ATOM     18  H82 UNL     1      -0.412  11.301  11.791  1.00  0.00     0.174 HD
ATOM     19  H81 UNL     1      -2.056  10.811  11.208  1.00  0.00     0.174 HD
ENDBRANCH  16  17
ENDBRANCH  14  16
ENDBRANCH  10  12
BRANCH   1  20
HETATM   20  N1  UNL     1      -3.297   7.951  15.990  1.00  0.00    -0.382 N 
ATOM     21  H12 UNL     1      -3.307   8.665  15.261  1.00  0.00     0.157 HD
ATOM     22  H11 UNL     1      -4.201   7.975  16.463  1.00  0.00     0.157 HD
ENDBRANCH   1  20
TORSDOF 4
ENDMDL
MODEL 5
REMARK VINA RESULT: -6.039802364      3.237      4.243
REMARK  4 active torsions:
REMARK  status: ('A' for Active; 'I' for Inactive)
REMARK    1  A    between atoms: N1_1  and  C1_4 
REMARK    2  A    between atoms: C3_13  and  C4_14 
REMARK       I    between atoms: C4_14  and  N6_16 
REMARK    3  A    between atoms: N6_16  and  N7_18 
REMARK    4  A    between atoms: N7_18  and  N8_19 
ROOT
HETATM    1  C1  UNL     1      -1.066   9.735   9.495  1.00  0.00     0.146 A 
HETATM    2  N2  UNL     1      -1.625  10.821  10.128  1.00  0.00    -0.268 N 
ATOM      3  H2  UNL     1      -2.054  11.627   9.674  1.00  0.00     0.190 HD
HETATM    4  N3  UNL     1      -1.507  10.630  11.418  1.00  0.00    -0.219 N 
ATOM      5  H3  UNL     1      -1.835  11.277  12.135  1.00  0.00     0.210 HD
HETATM    6  N4  UNL     1      -0.901   9.478  11.659  1.00  0.00    -0.178 N 
HETATM    7  N5  UNL     1      -0.461   8.703  12.647  1.00  0.00    -0.288 N 
ATOM      8  H5  UNL     1      -0.547   8.911  13.642  1.00  0.00     0.188 HD
HETATM    9  C2  UNL     1       0.113   7.606  12.132  1.00  0.00     0.129 A 
HETATM   10  C3  UNL     1       0.041   7.679  10.741  1.00  0.00     0.084 A 
HETATM   11  C5  UNL     1      -0.597   8.862  10.477  1.00  0.00     0.138 A 
ENDROOT
BRANCH  10  12
HETATM   12  C4  UNL     1       0.504   6.637   9.861  1.00  0.00     0.272 C 
HETATM   13  O1  UNL     1       0.793   6.895   8.633  1.00  0.00    -0.266 OA
HETATM   14  N6  UNL     1       0.694   5.259  10.216  1.00  0.00    -0.250 N 
ATOM     15  H6  UNL     1       0.501   4.979  11.178  1.00  0.00     0.187 HD
BRANCH  14  16
HETATM   16  N7  UNL     1       1.124   4.288   9.328  1.00  0.00    -0.027 NA
BRANCH  16  17
HETATM   17  N8  UNL     1       0.143   4.003   8.388  1.00  0.00    -0.329 N 
ATOM     18  H82 UNL     1       0.142   4.377   7.439  1.00  0.00     0.174 HD
ATOM     19  H81 UNL     1      -0.564   3.378   8.776  1.00  0.00     0.174 HD
ENDBRANCH  16  17
ENDBRANCH  14  16
ENDBRANCH  10  12
BRANCH   1  20
HETATM   20  N1  UNL     1      -0.967   9.565   8.254  1.00  0.00    -0.382 N 
ATOM     21  H12 UNL     1      -1.541  10.018   7.543  1.00  0.00     0.157 HD
ATOM     22  H11 UNL     1      -0.318   8.938   7.779  1.00  0.00     0.157 HD
ENDBRANCH   1  20
TORSDOF 4
ENDMDL
