MODEL 1
REMARK VINA RESULT: -6.160722711      0.000      0.000
REMARK  4 active torsions:
REMARK  status: ('A' for Active; 'I' for Inactive)
REMARK       I    between atoms: C2_2  and  N1_4 
REMARK    1  A    between atoms: N1_4  and  O2_6 
REMARK    2  A    between atoms: O2_6  and  C3_7 
REMARK       I    between atoms: C3_7  and  N2_9 
REMARK    3  A    between atoms: N4_13  and  O5_14 
REMARK    4  A    between atoms: O5_14  and  N5_15 
ROOT
HETATM    1  C3  UNL     1      33.084  26.266  37.042  1.00  0.00     0.427 C 
HETATM    2  O3  UNL     1      33.444  27.334  36.430  1.00  0.00    -0.232 OA
HETATM    3  N2  UNL     1      33.967  25.215  37.293  1.00  0.00    -0.074 N 
HETATM    4  O4  UNL     1      35.275  25.143  36.974  1.00  0.00    -0.238 OA
HETATM    5  C4  UNL     1      35.461  23.809  36.593  1.00  0.00     0.336 C 
HETATM    6  N3  UNL     1      34.219  23.109  36.937  1.00  0.00    -0.085 NA
HETATM    7  N4  UNL     1      33.695  24.008  37.918  1.00  0.00     0.050 NA
ENDROOT
BRANCH   1   8
HETATM    8  O2  UNL     1      31.753  26.235  37.439  1.00  0.00    -0.176 OA
BRANCH   8   9
HETATM    9  N1  UNL     1      31.051  25.072  37.462  1.00  0.00    -0.225 N 
HETATM   10  C2  UNL     1      30.647  24.395  38.628  1.00  0.00     0.237 C 
HETATM   11  C1  UNL     1      29.893  23.128  38.544  1.00  0.00     0.119 C 
HETATM   12  O1  UNL     1      30.925  24.862  39.759  1.00  0.00    -0.272 OA
ATOM     13  H1  UNL     1      30.797  24.658  36.565  1.00  0.00     0.198 HD
ENDBRANCH   8   9
ENDBRANCH   1   8
BRANCH   7  14
HETATM   14  O5  UNL     1      34.581  23.928  38.963  1.00  0.00    -0.149 OA
BRANCH  14  15
HETATM   15  N5  UNL     1      34.192  24.708  39.988  1.00  0.00    -0.288 N 
ATOM     16  H52 UNL     1      34.415  25.701  40.058  1.00  0.00     0.186 HD
ATOM     17  H51 UNL     1      33.655  24.174  40.671  1.00  0.00     0.186 HD
ENDBRANCH  14  15
ENDBRANCH   7  14
TORSDOF 4
ENDMDL
MODEL 2
REMARK VINA RESULT: -5.850690950      2.311      2.949
REMARK  4 active torsions:
REMARK  status: ('A' for Active; 'I' for Inactive)
REMARK       I    between atoms: C2_2  and  N1_4 
REMARK    1  A    between atoms: N1_4  and  O2_6 
REMARK    2  A    between atoms: O2_6  and  C3_7 
REMARK       I    between atoms: C3_7  and  N2_9 
REMARK    3  A    between atoms: N4_13  and  O5_14 
REMARK    4  A    between atoms: O5_14  and  N5_15 
ROOT
HETATM    1  C3  UNL     1      32.460  24.768  39.605  1.00  0.00     0.427 C 
HETATM    2  O3  UNL     1      32.197  25.804  40.314  1.00  0.00    -0.232 OA
HETATM    3  N2  UNL     1      33.328  24.810  38.513  1.00  0.00    -0.074 N 
HETATM    4  O4  UNL     1      34.016  25.872  38.047  1.00  0.00    -0.238 OA
HETATM    5  C4  UNL     1      33.967  25.726  36.656  1.00  0.00     0.336 C 
HETATM    6  N3  UNL     1      33.399  24.399  36.404  1.00  0.00    -0.085 NA
HETATM    7  N4  UNL     1      33.670  23.772  37.660  1.00  0.00     0.050 NA
ENDROOT
BRANCH   1   8
HETATM    8  O2  UNL     1      31.819  23.602  40.006  1.00  0.00    -0.176 OA
BRANCH   8   9
HETATM    9  N1  UNL     1      31.531  23.370  41.313  1.00  0.00    -0.225 N 
HETATM   10  C2  UNL     1      30.233  23.282  41.852  1.00  0.00     0.237 C 
HETATM   11  C1  UNL     1      30.028  23.035  43.293  1.00  0.00     0.119 C 
HETATM   12  O1  UNL     1      29.230  23.414  41.109  1.00  0.00    -0.272 OA
ATOM     13  H1  UNL     1      32.316  23.250  41.955  1.00  0.00     0.198 HD
ENDBRANCH   8   9
ENDBRANCH   1   8
BRANCH   7  14
HETATM   14  O5  UNL     1      35.040  23.692  37.712  1.00  0.00    -0.149 OA
BRANCH  14  15
HETATM   15  N5  UNL     1      35.452  23.202  38.895  1.00  0.00    -0.288 N 
ATOM     16  H52 UNL     1      35.180  22.286  39.253  1.00  0.00     0.186 HD
ATOM     17  H51 UNL     1      36.061  23.865  39.374  1.00  0.00     0.186 HD
ENDBRANCH  14  15
ENDBRANCH   7  14
TORSDOF 4
ENDMDL
MODEL 3
REMARK VINA RESULT: -5.743921792      2.424      3.358
REMARK  4 active torsions:
REMARK  status: ('A' for Active; 'I' for Inactive)
REMARK       I    between atoms: C2_2  and  N1_4 
REMARK    1  A    between atoms: N1_4  and  O2_6 
REMARK    2  A    between atoms: O2_6  and  C3_7 
REMARK       I    between atoms: C3_7  and  N2_9 
REMARK    3  A    between atoms: N4_13  and  O5_14 
REMARK    4  A    between atoms: O5_14  and  N5_15 
ROOT
HETATM    1  C3  UNL     1      32.819  24.499  39.007  1.00  0.00     0.427 C 
HETATM    2  O3  UNL     1      32.133  23.430  39.180  1.00  0.00    -0.232 OA
HETATM    3  N2  UNL     1      33.392  24.829  37.778  1.00  0.00    -0.074 N 
HETATM    4  O4  UNL     1      33.317  24.139  36.622  1.00  0.00    -0.238 OA
HETATM    5  C4  UNL     1      34.589  24.282  36.056  1.00  0.00     0.336 C 
HETATM    6  N3  UNL     1      35.290  25.278  36.873  1.00  0.00    -0.085 NA
HETATM    7  N4  UNL     1      34.171  25.934  37.474  1.00  0.00     0.050 NA
ENDROOT
BRANCH   1   8
HETATM    8  O2  UNL     1      32.948  25.303  40.132  1.00  0.00    -0.176 OA
BRANCH   8   9
HETATM    9  N1  UNL     1      31.898  26.020  40.610  1.00  0.00    -0.225 N 
HETATM   10  C2  UNL     1      31.507  26.081  41.961  1.00  0.00     0.237 C 
HETATM   11  C1  UNL     1      30.341  26.885  42.377  1.00  0.00     0.119 C 
HETATM   12  O1  UNL     1      32.150  25.447  42.833  1.00  0.00    -0.272 OA
ATOM     13  H1  UNL     1      31.349  26.557  39.937  1.00  0.00     0.198 HD
ENDBRANCH   8   9
ENDBRANCH   1   8
BRANCH   7  14
HETATM   14  O5  UNL     1      33.536  26.554  36.426  1.00  0.00    -0.149 OA
BRANCH  14  15
HETATM   15  N5  UNL     1      32.274  26.885  36.752  1.00  0.00    -0.288 N 
ATOM     16  H52 UNL     1      31.465  26.297  36.549  1.00  0.00     0.186 HD
ATOM     17  H51 UNL     1      32.242  27.789  37.222  1.00  0.00     0.186 HD
ENDBRANCH  14  15
ENDBRANCH   7  14
TORSDOF 4
ENDMDL
MODEL 4
REMARK VINA RESULT: -5.689781346      5.925      8.033
REMARK  4 active torsions:
REMARK  status: ('A' for Active; 'I' for Inactive)
REMARK       I    between atoms: C2_2  and  N1_4 
REMARK    1  A    between atoms: N1_4  and  O2_6 
REMARK    2  A    between atoms: O2_6  and  C3_7 
REMARK       I    between atoms: C3_7  and  N2_9 
REMARK    3  A    between atoms: N4_13  and  O5_14 
REMARK    4  A    between atoms: O5_14  and  N5_15 
ROOT
HETATM    1  C3  UNL     1      29.519  26.884  44.645  1.00  0.00     0.427 C 
HETATM    2  O3  UNL     1      28.562  27.733  44.732  1.00  0.00    -0.232 OA
HETATM    3  N2  UNL     1      29.455  25.622  45.238  1.00  0.00    -0.074 N 
HETATM    4  O4  UNL     1      28.438  25.095  45.947  1.00  0.00    -0.238 OA
HETATM    5  C4  UNL     1      29.069  24.379  46.970  1.00  0.00     0.336 C 
HETATM    6  N3  UNL     1      30.498  24.368  46.640  1.00  0.00    -0.085 NA
HETATM    7  N4  UNL     1      30.427  24.633  45.236  1.00  0.00     0.050 NA
ENDROOT
BRANCH   1   8
HETATM    8  O2  UNL     1      30.621  27.312  43.915  1.00  0.00    -0.176 OA
BRANCH   8   9
HETATM    9  N1  UNL     1      30.779  26.970  42.610  1.00  0.00    -0.225 N 
HETATM   10  C2  UNL     1      31.731  26.054  42.123  1.00  0.00     0.237 C 
HETATM   11  C1  UNL     1      31.827  25.758  40.679  1.00  0.00     0.119 C 
HETATM   12  O1  UNL     1      32.515  25.477  42.914  1.00  0.00    -0.272 OA
ATOM     13  H1  UNL     1      30.159  27.410  41.929  1.00  0.00     0.198 HD
ENDBRANCH   8   9
ENDBRANCH   1   8
BRANCH   7  14
HETATM   14  O5  UNL     1      29.818  23.521  44.709  1.00  0.00    -0.149 OA
BRANCH  14  15
HETATM   15  N5  UNL     1      29.929  23.498  43.369  1.00  0.00    -0.288 N 
ATOM     16  H52 UNL     1      29.137  23.366  42.739  1.00  0.00     0.186 HD
ATOM     17  H51 UNL     1      30.897  23.629  43.079  1.00  0.00     0.186 HD
ENDBRANCH  14  15
ENDBRANCH   7  14
TORSDOF 4
ENDMDL
MODEL 5
REMARK VINA RESULT: -5.689145758      6.624      8.861
REMARK  4 active torsions:
REMARK  status: ('A' for Active; 'I' for Inactive)
REMARK       I    between atoms: C2_2  and  N1_4 
REMARK    1  A    between atoms: N1_4  and  O2_6 
REMARK    2  A    between atoms: O2_6  and  C3_7 
REMARK       I    between atoms: C3_7  and  N2_9 
REMARK    3  A    between atoms: N4_13  and  O5_14 
REMARK    4  A    between atoms: O5_14  and  N5_15 
ROOT
HETATM    1  C3  UNL     1      28.772  25.884  45.435  1.00  0.00     0.427 C 
HETATM    2  O3  UNL     1      27.869  26.771  45.229  1.00  0.00    -0.232 OA
HETATM    3  N2  UNL     1      28.484  24.519  45.467  1.00  0.00    -0.074 N 
HETATM    4  O4  UNL     1      27.289  23.923  45.281  1.00  0.00    -0.238 OA
HETATM    5  C4  UNL     1      27.287  22.868  46.200  1.00  0.00     0.336 C 
HETATM    6  N3  UNL     1      28.647  22.795  46.742  1.00  0.00    -0.085 NA
HETATM    7  N4  UNL     1      29.362  23.472  45.704  1.00  0.00     0.050 NA
ENDROOT
BRANCH   1   8
HETATM    8  O2  UNL     1      30.055  26.383  45.622  1.00  0.00    -0.176 OA
BRANCH   8   9
HETATM    9  N1  UNL     1      31.116  25.869  44.948  1.00  0.00    -0.225 N 
HETATM   10  C2  UNL     1      31.536  26.276  43.668  1.00  0.00     0.237 C 
HETATM   11  C1  UNL     1      32.701  25.644  43.017  1.00  0.00     0.119 C 
HETATM   12  O1  UNL     1      30.921  27.186  43.061  1.00  0.00    -0.272 OA
ATOM     13  H1  UNL     1      31.651  25.130  45.406  1.00  0.00     0.198 HD
ENDBRANCH   8   9
ENDBRANCH   1   8
BRANCH   7  14
HETATM   14  O5  UNL     1      29.248  22.644  44.615  1.00  0.00    -0.149 OA
BRANCH  14  15
HETATM   15  N5  UNL     1      29.857  23.173  43.540  1.00  0.00    -0.288 N 
ATOM     16  H52 UNL     1      29.615  22.933  42.578  1.00  0.00     0.186 HD
ATOM     17  H51 UNL     1      30.582  23.834  43.817  1.00  0.00     0.186 HD
ENDBRANCH  14  15
ENDBRANCH   7  14
TORSDOF 4
ENDMDL
