MODEL 1
REMARK VINA RESULT: -7.699574386      0.000      0.000
REMARK  4 active torsions:
REMARK  status: ('A' for Active; 'I' for Inactive)
REMARK    1  A    between atoms: N1_1  and  C1_4 
REMARK    2  A    between atoms: C2_7  and  N3_8 
REMARK       I    between atoms: N3_8  and  C3_10 
REMARK       I    between atoms: C3_10  and  N4_12 
REMARK    3  A    between atoms: N4_12  and  N5_14 
REMARK    4  A    between atoms: N5_14  and  O2_15 
ROOT
HETATM    1  C1  UNL     1      30.585  22.718  40.135  1.00  0.00     0.679 A 
HETATM    2  N2  UNL     1      31.626  23.358  39.545  1.00  0.00    -0.174 N 
ATOM      3  H2  UNL     1      31.893  23.087  38.598  1.00  0.00     0.186 HD
HETATM    4  C2  UNL     1      32.319  24.334  40.158  1.00  0.00     0.163 A 
HETATM    5  C4  UNL     1      31.940  24.684  41.436  1.00  0.00     0.170 A 
HETATM    6  O3  UNL     1      32.405  25.571  42.273  1.00  0.00    -0.253 OA
HETATM    7  C5  UNL     1      31.723  25.540  43.367  1.00  0.00     0.371 A 
HETATM    8  O4  UNL     1      31.879  26.257  44.413  1.00  0.00    -0.238 OA
HETATM    9  N6  UNL     1      30.769  24.598  43.258  1.00  0.00    -0.285 N 
ATOM     10  H6  UNL     1      30.081  24.352  43.969  1.00  0.00     0.172 HD
HETATM   11  C6  UNL     1      30.887  24.043  42.046  1.00  0.00     0.163 A 
HETATM   12  N7  UNL     1      30.221  23.065  41.383  1.00  0.00    -0.174 N 
ATOM     13  H7  UNL     1      29.439  22.589  41.834  1.00  0.00     0.186 HD
ENDROOT
BRANCH   4  14
HETATM   14  N3  UNL     1      33.311  24.957  39.622  1.00  0.00    -0.291 N 
HETATM   15  C3  UNL     1      34.074  24.432  38.544  1.00  0.00     0.339 C 
HETATM   16  O1  UNL     1      34.003  24.924  37.380  1.00  0.00    -0.245 OA
HETATM   17  N4  UNL     1      34.923  23.332  38.821  1.00  0.00    -0.229 N 
ATOM     18  H4  UNL     1      34.983  22.933  39.758  1.00  0.00     0.189 HD
ATOM     19  H3  UNL     1      33.561  25.875  39.990  1.00  0.00     0.172 HD
BRANCH  17  20
HETATM   20  N5  UNL     1      35.687  22.805  37.748  1.00  0.00     0.022 NA
BRANCH  20  21
HETATM   21  O2  UNL     1      36.403  23.658  37.150  1.00  0.00    -0.277 OA
ATOM     22  H2  UNL     1      37.240  23.325  36.850  1.00  0.00     0.240 HD
ENDBRANCH  20  21
ENDBRANCH  17  20
ENDBRANCH   4  14
BRANCH   1  23
HETATM   23  N1  UNL     1      29.954  21.790  39.504  1.00  0.00    -0.234 N 
ATOM     24  H12 UNL     1      30.020  20.819  39.811  1.00  0.00     0.174 HD
ATOM     25  H11 UNL     1      29.383  22.020  38.692  1.00  0.00     0.174 HD
ENDBRANCH   1  23
TORSDOF 4
ENDMDL
MODEL 2
REMARK VINA RESULT: -7.685369513      1.662      1.818
REMARK  4 active torsions:
REMARK  status: ('A' for Active; 'I' for Inactive)
REMARK    1  A    between atoms: N1_1  and  C1_4 
REMARK    2  A    between atoms: C2_7  and  N3_8 
REMARK       I    between atoms: N3_8  and  C3_10 
REMARK       I    between atoms: C3_10  and  N4_12 
REMARK    3  A    between atoms: N4_12  and  N5_14 
REMARK    4  A    between atoms: N5_14  and  O2_15 
ROOT
HETATM    1  C1  UNL     1      30.220  23.772  37.963  1.00  0.00     0.679 A 
HETATM    2  N2  UNL     1      31.341  24.441  37.594  1.00  0.00    -0.174 N 
ATOM      3  H2  UNL     1      31.572  24.500  36.602  1.00  0.00     0.186 HD
HETATM    4  C2  UNL     1      32.159  25.031  38.485  1.00  0.00     0.163 A 
HETATM    5  C4  UNL     1      31.825  24.940  39.820  1.00  0.00     0.170 A 
HETATM    6  O3  UNL     1      32.404  25.396  40.897  1.00  0.00    -0.253 OA
HETATM    7  C5  UNL     1      31.720  25.059  41.937  1.00  0.00     0.371 A 
HETATM    8  O4  UNL     1      31.968  25.323  43.162  1.00  0.00    -0.238 OA
HETATM    9  N6  UNL     1      30.646  24.353  41.540  1.00  0.00    -0.285 N 
ATOM     10  H6  UNL     1      29.928  23.956  42.147  1.00  0.00     0.172 HD
HETATM   11  C6  UNL     1      30.692  24.264  40.206  1.00  0.00     0.163 A 
HETATM   12  N7  UNL     1      29.901  23.687  39.268  1.00  0.00    -0.174 N 
ATOM     13  H7  UNL     1      29.060  23.185  39.552  1.00  0.00     0.186 HD
ENDROOT
BRANCH   4  14
HETATM   14  N3  UNL     1      33.228  25.673  38.164  1.00  0.00    -0.291 N 
HETATM   15  C3  UNL     1      34.221  25.151  37.290  1.00  0.00     0.339 C 
HETATM   16  O1  UNL     1      34.393  25.621  36.128  1.00  0.00    -0.245 OA
HETATM   17  N4  UNL     1      35.015  24.080  37.771  1.00  0.00    -0.229 N 
ATOM     18  H4  UNL     1      34.878  23.700  38.707  1.00  0.00     0.189 HD
ATOM     19  H3  UNL     1      33.370  26.603  38.556  1.00  0.00     0.172 HD
BRANCH  17  20
HETATM   20  N5  UNL     1      36.006  23.557  36.902  1.00  0.00     0.022 NA
BRANCH  20  21
HETATM   21  O2  UNL     1      35.548  22.916  35.913  1.00  0.00    -0.277 OA
ATOM     22  H2  UNL     1      35.586  23.387  35.089  1.00  0.00     0.240 HD
ENDBRANCH  20  21
ENDBRANCH  17  20
ENDBRANCH   4  14
BRANCH   1  23
HETATM   23  N1  UNL     1      29.471  23.224  37.070  1.00  0.00    -0.234 N 
ATOM     24  H12 UNL     1      29.804  23.112  36.112  1.00  0.00     0.174 HD
ATOM     25  H11 UNL     1      28.537  22.897  37.316  1.00  0.00     0.174 HD
ENDBRANCH   1  23
TORSDOF 4
ENDMDL
MODEL 3
REMARK VINA RESULT: -7.617419819      2.630      3.808
REMARK  4 active torsions:
REMARK  status: ('A' for Active; 'I' for Inactive)
REMARK    1  A    between atoms: N1_1  and  C1_4 
REMARK    2  A    between atoms: C2_7  and  N3_8 
REMARK       I    between atoms: N3_8  and  C3_10 
REMARK       I    between atoms: C3_10  and  N4_12 
REMARK    3  A    between atoms: N4_12  and  N5_14 
REMARK    4  A    between atoms: N5_14  and  O2_15 
ROOT
HETATM    1  C1  UNL     1      30.842  23.405  41.392  1.00  0.00     0.679 A 
HETATM    2  N2  UNL     1      31.797  24.023  40.653  1.00  0.00    -0.174 N 
ATOM      3  H2  UNL     1      32.609  24.415  41.130  1.00  0.00     0.186 HD
HETATM    4  C2  UNL     1      31.715  24.139  39.315  1.00  0.00     0.163 A 
HETATM    5  C4  UNL     1      30.609  23.602  38.691  1.00  0.00     0.170 A 
HETATM    6  O3  UNL     1      30.251  23.556  37.437  1.00  0.00    -0.253 OA
HETATM    7  C5  UNL     1      29.121  22.943  37.327  1.00  0.00     0.371 A 
HETATM    8  O4  UNL     1      28.456  22.702  36.264  1.00  0.00    -0.238 OA
HETATM    9  N6  UNL     1      28.710  22.567  38.552  1.00  0.00    -0.285 N 
ATOM     10  H6  UNL     1      27.850  22.064  38.771  1.00  0.00     0.172 HD
HETATM   11  C6  UNL     1      29.635  22.973  39.430  1.00  0.00     0.163 A 
HETATM   12  N7  UNL     1      29.766  22.883  40.777  1.00  0.00    -0.174 N 
ATOM     13  H7  UNL     1      29.044  22.416  41.326  1.00  0.00     0.186 HD
ENDROOT
BRANCH   4  14
HETATM   14  N3  UNL     1      32.605  24.721  38.588  1.00  0.00    -0.291 N 
HETATM   15  C3  UNL     1      33.657  24.025  37.933  1.00  0.00     0.339 C 
HETATM   16  O1  UNL     1      33.682  23.893  36.675  1.00  0.00    -0.245 OA
HETATM   17  N4  UNL     1      34.683  23.481  38.745  1.00  0.00    -0.229 N 
ATOM     18  H4  UNL     1      34.667  23.586  39.759  1.00  0.00     0.189 HD
ATOM     19  H3  UNL     1      32.552  25.733  38.476  1.00  0.00     0.172 HD
BRANCH  17  20
HETATM   20  N5  UNL     1      35.735  22.786  38.095  1.00  0.00     0.022 NA
BRANCH  20  21
HETATM   21  O2  UNL     1      36.390  23.484  37.269  1.00  0.00    -0.277 OA
ATOM     22  H2  UNL     1      36.551  23.057  36.436  1.00  0.00     0.240 HD
ENDBRANCH  20  21
ENDBRANCH  17  20
ENDBRANCH   4  14
BRANCH   1  23
HETATM   23  N1  UNL     1      30.969  23.320  42.671  1.00  0.00    -0.234 N 
ATOM     24  H12 UNL     1      31.483  22.545  43.090  1.00  0.00     0.174 HD
ATOM     25  H11 UNL     1      30.556  24.031  43.275  1.00  0.00     0.174 HD
ENDBRANCH   1  23
TORSDOF 4
ENDMDL
MODEL 4
REMARK VINA RESULT: -7.488088181      2.755      5.327
REMARK  4 active torsions:
REMARK  status: ('A' for Active; 'I' for Inactive)
REMARK    1  A    between atoms: N1_1  and  C1_4 
REMARK    2  A    between atoms: C2_7  and  N3_8 
REMARK       I    between atoms: N3_8  and  C3_10 
REMARK       I    between atoms: C3_10  and  N4_12 
REMARK    3  A    between atoms: N4_12  and  N5_14 
REMARK    4  A    between atoms: N5_14  and  O2_15 
ROOT
HETATM    1  C1  UNL     1      33.334  25.109  38.466  1.00  0.00     0.679 A 
HETATM    2  N2  UNL     1      33.207  24.638  39.731  1.00  0.00    -0.174 N 
ATOM      3  H2  UNL     1      34.033  24.611  40.329  1.00  0.00     0.186 HD
HETATM    4  C2  UNL     1      32.034  24.204  40.228  1.00  0.00     0.163 A 
HETATM    5  C4  UNL     1      30.931  24.251  39.403  1.00  0.00     0.170 A 
HETATM    6  O3  UNL     1      29.686  23.909  39.591  1.00  0.00    -0.253 OA
HETATM    7  C5  UNL     1      29.004  24.135  38.519  1.00  0.00     0.371 A 
HETATM    8  O4  UNL     1      27.759  23.931  38.320  1.00  0.00    -0.238 OA
HETATM    9  N6  UNL     1      29.824  24.645  37.582  1.00  0.00    -0.285 N 
ATOM     10  H6  UNL     1      29.561  24.919  36.636  1.00  0.00     0.172 HD
HETATM   11  C6  UNL     1      31.047  24.727  38.118  1.00  0.00     0.163 A 
HETATM   12  N7  UNL     1      32.253  25.152  37.666  1.00  0.00    -0.174 N 
ATOM     13  H7  UNL     1      32.341  25.506  36.713  1.00  0.00     0.186 HD
ENDROOT
BRANCH   4  14
HETATM   14  N3  UNL     1      31.885  23.751  41.424  1.00  0.00    -0.291 N 
HETATM   15  C3  UNL     1      31.634  24.581  42.550  1.00  0.00     0.339 C 
HETATM   16  O1  UNL     1      30.510  24.588  43.132  1.00  0.00    -0.245 OA
HETATM   17  N4  UNL     1      32.694  25.406  43.002  1.00  0.00    -0.229 N 
ATOM     18  H4  UNL     1      33.602  25.402  42.536  1.00  0.00     0.189 HD
ATOM     19  H3  UNL     1      31.949  22.744  41.571  1.00  0.00     0.172 HD
BRANCH  17  20
HETATM   20  N5  UNL     1      32.448  26.236  44.125  1.00  0.00     0.022 NA
BRANCH  20  21
HETATM   21  O2  UNL     1      33.475  26.500  44.814  1.00  0.00    -0.277 OA
ATOM     22  H2  UNL     1      33.292  26.738  45.715  1.00  0.00     0.240 HD
ENDBRANCH  20  21
ENDBRANCH  17  20
ENDBRANCH   4  14
BRANCH   1  23
HETATM   23  N1  UNL     1      34.480  25.513  38.038  1.00  0.00    -0.234 N 
ATOM     24  H12 UNL     1      34.823  26.444  38.275  1.00  0.00     0.174 HD
ATOM     25  H11 UNL     1      35.054  24.901  37.458  1.00  0.00     0.174 HD
ENDBRANCH   1  23
TORSDOF 4
ENDMDL
MODEL 5
REMARK VINA RESULT: -7.463743988      2.615      3.755
REMARK  4 active torsions:
REMARK  status: ('A' for Active; 'I' for Inactive)
REMARK    1  A    between atoms: N1_1  and  C1_4 
REMARK    2  A    between atoms: C2_7  and  N3_8 
REMARK       I    between atoms: N3_8  and  C3_10 
REMARK       I    between atoms: C3_10  and  N4_12 
REMARK    3  A    between atoms: N4_12  and  N5_14 
REMARK    4  A    between atoms: N5_14  and  O2_15 
ROOT
HETATM    1  C1  UNL     1      32.185  24.715  41.195  1.00  0.00     0.679 A 
HETATM    2  N2  UNL     1      32.909  25.244  40.177  1.00  0.00    -0.174 N 
ATOM      3  H2  UNL     1      33.726  25.813  40.401  1.00  0.00     0.186 HD
HETATM    4  C2  UNL     1      32.591  25.049  38.884  1.00  0.00     0.163 A 
HETATM    5  C4  UNL     1      31.484  24.277  38.605  1.00  0.00     0.170 A 
HETATM    6  O3  UNL     1      30.934  23.915  37.479  1.00  0.00    -0.253 OA
HETATM    7  C5  UNL     1      29.899  23.182  37.713  1.00  0.00     0.371 A 
HETATM    8  O4  UNL     1      29.108  22.643  36.867  1.00  0.00    -0.238 OA
HETATM    9  N6  UNL     1      29.752  23.050  39.044  1.00  0.00    -0.285 N 
ATOM     10  H6  UNL     1      29.019  22.525  39.520  1.00  0.00     0.172 HD
HETATM   11  C6  UNL     1      30.743  23.734  39.628  1.00  0.00     0.163 A 
HETATM   12  N7  UNL     1      31.106  23.962  40.915  1.00  0.00    -0.174 N 
ATOM     13  H7  UNL     1      30.557  23.560  41.675  1.00  0.00     0.186 HD
ENDROOT
BRANCH   4  14
HETATM   14  N3  UNL     1      33.259  25.540  37.899  1.00  0.00    -0.291 N 
HETATM   15  C3  UNL     1      34.081  24.757  37.043  1.00  0.00     0.339 C 
HETATM   16  O1  UNL     1      33.759  24.531  35.840  1.00  0.00    -0.245 OA
HETATM   17  N4  UNL     1      35.281  24.235  37.588  1.00  0.00    -0.229 N 
ATOM     18  H4  UNL     1      35.543  24.416  38.557  1.00  0.00     0.189 HD
ATOM     19  H3  UNL     1      33.195  26.542  37.722  1.00  0.00     0.172 HD
BRANCH  17  20
HETATM   20  N5  UNL     1      36.103  23.454  36.738  1.00  0.00     0.022 NA
BRANCH  20  21
HETATM   21  O2  UNL     1      35.503  22.501  36.162  1.00  0.00    -0.277 OA
ATOM     22  H2  UNL     1      36.063  21.950  35.630  1.00  0.00     0.240 HD
ENDBRANCH  20  21
ENDBRANCH  17  20
ENDBRANCH   4  14
BRANCH   1  23
HETATM   23  N1  UNL     1      32.532  24.933  42.416  1.00  0.00    -0.234 N 
ATOM     24  H12 UNL     1      33.312  24.423  42.831  1.00  0.00     0.174 HD
ATOM     25  H11 UNL     1      32.027  25.618  42.977  1.00  0.00     0.174 HD
ENDBRANCH   1  23
TORSDOF 4
ENDMDL
