MODEL 1
REMARK VINA RESULT: -8.452578863      0.000      0.000
REMARK  4 active torsions:
REMARK  status: ('A' for Active; 'I' for Inactive)
REMARK    1  A    between atoms: N1_1  and  C1_4 
REMARK    2  A    between atoms: C3_8  and  C4_9 
REMARK    3  A    between atoms: N3_10  and  N4_12 
REMARK    4  A    between atoms: N4_12  and  C5_14 
ROOT
HETATM    1  C4  UNL     1      -1.472   8.564  13.447  1.00  0.00     0.126 C 
HETATM    2  N3  UNL     1      -1.912   9.488  12.661  1.00  0.00    -0.297 N 
ATOM      3  H3  UNL     1      -2.872   9.814  12.770  1.00  0.00     0.186 HD
ENDROOT
BRANCH   2   4
HETATM    4  N4  UNL     1      -1.116  10.055  11.670  1.00  0.00    -0.132 N 
ATOM      5  H4  UNL     1      -0.222  10.494  11.888  1.00  0.00     0.205 HD
BRANCH   4   6
HETATM    6  C5  UNL     1      -1.570   9.997  10.441  1.00  0.00     0.701 A 
HETATM    7  N5  UNL     1      -2.717   9.347  10.195  1.00  0.00    -0.186 N 
HETATM    8  C6  UNL     1      -3.176   9.289   8.944  1.00  0.00     0.202 A 
ATOM      9  H5  UNL     1      -3.231   8.902  10.955  1.00  0.00     0.185 HD
HETATM   10  N6  UNL     1      -2.495   9.878   7.929  1.00  0.00    -0.304 N 
HETATM   11  C7  UNL     1      -1.346  10.528   8.180  1.00  0.00     0.339 A 
ATOM     12  H6  UNL     1      -2.855   9.828   6.976  1.00  0.00     0.171 HD
HETATM   13  O1  UNL     1      -0.726  11.072   7.219  1.00  0.00    -0.246 OA
HETATM   14  N7  UNL     1      -0.901  10.576   9.441  1.00  0.00    -0.140 N 
ATOM     15  H7  UNL     1      -0.029  11.067   9.643  1.00  0.00     0.189 HD
ENDBRANCH   4   6
ENDBRANCH   2   4
BRANCH   1  16
HETATM   16  C3  UNL     1      -2.335   7.999  14.470  1.00  0.00     0.065 A 
HETATM   17  C2  UNL     1      -2.675   6.667  14.448  1.00  0.00     0.124 A 
HETATM   18  N2  UNL     1      -3.488   6.171  15.426  1.00  0.00    -0.201 N 
HETATM   19  C1  UNL     1      -3.958   6.965  16.402  1.00  0.00     0.678 A 
ATOM     20  H2  UNL     1      -3.742   5.183  15.416  1.00  0.00     0.183 HD
HETATM   21  N8  UNL     1      -3.634   8.258  16.431  1.00  0.00    -0.156 N 
HETATM   22  C8  UNL     1      -2.823   8.803  15.477  1.00  0.00     0.272 A 
ATOM     23  H8  UNL     1      -3.997   8.850  17.177  1.00  0.00     0.187 HD
HETATM   24  O2  UNL     1      -2.535  10.034  15.534  1.00  0.00    -0.267 OA
BRANCH  19  25
HETATM   25  N1  UNL     1      -4.739   6.500  17.346  1.00  0.00    -0.234 N 
ATOM     26  H12 UNL     1      -5.405   5.766  17.103  1.00  0.00     0.174 HD
ATOM     27  H11 UNL     1      -4.692   6.856  18.301  1.00  0.00     0.174 HD
ENDBRANCH  19  25
ENDBRANCH   1  16
TORSDOF 4
ENDMDL
MODEL 2
REMARK VINA RESULT: -8.424447572      1.061      1.342
REMARK  4 active torsions:
REMARK  status: ('A' for Active; 'I' for Inactive)
REMARK    1  A    between atoms: N1_1  and  C1_4 
REMARK    2  A    between atoms: C3_8  and  C4_9 
REMARK    3  A    between atoms: N3_10  and  N4_12 
REMARK    4  A    between atoms: N4_12  and  C5_14 
ROOT
HETATM    1  C4  UNL     1      -1.701   8.837  13.242  1.00  0.00     0.126 C 
HETATM    2  N3  UNL     1      -1.974  10.021  12.808  1.00  0.00    -0.297 N 
ATOM      3  H3  UNL     1      -2.773  10.519  13.200  1.00  0.00     0.186 HD
ENDROOT
BRANCH   2   4
HETATM    4  N4  UNL     1      -1.212  10.640  11.821  1.00  0.00    -0.132 N 
ATOM      5  H4  UNL     1      -0.567  11.400  12.042  1.00  0.00     0.205 HD
BRANCH   4   6
HETATM    6  C5  UNL     1      -1.361  10.200  10.595  1.00  0.00     0.701 A 
HETATM    7  N5  UNL     1      -0.331   9.593   9.987  1.00  0.00    -0.186 N 
HETATM    8  C6  UNL     1      -0.484   9.147   8.739  1.00  0.00     0.202 A 
ATOM      9  H5  UNL     1       0.558   9.474  10.472  1.00  0.00     0.185 HD
HETATM   10  N6  UNL     1      -1.665   9.304   8.089  1.00  0.00    -0.304 N 
HETATM   11  C7  UNL     1      -2.694   9.912   8.702  1.00  0.00     0.339 A 
ATOM     12  H6  UNL     1      -1.772   8.959   7.135  1.00  0.00     0.171 HD
HETATM   13  O1  UNL     1      -3.788  10.048   8.078  1.00  0.00    -0.246 OA
HETATM   14  N7  UNL     1      -2.522  10.353   9.954  1.00  0.00    -0.140 N 
ATOM     15  H7  UNL     1      -3.296  10.818  10.430  1.00  0.00     0.189 HD
ENDBRANCH   4   6
ENDBRANCH   2   4
BRANCH   1  16
HETATM   16  C3  UNL     1      -2.522   8.226  14.273  1.00  0.00     0.065 A 
HETATM   17  C2  UNL     1      -2.975   6.934  14.140  1.00  0.00     0.124 A 
HETATM   18  N2  UNL     1      -3.744   6.394  15.131  1.00  0.00    -0.201 N 
HETATM   19  C1  UNL     1      -4.061   7.105  16.225  1.00  0.00     0.678 A 
ATOM     20  H2  UNL     1      -4.082   5.436  15.038  1.00  0.00     0.183 HD
HETATM   21  N8  UNL     1      -3.627   8.358  16.361  1.00  0.00    -0.156 N 
HETATM   22  C8  UNL     1      -2.854   8.945  15.401  1.00  0.00     0.272 A 
ATOM     23  H8  UNL     1      -3.875   8.887  17.196  1.00  0.00     0.187 HD
HETATM   24  O2  UNL     1      -2.458  10.136  15.562  1.00  0.00    -0.267 OA
BRANCH  19  25
HETATM   25  N1  UNL     1      -4.799   6.597  17.181  1.00  0.00    -0.234 N 
ATOM     26  H12 UNL     1      -4.353   6.381  18.072  1.00  0.00     0.174 HD
ATOM     27  H11 UNL     1      -5.795   6.418  17.048  1.00  0.00     0.174 HD
ENDBRANCH  19  25
ENDBRANCH   1  16
TORSDOF 4
ENDMDL
MODEL 3
REMARK VINA RESULT: -8.175188846      1.069      1.117
REMARK  4 active torsions:
REMARK  status: ('A' for Active; 'I' for Inactive)
REMARK    1  A    between atoms: N1_1  and  C1_4 
REMARK    2  A    between atoms: C3_8  and  C4_9 
REMARK    3  A    between atoms: N3_10  and  N4_12 
REMARK    4  A    between atoms: N4_12  and  C5_14 
ROOT
HETATM    1  C4  UNL     1      -1.944   9.506  13.698  1.00  0.00     0.126 C 
HETATM    2  N3  UNL     1      -1.298   9.392  12.586  1.00  0.00    -0.297 N 
ATOM      3  H3  UNL     1      -0.826   8.512  12.377  1.00  0.00     0.186 HD
ENDROOT
BRANCH   2   4
HETATM    4  N4  UNL     1      -1.227  10.431  11.664  1.00  0.00    -0.132 N 
ATOM      5  H4  UNL     1      -0.839  11.341  11.913  1.00  0.00     0.205 HD
BRANCH   4   6
HETATM    6  C5  UNL     1      -1.682  10.187  10.458  1.00  0.00     0.701 A 
HETATM    7  N5  UNL     1      -2.749   9.387  10.310  1.00  0.00    -0.186 N 
HETATM    8  C6  UNL     1      -3.210   9.140   9.084  1.00  0.00     0.202 A 
ATOM      9  H5  UNL     1      -3.201   8.973  11.126  1.00  0.00     0.185 HD
HETATM   10  N6  UNL     1      -2.612   9.687   7.996  1.00  0.00    -0.304 N 
HETATM   11  C7  UNL     1      -1.544  10.488   8.149  1.00  0.00     0.339 A 
ATOM     12  H6  UNL     1      -2.972   9.491   7.062  1.00  0.00     0.171 HD
HETATM   13  O1  UNL     1      -0.999  10.990   7.121  1.00  0.00    -0.246 OA
HETATM   14  N7  UNL     1      -1.095  10.725   9.387  1.00  0.00    -0.140 N 
ATOM     15  H7  UNL     1      -0.284  11.331   9.516  1.00  0.00     0.189 HD
ENDBRANCH   4   6
ENDBRANCH   2   4
BRANCH   1  16
HETATM   16  C3  UNL     1      -1.993   8.396  14.635  1.00  0.00     0.065 A 
HETATM   17  C2  UNL     1      -1.497   7.161  14.290  1.00  0.00     0.124 A 
HETATM   18  N2  UNL     1      -1.560   6.142  15.197  1.00  0.00    -0.201 N 
HETATM   19  C1  UNL     1      -2.099   6.332  16.413  1.00  0.00     0.678 A 
ATOM     20  H2  UNL     1      -1.193   5.224  14.948  1.00  0.00     0.183 HD
HETATM   21  N8  UNL     1      -2.583   7.527  16.754  1.00  0.00    -0.156 N 
HETATM   22  C8  UNL     1      -2.543   8.579  15.885  1.00  0.00     0.272 A 
ATOM     23  H8  UNL     1      -2.990   7.657  17.680  1.00  0.00     0.187 HD
HETATM   24  O2  UNL     1      -3.011   9.699  16.241  1.00  0.00    -0.267 OA
BRANCH  19  25
HETATM   25  N1  UNL     1      -2.166   5.361  17.290  1.00  0.00    -0.234 N 
ATOM     26  H12 UNL     1      -2.221   4.402  16.947  1.00  0.00     0.174 HD
ATOM     27  H11 UNL     1      -2.164   5.549  18.294  1.00  0.00     0.174 HD
ENDBRANCH  19  25
ENDBRANCH   1  16
TORSDOF 4
ENDMDL
MODEL 4
REMARK VINA RESULT: -8.158360045      1.155      1.600
REMARK  4 active torsions:
REMARK  status: ('A' for Active; 'I' for Inactive)
REMARK    1  A    between atoms: N1_1  and  C1_4 
REMARK    2  A    between atoms: C3_8  and  C4_9 
REMARK    3  A    between atoms: N3_10  and  N4_12 
REMARK    4  A    between atoms: N4_12  and  C5_14 
ROOT
HETATM    1  C4  UNL     1      -1.384   8.737  13.101  1.00  0.00     0.126 C 
HETATM    2  N3  UNL     1      -1.799   9.838  12.570  1.00  0.00    -0.297 N 
ATOM      3  H3  UNL     1      -2.635  10.284  12.947  1.00  0.00     0.186 HD
ENDROOT
BRANCH   2   4
HETATM    4  N4  UNL     1      -1.139  10.436  11.501  1.00  0.00    -0.132 N 
ATOM      5  H4  UNL     1      -0.292  10.989  11.637  1.00  0.00     0.205 HD
BRANCH   4   6
HETATM    6  C5  UNL     1      -1.657  10.257  10.310  1.00  0.00     0.701 A 
HETATM    7  N5  UNL     1      -2.858   9.670  10.199  1.00  0.00    -0.186 N 
HETATM    8  C6  UNL     1      -3.382   9.489   8.986  1.00  0.00     0.202 A 
ATOM      9  H5  UNL     1      -3.363   9.367  11.031  1.00  0.00     0.185 HD
HETATM   10  N6  UNL     1      -2.714   9.890   7.875  1.00  0.00    -0.304 N 
HETATM   11  C7  UNL     1      -1.511  10.477   7.991  1.00  0.00     0.339 A 
ATOM     12  H6  UNL     1      -3.124   9.746   6.953  1.00  0.00     0.171 HD
HETATM   13  O1  UNL     1      -0.903  10.844   6.943  1.00  0.00    -0.246 OA
HETATM   14  N7  UNL     1      -1.000  10.651   9.216  1.00  0.00    -0.140 N 
ATOM     15  H7  UNL     1      -0.087  11.095   9.317  1.00  0.00     0.189 HD
ENDBRANCH   4   6
ENDBRANCH   2   4
BRANCH   1  16
HETATM   16  C3  UNL     1      -2.103   8.144  14.216  1.00  0.00     0.065 A 
HETATM   17  C2  UNL     1      -2.495   8.911  15.288  1.00  0.00     0.124 A 
HETATM   18  N2  UNL     1      -3.169   8.320  16.318  1.00  0.00    -0.201 N 
HETATM   19  C1  UNL     1      -3.449   7.006  16.296  1.00  0.00     0.678 A 
ATOM     20  H2  UNL     1      -3.463   8.883  17.115  1.00  0.00     0.183 HD
HETATM   21  N8  UNL     1      -3.072   6.256  15.260  1.00  0.00    -0.156 N 
HETATM   22  C8  UNL     1      -2.397   6.799  14.205  1.00  0.00     0.272 A 
ATOM     23  H8  UNL     1      -3.291   5.260  15.256  1.00  0.00     0.187 HD
HETATM   24  O2  UNL     1      -2.054   6.058  13.238  1.00  0.00    -0.267 OA
BRANCH  19  25
HETATM   25  N1  UNL     1      -4.094   6.428  17.279  1.00  0.00    -0.234 N 
ATOM     26  H12 UNL     1      -4.935   6.881  17.638  1.00  0.00     0.174 HD
ATOM     27  H11 UNL     1      -3.773   5.547  17.682  1.00  0.00     0.174 HD
ENDBRANCH  19  25
ENDBRANCH   1  16
TORSDOF 4
ENDMDL
MODEL 5
REMARK VINA RESULT: -8.034800628      1.495      2.053
REMARK  4 active torsions:
REMARK  status: ('A' for Active; 'I' for Inactive)
REMARK    1  A    between atoms: N1_1  and  C1_4 
REMARK    2  A    between atoms: C3_8  and  C4_9 
REMARK    3  A    between atoms: N3_10  and  N4_12 
REMARK    4  A    between atoms: N4_12  and  C5_14 
ROOT
HETATM    1  C4  UNL     1      -1.514   8.754  13.229  1.00  0.00     0.126 C 
HETATM    2  N3  UNL     1      -1.782   9.936  12.785  1.00  0.00    -0.297 N 
ATOM      3  H3  UNL     1      -2.565  10.450  13.189  1.00  0.00     0.186 HD
ENDROOT
BRANCH   2   4
HETATM    4  N4  UNL     1      -1.036  10.530  11.771  1.00  0.00    -0.132 N 
ATOM      5  H4  UNL     1      -0.288  11.193  11.976  1.00  0.00     0.205 HD
BRANCH   4   6
HETATM    6  C5  UNL     1      -1.338  10.196  10.539  1.00  0.00     0.701 A 
HETATM    7  N5  UNL     1      -0.386   9.680   9.748  1.00  0.00    -0.186 N 
HETATM    8  C6  UNL     1      -0.695   9.341   8.495  1.00  0.00     0.202 A 
ATOM      9  H5  UNL     1       0.562   9.548  10.099  1.00  0.00     0.185 HD
HETATM   10  N6  UNL     1      -1.956   9.515   8.023  1.00  0.00    -0.304 N 
HETATM   11  C7  UNL     1      -2.906  10.033   8.819  1.00  0.00     0.339 A 
ATOM     12  H6  UNL     1      -2.182   9.253   7.063  1.00  0.00     0.171 HD
HETATM   13  O1  UNL     1      -4.076  10.186   8.360  1.00  0.00    -0.246 OA
HETATM   14  N7  UNL     1      -2.577  10.366  10.073  1.00  0.00    -0.140 N 
ATOM     15  H7  UNL     1      -3.290  10.760  10.687  1.00  0.00     0.189 HD
ENDBRANCH   4   6
ENDBRANCH   2   4
BRANCH   1  16
HETATM   16  C3  UNL     1      -2.319   8.170  14.289  1.00  0.00     0.065 A 
HETATM   17  C2  UNL     1      -2.752   8.934  15.347  1.00  0.00     0.124 A 
HETATM   18  N2  UNL     1      -3.507   8.350  16.324  1.00  0.00    -0.201 N 
HETATM   19  C1  UNL     1      -3.827   7.047  16.263  1.00  0.00     0.678 A 
ATOM     20  H2  UNL     1      -3.833   8.912  17.110  1.00  0.00     0.183 HD
HETATM   21  N8  UNL     1      -3.410   6.299  15.241  1.00  0.00    -0.156 N 
HETATM   22  C8  UNL     1      -2.654   6.835  14.238  1.00  0.00     0.272 A 
ATOM     23  H8  UNL     1      -3.660   5.311  15.207  1.00  0.00     0.187 HD
HETATM   24  O2  UNL     1      -2.276   6.097  13.282  1.00  0.00    -0.267 OA
BRANCH  19  25
HETATM   25  N1  UNL     1      -4.550   6.476  17.195  1.00  0.00    -0.234 N 
ATOM     26  H12 UNL     1      -4.971   7.069  17.911  1.00  0.00     0.174 HD
ATOM     27  H11 UNL     1      -4.696   5.466  17.213  1.00  0.00     0.174 HD
ENDBRANCH  19  25
ENDBRANCH   1  16
TORSDOF 4
ENDMDL
