MODEL 1
REMARK VINA RESULT: -6.368224760      0.000      0.000
REMARK  2 active torsions:
REMARK  status: ('A' for Active; 'I' for Inactive)
REMARK    1  A    between atoms: C3_9  and  N3_10 
REMARK    2  A    between atoms: N3_10  and  O3_12 
ROOT
HETATM    1  O1  UNL     1      -3.606   9.991   8.267  1.00  0.00    -0.246 OA
HETATM    2  C1  UNL     1      -2.440  10.052   8.715  1.00  0.00     0.342 A 
HETATM    3  N1  UNL     1      -1.792   8.917   9.087  1.00  0.00    -0.260 N 
ATOM      4  H1  UNL     1      -2.255   8.011   9.001  1.00  0.00     0.175 HD
HETATM    5  C2  UNL     1      -0.542   8.994   9.567  1.00  0.00     0.342 A 
HETATM    6  O2  UNL     1       0.010   7.907   9.897  1.00  0.00    -0.246 OA
HETATM    7  N2  UNL     1       0.089  10.167   9.689  1.00  0.00    -0.139 N 
ATOM      8  H2  UNL     1       1.040  10.201  10.056  1.00  0.00     0.189 HD
HETATM    9  C3  UNL     1      -0.529  11.285   9.331  1.00  0.00     0.710 A 
HETATM   10  N4  UNL     1      -1.770  11.207   8.855  1.00  0.00    -0.139 N 
ATOM     11  H4  UNL     1      -2.238  12.072   8.582  1.00  0.00     0.189 HD
ENDROOT
BRANCH   9  12
HETATM   12  N3  UNL     1       0.116  12.395   9.465  1.00  0.00    -0.098 N 
ATOM     13  H3  UNL     1       0.165  13.032   8.670  1.00  0.00     0.213 HD
BRANCH  12  14
HETATM   14  O3  UNL     1       0.738  12.752  10.632  1.00  0.00    -0.276 OA
ATOM     15  H3  UNL     1       0.746  13.645  10.957  1.00  0.00     0.245 HD
ENDBRANCH  12  14
ENDBRANCH   9  12
TORSDOF 2
ENDMDL
MODEL 2
REMARK VINA RESULT: -6.366418288      0.136      2.478
REMARK  2 active torsions:
REMARK  status: ('A' for Active; 'I' for Inactive)
REMARK    1  A    between atoms: C3_9  and  N3_10 
REMARK    2  A    between atoms: N3_10  and  O3_12 
ROOT
HETATM    1  O1  UNL     1      -0.074   7.798   9.742  1.00  0.00    -0.246 OA
HETATM    2  C1  UNL     1      -0.616   8.898   9.495  1.00  0.00     0.342 A 
HETATM    3  N1  UNL     1      -1.910   8.943   9.082  1.00  0.00    -0.260 N 
ATOM      4  H1  UNL     1      -2.443   8.080   8.972  1.00  0.00     0.175 HD
HETATM    5  C2  UNL     1      -2.481  10.128   8.819  1.00  0.00     0.342 A 
HETATM    6  O2  UNL     1      -3.685  10.108   8.438  1.00  0.00    -0.246 OA
HETATM    7  N2  UNL     1      -1.807  11.275   8.955  1.00  0.00    -0.139 N 
ATOM      8  H2  UNL     1      -2.262  12.164   8.751  1.00  0.00     0.189 HD
HETATM    9  C3  UNL     1      -0.542  11.249   9.358  1.00  0.00     0.710 A 
HETATM   10  N4  UNL     1       0.024  10.072   9.618  1.00  0.00    -0.139 N 
ATOM     11  H4  UNL     1       0.996  10.062   9.927  1.00  0.00     0.189 HD
ENDROOT
BRANCH   9  12
HETATM   12  N3  UNL     1       0.071  12.379   9.477  1.00  0.00    -0.098 N 
ATOM     13  H3  UNL     1       0.049  13.032   8.694  1.00  0.00     0.213 HD
BRANCH  12  14
HETATM   14  O3  UNL     1       0.750  12.736  10.612  1.00  0.00    -0.276 OA
ATOM     15  H3  UNL     1       1.555  12.309  10.883  1.00  0.00     0.245 HD
ENDBRANCH  12  14
ENDBRANCH   9  12
TORSDOF 2
ENDMDL
MODEL 3
REMARK VINA RESULT: -6.120308575      1.057      3.825
REMARK  2 active torsions:
REMARK  status: ('A' for Active; 'I' for Inactive)
REMARK    1  A    between atoms: C3_9  and  N3_10 
REMARK    2  A    between atoms: N3_10  and  O3_12 
ROOT
HETATM    1  O1  UNL     1       0.840  12.261   9.924  1.00  0.00    -0.246 OA
HETATM    2  C1  UNL     1       0.098  11.311   9.588  1.00  0.00     0.342 A 
HETATM    3  N1  UNL     1      -1.204  11.541   9.275  1.00  0.00    -0.260 N 
ATOM      4  H1  UNL     1      -1.581  12.489   9.312  1.00  0.00     0.175 HD
HETATM    5  C2  UNL     1      -1.990  10.515   8.916  1.00  0.00     0.342 A 
HETATM    6  O2  UNL     1      -3.191  10.789   8.636  1.00  0.00    -0.246 OA
HETATM    7  N2  UNL     1      -1.523   9.263   8.857  1.00  0.00    -0.139 N 
ATOM      8  H2  UNL     1      -2.139   8.499   8.580  1.00  0.00     0.189 HD
HETATM    9  C3  UNL     1      -0.254   9.021   9.159  1.00  0.00     0.710 A 
HETATM   10  N4  UNL     1       0.525  10.040   9.516  1.00  0.00    -0.139 N 
ATOM     11  H4  UNL     1       1.500   9.845   9.747  1.00  0.00     0.189 HD
ENDROOT
BRANCH   9  12
HETATM   12  N3  UNL     1       0.156   7.799   9.089  1.00  0.00    -0.098 N 
ATOM     13  H3  UNL     1       1.131   7.623   8.846  1.00  0.00     0.213 HD
BRANCH  12  14
HETATM   14  O3  UNL     1      -0.666   6.729   9.327  1.00  0.00    -0.276 OA
ATOM     15  H3  UNL     1      -1.614   6.795   9.301  1.00  0.00     0.245 HD
ENDBRANCH  12  14
ENDBRANCH   9  12
TORSDOF 2
ENDMDL
MODEL 4
REMARK VINA RESULT: -6.079543281      1.706      3.403
REMARK  2 active torsions:
REMARK  status: ('A' for Active; 'I' for Inactive)
REMARK    1  A    between atoms: C3_9  and  N3_10 
REMARK    2  A    between atoms: N3_10  and  O3_12 
ROOT
HETATM    1  O1  UNL     1       0.833  11.696   8.349  1.00  0.00    -0.246 OA
HETATM    2  C1  UNL     1      -0.089  11.052   8.896  1.00  0.00     0.342 A 
HETATM    3  N1  UNL     1      -1.343  11.081   8.375  1.00  0.00    -0.260 N 
ATOM      4  H1  UNL     1      -1.537  11.627   7.535  1.00  0.00     0.175 HD
HETATM    5  C2  UNL     1      -2.325  10.387   8.970  1.00  0.00     0.342 A 
HETATM    6  O2  UNL     1      -3.470  10.451   8.441  1.00  0.00    -0.246 OA
HETATM    7  N2  UNL     1      -2.100   9.661  10.071  1.00  0.00    -0.139 N 
ATOM      8  H2  UNL     1      -2.861   9.140  10.506  1.00  0.00     0.189 HD
HETATM    9  C3  UNL     1      -0.880   9.622  10.594  1.00  0.00     0.710 A 
HETATM   10  N4  UNL     1       0.093  10.312  10.002  1.00  0.00    -0.139 N 
ATOM     11  H4  UNL     1       1.027  10.276  10.410  1.00  0.00     0.189 HD
ENDROOT
BRANCH   9  12
HETATM   12  N3  UNL     1      -0.707   8.909  11.656  1.00  0.00    -0.098 N 
ATOM     13  H3  UNL     1      -0.049   8.130  11.621  1.00  0.00     0.213 HD
BRANCH  12  14
HETATM   14  O3  UNL     1      -1.370   9.157  12.829  1.00  0.00    -0.276 OA
ATOM     15  H3  UNL     1      -1.310   8.582  13.583  1.00  0.00     0.245 HD
ENDBRANCH  12  14
ENDBRANCH   9  12
TORSDOF 2
ENDMDL
MODEL 5
REMARK VINA RESULT: -6.074851156      1.701      2.739
REMARK  2 active torsions:
REMARK  status: ('A' for Active; 'I' for Inactive)
REMARK    1  A    between atoms: C3_9  and  N3_10 
REMARK    2  A    between atoms: N3_10  and  O3_12 
ROOT
HETATM    1  O1  UNL     1      -3.524  10.419   8.372  1.00  0.00    -0.246 OA
HETATM    2  C1  UNL     1      -2.386  10.373   8.889  1.00  0.00     0.342 A 
HETATM    3  N1  UNL     1      -1.349  11.036   8.314  1.00  0.00    -0.260 N 
ATOM      4  H1  UNL     1      -1.495  11.574   7.459  1.00  0.00     0.175 HD
HETATM    5  C2  UNL     1      -0.132  10.979   8.877  1.00  0.00     0.342 A 
HETATM    6  O2  UNL     1       0.793  11.615   8.299  1.00  0.00    -0.246 OA
HETATM    7  N2  UNL     1       0.088  10.283   9.997  1.00  0.00    -0.139 N 
ATOM      8  H2  UNL     1       1.021  10.255  10.408  1.00  0.00     0.189 HD
HETATM    9  C3  UNL     1      -0.914   9.629  10.572  1.00  0.00     0.710 A 
HETATM   10  N4  UNL     1      -2.121   9.686  10.012  1.00  0.00    -0.139 N 
ATOM     11  H4  UNL     1      -2.885   9.181  10.460  1.00  0.00     0.189 HD
ENDROOT
BRANCH   9  12
HETATM   12  N3  UNL     1      -0.658   8.971  11.652  1.00  0.00    -0.098 N 
ATOM     13  H3  UNL     1       0.124   8.315  11.652  1.00  0.00     0.213 HD
BRANCH  12  14
HETATM   14  O3  UNL     1      -1.393   9.116  12.799  1.00  0.00    -0.276 OA
ATOM     15  H3  UNL     1      -1.428   8.448  13.473  1.00  0.00     0.245 HD
ENDBRANCH  12  14
ENDBRANCH   9  12
TORSDOF 2
ENDMDL
