MODEL 1
REMARK VINA RESULT: -9.182762305      0.000      0.000
REMARK  7 active torsions:
REMARK  status: ('A' for Active; 'I' for Inactive)
REMARK    1  A    between atoms: C6_10  and  N3_11 
REMARK    2  A    between atoms: N4_14  and  C9_15 
REMARK    3  A    between atoms: C9_15  and  C10_16 
REMARK    4  A    between atoms: C10_16  and  O1_17 
REMARK    5  A    between atoms: C10_16  and  C11_19 
REMARK    6  A    between atoms: C11_19  and  N5_20 
REMARK    7  A    between atoms: N6_24  and  C15_25 
ROOT
HETATM    1  N1  UNL     1       6.104   7.522  24.655  1.00  0.00    -0.191 NA
HETATM    2  C1  UNL     1       7.233   7.843  24.585  1.00  0.00     0.103 C 
HETATM    3  C2  UNL     1       8.610   8.234  24.533  1.00  0.00     0.089 A 
HETATM    4  C3  UNL     1       9.432   7.996  25.640  1.00  0.00     0.047 A 
HETATM    5  C4  UNL     1      10.759   8.361  25.639  1.00  0.00     0.028 A 
HETATM    6 BR1  UNL     1      11.883   8.025  27.141  1.00  0.00    -0.050 Br
HETATM    7  C5  UNL     1      11.233   8.975  24.483  1.00  0.00     0.108 A 
HETATM    8  N2  UNL     1      10.456   9.207  23.419  1.00  0.00    -0.350 N 
ATOM      9  H2  UNL     1      10.854   9.661  22.596  1.00  0.00     0.166 HD
HETATM   10  C6  UNL     1       9.135   8.845  23.416  1.00  0.00     0.124 A 
ENDROOT
BRANCH  10  11
HETATM   11  N3  UNL     1       8.323   9.064  22.284  1.00  0.00    -0.363 N 
HETATM   12  C7  UNL     1       7.457  10.218  22.127  1.00  0.00     0.154 C 
HETATM   13  C8  UNL     1       6.055   9.802  21.854  1.00  0.00     0.292 C 
HETATM   14  N4  UNL     1       5.849   8.598  21.113  1.00  0.00     0.094 N 
HETATM   15  C23 UNL     1       6.864   7.637  21.056  1.00  0.00     0.292 C 
HETATM   16  C24 UNL     1       8.280   8.133  21.200  1.00  0.00     0.154 C 
BRANCH  14  17
HETATM   17  C9  UNL     1       4.652   7.994  21.721  1.00  0.00     0.305 C 
BRANCH  17  18
HETATM   18  C10 UNL     1       3.784   7.219  20.769  1.00  0.00     0.174 C 
BRANCH  18  19
HETATM   19  O1  UNL     1       2.695   7.958  20.382  1.00  0.00    -0.392 OA
ATOM     20  H1  UNL     1       2.833   8.347  19.526  1.00  0.00     0.210 HD
ENDBRANCH  18  19
BRANCH  18  21
HETATM   21  C11 UNL     1       3.490   5.891  21.364  1.00  0.00     0.305 C 
BRANCH  21  22
HETATM   22  N5  UNL     1       4.083   4.721  20.818  1.00  0.00     0.092 N 
HETATM   23  C12 UNL     1       4.906   4.160  21.879  1.00  0.00     0.274 C 
HETATM   24  C13 UNL     1       5.194   2.721  21.749  1.00  0.00     0.060 C 
HETATM   25  C14 UNL     1       6.290   2.322  20.820  1.00  0.00     0.275 C 
HETATM   26  N6  UNL     1       6.112   2.832  19.459  1.00  0.00     0.094 N 
HETATM   27  C21 UNL     1       6.098   4.318  19.546  1.00  0.00     0.303 C 
HETATM   28  C22 UNL     1       4.697   4.862  19.555  1.00  0.00     0.302 C 
BRANCH  26  29
HETATM   29  C15 UNL     1       7.300   2.479  18.704  1.00  0.00     0.223 C 
HETATM   30  C16 UNL     1       8.018   3.728  18.253  1.00  0.00     0.036 C 
HETATM   31  C17 UNL     1       9.405   3.574  17.796  1.00  0.00     0.002 C 
HETATM   32  C18 UNL     1      10.147   2.337  18.089  1.00  0.00     0.000 C 
HETATM   33  C19 UNL     1       9.373   1.268  18.807  1.00  0.00     0.002 C 
HETATM   34  C20 UNL     1       8.294   1.849  19.693  1.00  0.00     0.036 C 
ENDBRANCH  26  29
ENDBRANCH  21  22
ENDBRANCH  18  21
ENDBRANCH  17  18
ENDBRANCH  14  17
ENDBRANCH  10  11
TORSDOF 7
ENDMDL
MODEL 2
REMARK VINA RESULT: -8.568752121      1.266      2.111
REMARK  7 active torsions:
REMARK  status: ('A' for Active; 'I' for Inactive)
REMARK    1  A    between atoms: C6_10  and  N3_11 
REMARK    2  A    between atoms: N4_14  and  C9_15 
REMARK    3  A    between atoms: C9_15  and  C10_16 
REMARK    4  A    between atoms: C10_16  and  O1_17 
REMARK    5  A    between atoms: C10_16  and  C11_19 
REMARK    6  A    between atoms: C11_19  and  N5_20 
REMARK    7  A    between atoms: N6_24  and  C15_25 
ROOT
HETATM    1  N1  UNL     1       9.323  10.208  20.538  1.00  0.00    -0.191 NA
HETATM    2  C1  UNL     1       9.012   9.673  21.538  1.00  0.00     0.103 C 
HETATM    3  C2  UNL     1       8.664   9.017  22.762  1.00  0.00     0.089 A 
HETATM    4  C3  UNL     1       9.610   8.936  23.789  1.00  0.00     0.047 A 
HETATM    5  C4  UNL     1       9.324   8.309  24.980  1.00  0.00     0.028 A 
HETATM    6 BR1  UNL     1      10.609   8.211  26.385  1.00  0.00    -0.050 Br
HETATM    7  C5  UNL     1       8.050   7.765  25.104  1.00  0.00     0.108 A 
HETATM    8  N2  UNL     1       7.136   7.836  24.129  1.00  0.00    -0.350 N 
ATOM      9  H2  UNL     1       6.216   7.419  24.273  1.00  0.00     0.166 HD
HETATM   10  C6  UNL     1       7.418   8.460  22.943  1.00  0.00     0.124 A 
ENDROOT
BRANCH  10  11
HETATM   11  N3  UNL     1       6.445   8.560  21.926  1.00  0.00    -0.363 N 
HETATM   12  C7  UNL     1       5.320   9.475  21.978  1.00  0.00     0.154 C 
HETATM   13  C8  UNL     1       4.032   8.750  21.804  1.00  0.00     0.292 C 
HETATM   14  N4  UNL     1       4.026   7.593  20.965  1.00  0.00     0.094 N 
HETATM   15  C23 UNL     1       5.223   6.918  20.708  1.00  0.00     0.292 C 
HETATM   16  C24 UNL     1       6.490   7.734  20.760  1.00  0.00     0.154 C 
BRANCH  14  17
HETATM   17  C9  UNL     1       3.087   6.670  21.624  1.00  0.00     0.305 C 
BRANCH  17  18
HETATM   18  C10 UNL     1       2.509   5.612  20.726  1.00  0.00     0.174 C 
BRANCH  18  19
HETATM   19  O1  UNL     1       1.238   5.944  20.330  1.00  0.00    -0.392 OA
ATOM     20  H1  UNL     1       0.880   5.285  19.745  1.00  0.00     0.210 HD
ENDBRANCH  18  19
BRANCH  18  21
HETATM   21  C11 UNL     1       2.661   4.290  21.384  1.00  0.00     0.305 C 
BRANCH  21  22
HETATM   22  N5  UNL     1       3.673   3.393  20.949  1.00  0.00     0.092 N 
HETATM   23  C12 UNL     1       4.734   3.478  21.942  1.00  0.00     0.274 C 
HETATM   24  C13 UNL     1       5.623   2.306  22.005  1.00  0.00     0.060 C 
HETATM   25  C14 UNL     1       6.713   2.215  20.991  1.00  0.00     0.275 C 
HETATM   26  N6  UNL     1       6.229   2.292  19.611  1.00  0.00     0.094 N 
HETATM   27  C21 UNL     1       5.559   3.612  19.455  1.00  0.00     0.303 C 
HETATM   28  C22 UNL     1       4.067   3.500  19.598  1.00  0.00     0.302 C 
BRANCH  26  29
HETATM   29  C15 UNL     1       7.392   2.319  18.744  1.00  0.00     0.223 C 
HETATM   30  C16 UNL     1       7.945   3.722  18.662  1.00  0.00     0.036 C 
HETATM   31  C17 UNL     1       9.305   3.874  18.131  1.00  0.00     0.002 C 
HETATM   32  C18 UNL     1      10.189   2.703  18.016  1.00  0.00     0.000 C 
HETATM   33  C19 UNL     1       9.581   1.387  18.408  1.00  0.00     0.002 C 
HETATM   34  C20 UNL     1       8.512   1.551  19.464  1.00  0.00     0.036 C 
ENDBRANCH  26  29
ENDBRANCH  21  22
ENDBRANCH  18  21
ENDBRANCH  17  18
ENDBRANCH  14  17
ENDBRANCH  10  11
TORSDOF 7
ENDMDL
MODEL 3
REMARK VINA RESULT: -8.182213204      1.105      1.781
REMARK  7 active torsions:
REMARK  status: ('A' for Active; 'I' for Inactive)
REMARK    1  A    between atoms: C6_10  and  N3_11 
REMARK    2  A    between atoms: N4_14  and  C9_15 
REMARK    3  A    between atoms: C9_15  and  C10_16 
REMARK    4  A    between atoms: C10_16  and  O1_17 
REMARK    5  A    between atoms: C10_16  and  C11_19 
REMARK    6  A    between atoms: C11_19  and  N5_20 
REMARK    7  A    between atoms: N6_24  and  C15_25 
ROOT
HETATM    1  N1  UNL     1       6.369   7.565  24.658  1.00  0.00    -0.191 NA
HETATM    2  C1  UNL     1       7.504   7.870  24.659  1.00  0.00     0.103 C 
HETATM    3  C2  UNL     1       8.887   8.241  24.693  1.00  0.00     0.089 A 
HETATM    4  C3  UNL     1       9.655   7.918  25.816  1.00  0.00     0.047 A 
HETATM    5  C4  UNL     1      10.986   8.260  25.897  1.00  0.00     0.028 A 
HETATM    6 BR1  UNL     1      12.037   7.808  27.421  1.00  0.00    -0.050 Br
HETATM    7  C5  UNL     1      11.519   8.941  24.807  1.00  0.00     0.108 A 
HETATM    8  N2  UNL     1      10.794   9.255  23.727  1.00  0.00    -0.350 N 
ATOM      9  H2  UNL     1      11.235   9.755  22.955  1.00  0.00     0.166 HD
HETATM   10  C6  UNL     1       9.470   8.915  23.643  1.00  0.00     0.124 A 
ENDROOT
BRANCH  10  11
HETATM   11  N3  UNL     1       8.713   9.222  22.493  1.00  0.00    -0.363 N 
HETATM   12  C7  UNL     1       7.744  10.301  22.433  1.00  0.00     0.154 C 
HETATM   13  C8  UNL     1       6.411   9.801  21.997  1.00  0.00     0.292 C 
HETATM   14  N4  UNL     1       6.378   8.704  21.081  1.00  0.00     0.094 N 
HETATM   15  C23 UNL     1       7.488   7.861  20.970  1.00  0.00     0.292 C 
HETATM   16  C24 UNL     1       8.834   8.460  21.290  1.00  0.00     0.154 C 
BRANCH  14  17
HETATM   17  C9  UNL     1       5.213   7.910  21.506  1.00  0.00     0.305 C 
BRANCH  17  18
HETATM   18  C10 UNL     1       4.213   7.628  20.419  1.00  0.00     0.174 C 
BRANCH  18  19
HETATM   19  O1  UNL     1       2.970   8.097  20.759  1.00  0.00    -0.392 OA
ATOM     20  H1  UNL     1       2.693   7.752  21.600  1.00  0.00     0.210 HD
ENDBRANCH  18  19
BRANCH  18  21
HETATM   21  C11 UNL     1       4.290   6.189  20.062  1.00  0.00     0.305 C 
BRANCH  21  22
HETATM   22  N5  UNL     1       5.549   5.588  19.798  1.00  0.00     0.092 N 
HETATM   23  C12 UNL     1       5.800   5.796  18.379  1.00  0.00     0.274 C 
HETATM   24  C13 UNL     1       7.218   5.739  17.983  1.00  0.00     0.060 C 
HETATM   25  C14 UNL     1       7.823   4.390  17.793  1.00  0.00     0.275 C 
HETATM   26  N6  UNL     1       7.687   3.522  18.964  1.00  0.00     0.094 N 
HETATM   27  C21 UNL     1       6.230   3.344  19.211  1.00  0.00     0.303 C 
HETATM   28  C22 UNL     1       5.729   4.273  20.281  1.00  0.00     0.302 C 
BRANCH  26  29
HETATM   29  C15 UNL     1       8.201   2.215  18.598  1.00  0.00     0.223 C 
HETATM   30  C16 UNL     1       7.781   1.869  17.189  1.00  0.00     0.036 C 
HETATM   31  C17 UNL     1       8.495   0.767  16.531  1.00  0.00     0.002 C 
HETATM   32  C18 UNL     1       9.764   0.271  17.087  1.00  0.00     0.000 C 
HETATM   33  C19 UNL     1      10.210   0.917  18.367  1.00  0.00     0.002 C 
HETATM   34  C20 UNL     1       9.728   2.346  18.479  1.00  0.00     0.036 C 
ENDBRANCH  26  29
ENDBRANCH  21  22
ENDBRANCH  18  21
ENDBRANCH  17  18
ENDBRANCH  14  17
ENDBRANCH  10  11
TORSDOF 7
ENDMDL
MODEL 4
REMARK VINA RESULT: -8.158839308      2.790      7.297
REMARK  7 active torsions:
REMARK  status: ('A' for Active; 'I' for Inactive)
REMARK    1  A    between atoms: C6_10  and  N3_11 
REMARK    2  A    between atoms: N4_14  and  C9_15 
REMARK    3  A    between atoms: C9_15  and  C10_16 
REMARK    4  A    between atoms: C10_16  and  O1_17 
REMARK    5  A    between atoms: C10_16  and  C11_19 
REMARK    6  A    between atoms: C11_19  and  N5_20 
REMARK    7  A    between atoms: N6_24  and  C15_25 
ROOT
HETATM    1  N1  UNL     1       6.450   2.489  21.243  1.00  0.00    -0.191 NA
HETATM    2  C1  UNL     1       7.241   2.474  20.373  1.00  0.00     0.103 C 
HETATM    3  C2  UNL     1       8.221   2.431  19.330  1.00  0.00     0.089 A 
HETATM    4  C3  UNL     1       8.997   1.279  19.166  1.00  0.00     0.047 A 
HETATM    5  C4  UNL     1       9.956   1.194  18.182  1.00  0.00     0.028 A 
HETATM    6 BR1  UNL     1      11.005  -0.380  17.950  1.00  0.00    -0.050 Br
HETATM    7  C5  UNL     1      10.108   2.311  17.366  1.00  0.00     0.108 A 
HETATM    8  N2  UNL     1       9.371   3.418  17.513  1.00  0.00    -0.350 N 
ATOM      9  H2  UNL     1       9.523   4.209  16.887  1.00  0.00     0.166 HD
HETATM   10  C6  UNL     1       8.415   3.506  18.491  1.00  0.00     0.124 A 
ENDROOT
BRANCH  10  11
HETATM   11  N3  UNL     1       7.619   4.662  18.628  1.00  0.00    -0.363 N 
HETATM   12  C7  UNL     1       7.858   5.688  19.626  1.00  0.00     0.154 C 
HETATM   13  C8  UNL     1       6.642   5.926  20.451  1.00  0.00     0.292 C 
HETATM   14  N4  UNL     1       5.369   5.766  19.822  1.00  0.00     0.094 N 
HETATM   15  C23 UNL     1       5.260   4.989  18.664  1.00  0.00     0.292 C 
HETATM   16  C24 UNL     1       6.485   4.896  17.790  1.00  0.00     0.154 C 
BRANCH  14  17
HETATM   17  C9  UNL     1       4.515   5.184  20.871  1.00  0.00     0.305 C 
BRANCH  17  18
HETATM   18  C10 UNL     1       4.951   5.485  22.278  1.00  0.00     0.174 C 
BRANCH  18  19
HETATM   19  O1  UNL     1       4.678   4.433  23.114  1.00  0.00    -0.392 OA
ATOM     20  H1  UNL     1       4.471   3.648  22.620  1.00  0.00     0.210 HD
ENDBRANCH  18  19
BRANCH  18  21
HETATM   21  C11 UNL     1       4.391   6.800  22.681  1.00  0.00     0.305 C 
BRANCH  21  22
HETATM   22  N5  UNL     1       5.237   7.790  23.247  1.00  0.00     0.092 N 
HETATM   23  C12 UNL     1       5.984   8.359  22.135  1.00  0.00     0.274 C 
HETATM   24  C13 UNL     1       6.518   9.711  22.371  1.00  0.00     0.060 C 
HETATM   25  C14 UNL     1       7.784   9.823  23.151  1.00  0.00     0.275 C 
HETATM   26  N6  UNL     1       7.718   9.171  24.461  1.00  0.00     0.094 N 
HETATM   27  C21 UNL     1       7.449   7.727  24.219  1.00  0.00     0.303 C 
HETATM   28  C22 UNL     1       5.991   7.398  24.375  1.00  0.00     0.302 C 
BRANCH  26  29
HETATM   29  C15 UNL     1       9.041   9.247  25.050  1.00  0.00     0.223 C 
HETATM   30  C16 UNL     1       9.225   8.134  26.055  1.00  0.00     0.036 C 
HETATM   31  C17 UNL     1      10.599   7.839  26.480  1.00  0.00     0.002 C 
HETATM   32  C18 UNL     1      11.740   8.364  25.712  1.00  0.00     0.000 C 
HETATM   33  C19 UNL     1      11.391   9.244  24.547  1.00  0.00     0.002 C 
HETATM   34  C20 UNL     1      10.050   8.885  23.949  1.00  0.00     0.036 C 
ENDBRANCH  26  29
ENDBRANCH  21  22
ENDBRANCH  18  21
ENDBRANCH  17  18
ENDBRANCH  14  17
ENDBRANCH  10  11
TORSDOF 7
ENDMDL
MODEL 5
REMARK VINA RESULT: -8.140896514      2.423      7.303
REMARK  7 active torsions:
REMARK  status: ('A' for Active; 'I' for Inactive)
REMARK    1  A    between atoms: C6_10  and  N3_11 
REMARK    2  A    between atoms: N4_14  and  C9_15 
REMARK    3  A    between atoms: C9_15  and  C10_16 
REMARK    4  A    between atoms: C10_16  and  O1_17 
REMARK    5  A    between atoms: C10_16  and  C11_19 
REMARK    6  A    between atoms: C11_19  and  N5_20 
REMARK    7  A    between atoms: N6_24  and  C15_25 
ROOT
HETATM    1  N1  UNL     1       6.398   7.133  19.979  1.00  0.00    -0.191 NA
HETATM    2  C1  UNL     1       6.652   5.992  19.853  1.00  0.00     0.103 C 
HETATM    3  C2  UNL     1       6.982   4.610  19.675  1.00  0.00     0.089 A 
HETATM    4  C3  UNL     1       8.188   4.268  19.054  1.00  0.00     0.047 A 
HETATM    5  C4  UNL     1       8.545   2.954  18.855  1.00  0.00     0.028 A 
HETATM    6 BR1  UNL     1      10.193   2.487  18.022  1.00  0.00    -0.050 Br
HETATM    7  C5  UNL     1       7.644   1.992  19.303  1.00  0.00     0.108 A 
HETATM    8  N2  UNL     1       6.488   2.307  19.898  1.00  0.00    -0.350 N 
ATOM      9  H2  UNL     1       5.863   1.562  20.208  1.00  0.00     0.166 HD
HETATM   10  C6  UNL     1       6.130   3.614  20.099  1.00  0.00     0.124 A 
ENDROOT
BRANCH  10  11
HETATM   11  N3  UNL     1       4.925   3.946  20.752  1.00  0.00    -0.363 N 
HETATM   12  C7  UNL     1       3.702   4.293  20.052  1.00  0.00     0.154 C 
HETATM   13  C8  UNL     1       3.183   5.613  20.502  1.00  0.00     0.292 C 
HETATM   14  N4  UNL     1       3.407   5.989  21.862  1.00  0.00     0.094 N 
HETATM   15  C23 UNL     1       4.438   5.384  22.587  1.00  0.00     0.292 C 
HETATM   16  C24 UNL     1       4.830   3.987  22.177  1.00  0.00     0.154 C 
BRANCH  14  17
HETATM   17  C9  UNL     1       3.651   7.440  21.804  1.00  0.00     0.305 C 
BRANCH  17  18
HETATM   18  C10 UNL     1       3.913   8.088  23.135  1.00  0.00     0.174 C 
BRANCH  18  19
HETATM   19  O1  UNL     1       2.756   8.207  23.862  1.00  0.00    -0.392 OA
ATOM     20  H1  UNL     1       2.583   9.116  24.082  1.00  0.00     0.210 HD
ENDBRANCH  18  19
BRANCH  18  21
HETATM   21  C11 UNL     1       4.675   9.344  22.914  1.00  0.00     0.305 C 
BRANCH  21  22
HETATM   22  N5  UNL     1       5.938   9.527  23.535  1.00  0.00     0.092 N 
HETATM   23  C12 UNL     1       6.917   9.519  22.457  1.00  0.00     0.274 C 
HETATM   24  C13 UNL     1       8.189  10.193  22.767  1.00  0.00     0.060 C 
HETATM   25  C14 UNL     1       9.197   9.429  23.557  1.00  0.00     0.275 C 
HETATM   26  N6  UNL     1       8.676   8.926  24.829  1.00  0.00     0.094 N 
HETATM   27  C21 UNL     1       7.548   8.010  24.510  1.00  0.00     0.303 C 
HETATM   28  C22 UNL     1       6.218   8.698  24.643  1.00  0.00     0.302 C 
BRANCH  26  29
HETATM   29  C15 UNL     1       9.712   8.104  25.427  1.00  0.00     0.223 C 
HETATM   30  C16 UNL     1      11.036   8.829  25.388  1.00  0.00     0.036 C 
HETATM   31  C17 UNL     1      12.105   8.315  26.254  1.00  0.00     0.002 C 
HETATM   32  C18 UNL     1      11.789   7.371  27.338  1.00  0.00     0.000 C 
HETATM   33  C19 UNL     1      10.352   6.947  27.434  1.00  0.00     0.002 C 
HETATM   34  C20 UNL     1       9.411   8.019  26.932  1.00  0.00     0.036 C 
ENDBRANCH  26  29
ENDBRANCH  21  22
ENDBRANCH  18  21
ENDBRANCH  17  18
ENDBRANCH  14  17
ENDBRANCH  10  11
TORSDOF 7
ENDMDL
