MODEL 1
REMARK VINA RESULT: -6.491114847      0.000      0.000
REMARK  12 active torsions:
REMARK  status: ('A' for Active; 'I' for Inactive)
REMARK    1  A    between atoms: N2_8  and  C5_10 
REMARK    2  A    between atoms: C5_10  and  C6_11 
REMARK    3  A    between atoms: N3_14  and  C8_16 
REMARK    4  A    between atoms: C8_16  and  C9_17 
REMARK    5  A    between atoms: C9_17  and  N4_18 
REMARK    6  A    between atoms: C9_17  and  C10_22 
REMARK    7  A    between atoms: C12_30  and  C13_31 
REMARK    8  A    between atoms: C13_31  and  C15_33 
REMARK    9  A    between atoms: C13_31  and  C16_36 
REMARK   10  A    between atoms: C15_33  and  O6_34 
REMARK   11  A    between atoms: C16_36  and  O7_37 
REMARK   12  A    between atoms: C17_39  and  O8_40 
ROOT
HETATM    1  C1  UNL     1      12.304  74.230  45.741  1.00  0.00     0.160 C 
HETATM    2  N1  UNL     1      11.890  73.955  47.154  1.00  0.00    -0.309 N 
HETATM    3  C2  UNL     1      12.855  73.951  48.074  1.00  0.00     0.291 A 
HETATM    4  O1  UNL     1      14.082  74.253  47.949  1.00  0.00    -0.259 OA
HETATM    5  S1  UNL     1      12.024  73.446  49.465  1.00  0.00    -0.022 SA
HETATM    6  C3  UNL     1      10.473  73.266  48.799  1.00  0.00     0.090 A 
HETATM    7  C4  UNL     1       9.244  72.857  49.303  1.00  0.00     0.164 A 
HETATM    8  N2  UNL     1       9.125  72.533  50.536  1.00  0.00    -0.363 N 
ATOM      9  H2  UNL     1       9.950  72.614  51.130  1.00  0.00     0.162 HD
HETATM   10  O5  UNL     1       8.192  72.803  48.497  1.00  0.00    -0.293 OA
HETATM   11  C12 UNL     1       8.306  73.136  47.231  1.00  0.00     0.103 A 
HETATM   12  C17 UNL     1       9.517  73.541  46.677  1.00  0.00     0.125 A 
HETATM   13  C18 UNL     1      10.669  73.616  47.488  1.00  0.00     0.095 A 
ENDROOT
BRANCH   8  14
HETATM   14  C5  UNL     1       7.928  72.070  51.130  1.00  0.00     0.190 C 
BRANCH  14  15
HETATM   15  C6  UNL     1       7.069  73.186  51.609  1.00  0.00     0.108 A 
HETATM   16  O2  UNL     1       6.712  74.308  51.050  1.00  0.00    -0.279 OA
HETATM   17  C7  UNL     1       5.881  75.004  51.827  1.00  0.00     0.229 A 
HETATM   18  N3  UNL     1       5.301  76.076  51.659  1.00  0.00    -0.333 N 
HETATM   19  N5  UNL     1       5.714  74.252  52.986  1.00  0.00    -0.314 N 
ATOM     20  H3  UNL     1       4.751  76.298  52.489  1.00  0.00     0.168 HD
HETATM   21  C11 UNL     1       6.421  73.143  52.876  1.00  0.00     0.115 A 
ATOM     22  H5  UNL     1       5.140  74.514  53.787  1.00  0.00     0.170 HD
HETATM   23  S2  UNL     1       6.611  71.807  54.057  1.00  0.00    -0.030 SA
BRANCH  18  24
HETATM   24  C8  UNL     1       5.147  77.073  50.729  1.00  0.00     0.108 C 
BRANCH  24  25
HETATM   25  C9  UNL     1       5.533  78.445  51.264  1.00  0.00     0.321 C 
BRANCH  25  26
HETATM   26  N4  UNL     1       4.964  79.494  50.433  1.00  0.00    -0.061 N 
ATOM     27  H43 UNL     1       5.377  80.405  50.635  1.00  0.00     0.275 HD
ATOM     28  H42 UNL     1       5.256  79.407  49.460  1.00  0.00     0.275 HD
ATOM     29  H41 UNL     1       3.948  79.510  50.523  1.00  0.00     0.275 HD
ENDBRANCH  25  26
BRANCH  25  30
HETATM   30  C10 UNL     1       7.046  78.570  51.157  1.00  0.00     0.209 C 
HETATM   31  O3  UNL     1       7.745  77.875  51.981  1.00  0.00    -0.646 OA
HETATM   32  O4  UNL     1       7.630  79.372  50.220  1.00  0.00    -0.646 OA
ENDBRANCH  25  30
ENDBRANCH  24  25
ENDBRANCH  18  24
ENDBRANCH  14  15
ENDBRANCH   8  14
BRANCH  11  33
HETATM   33  C13 UNL     1       7.063  73.072  46.469  1.00  0.00     0.051 C 
HETATM   34  C14 UNL     1       7.152  71.919  45.470  1.00  0.00     0.027 C 
BRANCH  33  35
HETATM   35  C15 UNL     1       6.400  74.210  45.899  1.00  0.00     0.182 C 
BRANCH  35  36
HETATM   36  O6  UNL     1       6.959  74.889  44.834  1.00  0.00    -0.400 OA
ATOM     37  H6  UNL     1       7.324  75.758  44.953  1.00  0.00     0.209 HD
ENDBRANCH  35  36
ENDBRANCH  33  35
BRANCH  33  38
HETATM   38  C16 UNL     1       5.990  72.448  47.468  1.00  0.00     0.182 C 
BRANCH  38  39
HETATM   39  O7  UNL     1       5.497  73.358  48.336  1.00  0.00    -0.400 OA
ATOM     40  H7  UNL     1       4.555  73.292  48.438  1.00  0.00     0.209 HD
ENDBRANCH  38  39
ENDBRANCH  33  38
ENDBRANCH  11  33
BRANCH  12  41
HETATM   41  O8  UNL     1       9.528  73.837  45.371  1.00  0.00    -0.356 OA
ATOM     42  H8  UNL     1       8.822  73.489  44.839  1.00  0.00     0.218 HD
ENDBRANCH  12  41
TORSDOF 12
ENDMDL
MODEL 2
REMARK VINA RESULT: -6.408399911      1.291      1.496
REMARK  12 active torsions:
REMARK  status: ('A' for Active; 'I' for Inactive)
REMARK    1  A    between atoms: N2_8  and  C5_10 
REMARK    2  A    between atoms: C5_10  and  C6_11 
REMARK    3  A    between atoms: N3_14  and  C8_16 
REMARK    4  A    between atoms: C8_16  and  C9_17 
REMARK    5  A    between atoms: C9_17  and  N4_18 
REMARK    6  A    between atoms: C9_17  and  C10_22 
REMARK    7  A    between atoms: C12_30  and  C13_31 
REMARK    8  A    between atoms: C13_31  and  C15_33 
REMARK    9  A    between atoms: C13_31  and  C16_36 
REMARK   10  A    between atoms: C15_33  and  O6_34 
REMARK   11  A    between atoms: C16_36  and  O7_37 
REMARK   12  A    between atoms: C17_39  and  O8_40 
ROOT
HETATM    1  C1  UNL     1      12.274  74.275  45.775  1.00  0.00     0.160 C 
HETATM    2  N1  UNL     1      11.870  73.978  47.186  1.00  0.00    -0.309 N 
HETATM    3  C2  UNL     1      12.841  73.974  48.101  1.00  0.00     0.291 A 
HETATM    4  O1  UNL     1      14.063  74.292  47.973  1.00  0.00    -0.259 OA
HETATM    5  S1  UNL     1      12.024  73.442  49.489  1.00  0.00    -0.022 SA
HETATM    6  C3  UNL     1      10.471  73.252  48.830  1.00  0.00     0.090 A 
HETATM    7  C4  UNL     1       9.250  72.822  49.335  1.00  0.00     0.164 A 
HETATM    8  N2  UNL     1       9.142  72.481  50.564  1.00  0.00    -0.363 N 
ATOM      9  H2  UNL     1       9.969  72.565  51.156  1.00  0.00     0.162 HD
HETATM   10  O5  UNL     1       8.194  72.766  48.535  1.00  0.00    -0.293 OA
HETATM   11  C12 UNL     1       8.297  73.115  47.272  1.00  0.00     0.103 A 
HETATM   12  C17 UNL     1       9.501  73.542  46.717  1.00  0.00     0.125 A 
HETATM   13  C18 UNL     1      10.656  73.620  47.523  1.00  0.00     0.095 A 
ENDROOT
BRANCH   8  14
HETATM   14  C5  UNL     1       7.954  71.997  51.160  1.00  0.00     0.190 C 
BRANCH  14  15
HETATM   15  C6  UNL     1       7.053  73.098  51.596  1.00  0.00     0.108 A 
HETATM   16  O2  UNL     1       5.956  73.577  51.080  1.00  0.00    -0.279 OA
HETATM   17  C7  UNL     1       5.439  74.547  51.835  1.00  0.00     0.229 A 
HETATM   18  N3  UNL     1       4.416  75.222  51.722  1.00  0.00    -0.333 N 
HETATM   19  N5  UNL     1       6.302  74.697  52.916  1.00  0.00    -0.314 N 
ATOM     20  H3  UNL     1       4.357  75.882  52.496  1.00  0.00     0.168 HD
HETATM   21  C11 UNL     1       7.286  73.827  52.796  1.00  0.00     0.115 A 
ATOM     22  H5  UNL     1       6.192  75.369  53.676  1.00  0.00     0.170 HD
HETATM   23  S2  UNL     1       8.699  73.568  53.870  1.00  0.00    -0.030 SA
BRANCH  18  24
HETATM   24  C8  UNL     1       3.328  75.383  50.902  1.00  0.00     0.108 C 
BRANCH  24  25
HETATM   25  C9  UNL     1       3.495  76.530  49.916  1.00  0.00     0.321 C 
BRANCH  25  26
HETATM   26  N4  UNL     1       4.184  76.077  48.719  1.00  0.00    -0.061 N 
ATOM     27  H43 UNL     1       5.195  76.037  48.855  1.00  0.00     0.275 HD
ATOM     28  H42 UNL     1       4.017  75.088  48.537  1.00  0.00     0.275 HD
ATOM     29  H41 UNL     1       3.932  76.657  47.919  1.00  0.00     0.275 HD
ENDBRANCH  25  26
BRANCH  25  30
HETATM   30  C10 UNL     1       4.391  77.572  50.573  1.00  0.00     0.209 C 
HETATM   31  O3  UNL     1       3.858  78.302  51.485  1.00  0.00    -0.646 OA
HETATM   32  O4  UNL     1       5.701  77.711  50.216  1.00  0.00    -0.646 OA
ENDBRANCH  25  30
ENDBRANCH  24  25
ENDBRANCH  18  24
ENDBRANCH  14  15
ENDBRANCH   8  14
BRANCH  11  33
HETATM   33  C13 UNL     1       7.050  73.047  46.516  1.00  0.00     0.051 C 
HETATM   34  C14 UNL     1       7.136  71.888  45.523  1.00  0.00     0.027 C 
BRANCH  33  35
HETATM   35  C15 UNL     1       6.385  74.181  45.942  1.00  0.00     0.182 C 
BRANCH  35  36
HETATM   36  O6  UNL     1       6.947  74.865  44.883  1.00  0.00    -0.400 OA
ATOM     37  H6  UNL     1       6.702  75.765  44.704  1.00  0.00     0.209 HD
ENDBRANCH  35  36
ENDBRANCH  33  35
BRANCH  33  38
HETATM   38  C16 UNL     1       5.983  72.428  47.524  1.00  0.00     0.182 C 
BRANCH  38  39
HETATM   39  O7  UNL     1       5.356  73.370  48.261  1.00  0.00    -0.400 OA
ATOM     40  H7  UNL     1       5.002  74.073  47.730  1.00  0.00     0.209 HD
ENDBRANCH  38  39
ENDBRANCH  33  38
ENDBRANCH  11  33
BRANCH  12  41
HETATM   41  O8  UNL     1       9.501  73.854  45.414  1.00  0.00    -0.356 OA
ATOM     42  H8  UNL     1      10.141  73.420  44.862  1.00  0.00     0.218 HD
ENDBRANCH  12  41
TORSDOF 12
ENDMDL
MODEL 3
REMARK VINA RESULT: -6.283661265      2.430      2.877
REMARK  12 active torsions:
REMARK  status: ('A' for Active; 'I' for Inactive)
REMARK    1  A    between atoms: N2_8  and  C5_10 
REMARK    2  A    between atoms: C5_10  and  C6_11 
REMARK    3  A    between atoms: N3_14  and  C8_16 
REMARK    4  A    between atoms: C8_16  and  C9_17 
REMARK    5  A    between atoms: C9_17  and  N4_18 
REMARK    6  A    between atoms: C9_17  and  C10_22 
REMARK    7  A    between atoms: C12_30  and  C13_31 
REMARK    8  A    between atoms: C13_31  and  C15_33 
REMARK    9  A    between atoms: C13_31  and  C16_36 
REMARK   10  A    between atoms: C15_33  and  O6_34 
REMARK   11  A    between atoms: C16_36  and  O7_37 
REMARK   12  A    between atoms: C17_39  and  O8_40 
ROOT
HETATM    1  C1  UNL     1      12.376  73.278  49.756  1.00  0.00     0.160 C 
HETATM    2  N1  UNL     1      11.069  73.215  50.486  1.00  0.00    -0.309 N 
HETATM    3  C2  UNL     1      11.126  73.189  51.818  1.00  0.00     0.291 A 
HETATM    4  O1  UNL     1      12.133  73.316  52.580  1.00  0.00    -0.259 OA
HETATM    5  S1  UNL     1       9.500  72.951  52.241  1.00  0.00    -0.022 SA
HETATM    6  C3  UNL     1       8.823  72.898  50.685  1.00  0.00     0.090 A 
HETATM    7  C4  UNL     1       7.537  72.707  50.194  1.00  0.00     0.164 A 
HETATM    8  N2  UNL     1       6.555  72.539  50.997  1.00  0.00    -0.363 N 
ATOM      9  H2  UNL     1       6.748  72.579  51.998  1.00  0.00     0.162 HD
HETATM   10  O5  UNL     1       7.332  72.700  48.883  1.00  0.00    -0.293 OA
HETATM   11  C12 UNL     1       8.335  72.874  48.052  1.00  0.00     0.103 A 
HETATM   12  C17 UNL     1       9.642  73.058  48.495  1.00  0.00     0.125 A 
HETATM   13  C18 UNL     1       9.918  73.074  49.879  1.00  0.00     0.095 A 
ENDROOT
BRANCH   8  14
HETATM   14  C5  UNL     1       5.221  72.301  50.593  1.00  0.00     0.190 C 
BRANCH  14  15
HETATM   15  C6  UNL     1       4.452  73.562  50.418  1.00  0.00     0.108 A 
HETATM   16  O2  UNL     1       4.575  74.542  49.569  1.00  0.00    -0.279 OA
HETATM   17  C7  UNL     1       3.628  75.466  49.740  1.00  0.00     0.229 A 
HETATM   18  N3  UNL     1       3.377  76.509  49.138  1.00  0.00    -0.333 N 
HETATM   19  N5  UNL     1       2.850  75.027  50.806  1.00  0.00    -0.314 N 
ATOM     20  H3  UNL     1       2.573  76.965  49.569  1.00  0.00     0.168 HD
HETATM   21  C11 UNL     1       3.326  73.873  51.232  1.00  0.00     0.115 A 
ATOM     22  H5  UNL     1       2.043  75.517  51.194  1.00  0.00     0.170 HD
HETATM   23  S2  UNL     1       2.750  72.846  52.585  1.00  0.00    -0.030 SA
BRANCH  18  24
HETATM   24  C8  UNL     1       3.817  77.264  48.080  1.00  0.00     0.108 C 
BRANCH  24  25
HETATM   25  C9  UNL     1       4.283  78.652  48.498  1.00  0.00     0.321 C 
BRANCH  25  26
HETATM   26  N4  UNL     1       5.413  79.075  47.687  1.00  0.00    -0.061 N 
ATOM     27  H43 UNL     1       6.296  78.988  48.193  1.00  0.00     0.275 HD
ATOM     28  H42 UNL     1       5.605  78.418  46.932  1.00  0.00     0.275 HD
ATOM     29  H41 UNL     1       5.268  80.022  47.338  1.00  0.00     0.275 HD
ENDBRANCH  25  26
BRANCH  25  30
HETATM   30  C10 UNL     1       4.781  78.556  49.934  1.00  0.00     0.209 C 
HETATM   31  O3  UNL     1       4.026  79.059  50.844  1.00  0.00    -0.646 OA
HETATM   32  O4  UNL     1       5.966  77.952  50.237  1.00  0.00    -0.646 OA
ENDBRANCH  25  30
ENDBRANCH  24  25
ENDBRANCH  18  24
ENDBRANCH  14  15
ENDBRANCH   8  14
BRANCH  11  33
HETATM   33  C13 UNL     1       7.962  72.886  46.641  1.00  0.00     0.051 C 
HETATM   34  C14 UNL     1       8.318  71.535  46.022  1.00  0.00     0.027 C 
BRANCH  33  35
HETATM   35  C15 UNL     1       8.239  73.965  45.737  1.00  0.00     0.182 C 
BRANCH  35  36
HETATM   36  O6  UNL     1       7.266  74.428  44.873  1.00  0.00    -0.400 OA
ATOM     37  H6  UNL     1       7.431  75.178  44.315  1.00  0.00     0.209 HD
ENDBRANCH  35  36
ENDBRANCH  33  35
BRANCH  33  38
HETATM   38  C16 UNL     1       6.374  72.753  46.625  1.00  0.00     0.182 C 
BRANCH  38  39
HETATM   39  O7  UNL     1       5.754  73.878  47.040  1.00  0.00    -0.400 OA
ATOM     40  H7  UNL     1       6.006  74.131  47.920  1.00  0.00     0.209 HD
ENDBRANCH  38  39
ENDBRANCH  33  38
ENDBRANCH  11  33
BRANCH  12  41
HETATM   41  O8  UNL     1      10.593  73.204  47.563  1.00  0.00    -0.356 OA
ATOM     42  H8  UNL     1      11.390  73.652  47.820  1.00  0.00     0.218 HD
ENDBRANCH  12  41
TORSDOF 12
ENDMDL
MODEL 4
REMARK VINA RESULT: -6.218807887      3.775      6.819
REMARK  12 active torsions:
REMARK  status: ('A' for Active; 'I' for Inactive)
REMARK    1  A    between atoms: N2_8  and  C5_10 
REMARK    2  A    between atoms: C5_10  and  C6_11 
REMARK    3  A    between atoms: N3_14  and  C8_16 
REMARK    4  A    between atoms: C8_16  and  C9_17 
REMARK    5  A    between atoms: C9_17  and  N4_18 
REMARK    6  A    between atoms: C9_17  and  C10_22 
REMARK    7  A    between atoms: C12_30  and  C13_31 
REMARK    8  A    between atoms: C13_31  and  C15_33 
REMARK    9  A    between atoms: C13_31  and  C16_36 
REMARK   10  A    between atoms: C15_33  and  O6_34 
REMARK   11  A    between atoms: C16_36  and  O7_37 
REMARK   12  A    between atoms: C17_39  and  O8_40 
ROOT
HETATM    1  C1  UNL     1       3.802  74.039  49.985  1.00  0.00     0.160 C 
HETATM    2  N1  UNL     1       5.044  73.566  50.676  1.00  0.00    -0.309 N 
HETATM    3  C2  UNL     1       5.025  73.562  52.009  1.00  0.00     0.291 A 
HETATM    4  O1  UNL     1       4.061  73.805  52.798  1.00  0.00    -0.259 OA
HETATM    5  S1  UNL     1       6.624  73.138  52.389  1.00  0.00    -0.022 SA
HETATM    6  C3  UNL     1       7.241  72.983  50.815  1.00  0.00     0.090 A 
HETATM    7  C4  UNL     1       8.492  72.681  50.290  1.00  0.00     0.164 A 
HETATM    8  N2  UNL     1       9.477  72.428  51.068  1.00  0.00    -0.363 N 
ATOM      9  H2  UNL     1       9.301  72.428  52.073  1.00  0.00     0.162 HD
HETATM   10  O5  UNL     1       8.661  72.657  48.975  1.00  0.00    -0.293 OA
HETATM   11  C12 UNL     1       7.654  72.915  48.170  1.00  0.00     0.103 A 
HETATM   12  C17 UNL     1       6.386  73.233  48.647  1.00  0.00     0.125 A 
HETATM   13  C18 UNL     1       6.150  73.274  50.038  1.00  0.00     0.095 A 
ENDROOT
BRANCH   8  14
HETATM   14  C5  UNL     1      10.792  72.147  50.630  1.00  0.00     0.190 C 
BRANCH  14  15
HETATM   15  C6  UNL     1      11.743  73.240  50.965  1.00  0.00     0.108 A 
HETATM   16  O2  UNL     1      12.172  73.697  52.108  1.00  0.00    -0.279 OA
HETATM   17  C7  UNL     1      13.070  74.671  51.944  1.00  0.00     0.229 A 
HETATM   18  N3  UNL     1      13.726  75.329  52.750  1.00  0.00    -0.333 N 
HETATM   19  N5  UNL     1      13.201  74.847  50.570  1.00  0.00    -0.314 N 
ATOM     20  H3  UNL     1      14.307  75.999  52.247  1.00  0.00     0.168 HD
HETATM   21  C11 UNL     1      12.410  73.989  49.955  1.00  0.00     0.115 A 
ATOM     22  H5  UNL     1      13.810  75.527  50.114  1.00  0.00     0.170 HD
HETATM   23  S2  UNL     1      12.143  73.765  48.196  1.00  0.00    -0.030 SA
BRANCH  18  24
HETATM   24  C8  UNL     1      13.937  75.464  54.099  1.00  0.00     0.108 C 
BRANCH  24  25
HETATM   25  C9  UNL     1      15.153  74.689  54.587  1.00  0.00     0.321 C 
BRANCH  25  26
HETATM   26  N4  UNL     1      16.063  74.421  53.485  1.00  0.00    -0.061 N 
ATOM     27  H43 UNL     1      16.537  73.524  53.594  1.00  0.00     0.275 HD
ATOM     28  H42 UNL     1      15.561  74.223  52.619  1.00  0.00     0.275 HD
ATOM     29  H41 UNL     1      16.724  75.189  53.372  1.00  0.00     0.275 HD
ENDBRANCH  25  26
BRANCH  25  30
HETATM   30  C10 UNL     1      14.664  73.339  55.093  1.00  0.00     0.209 C 
HETATM   31  O3  UNL     1      13.395  73.142  55.082  1.00  0.00    -0.646 OA
HETATM   32  O4  UNL     1      15.535  72.382  55.526  1.00  0.00    -0.646 OA
ENDBRANCH  25  30
ENDBRANCH  24  25
ENDBRANCH  18  24
ENDBRANCH  14  15
ENDBRANCH   8  14
BRANCH  11  33
HETATM   33  C13 UNL     1       7.969  72.811  46.749  1.00  0.00     0.051 C 
HETATM   34  C14 UNL     1       9.030  71.729  46.553  1.00  0.00     0.027 C 
BRANCH  33  35
HETATM   35  C15 UNL     1       8.199  73.933  45.884  1.00  0.00     0.182 C 
BRANCH  35  36
HETATM   36  O6  UNL     1       9.484  74.306  45.543  1.00  0.00    -0.400 OA
ATOM     37  H6  UNL     1       9.667  75.187  45.236  1.00  0.00     0.209 HD
ENDBRANCH  35  36
ENDBRANCH  33  35
BRANCH  33  38
HETATM   38  C16 UNL     1       6.726  72.056  46.097  1.00  0.00     0.182 C 
BRANCH  38  39
HETATM   39  O7  UNL     1       6.126  72.782  45.130  1.00  0.00    -0.400 OA
ATOM     40  H7  UNL     1       5.884  72.257  44.376  1.00  0.00     0.209 HD
ENDBRANCH  38  39
ENDBRANCH  33  38
ENDBRANCH  11  33
BRANCH  12  41
HETATM   41  O8  UNL     1       5.436  73.499  47.741  1.00  0.00    -0.356 OA
ATOM     42  H8  UNL     1       4.532  73.401  48.015  1.00  0.00     0.218 HD
ENDBRANCH  12  41
TORSDOF 12
ENDMDL
MODEL 5
REMARK VINA RESULT: -6.186535424      4.584      7.472
REMARK  12 active torsions:
REMARK  status: ('A' for Active; 'I' for Inactive)
REMARK    1  A    between atoms: N2_8  and  C5_10 
REMARK    2  A    between atoms: C5_10  and  C6_11 
REMARK    3  A    between atoms: N3_14  and  C8_16 
REMARK    4  A    between atoms: C8_16  and  C9_17 
REMARK    5  A    between atoms: C9_17  and  N4_18 
REMARK    6  A    between atoms: C9_17  and  C10_22 
REMARK    7  A    between atoms: C12_30  and  C13_31 
REMARK    8  A    between atoms: C13_31  and  C15_33 
REMARK    9  A    between atoms: C13_31  and  C16_36 
REMARK   10  A    between atoms: C15_33  and  O6_34 
REMARK   11  A    between atoms: C16_36  and  O7_37 
REMARK   12  A    between atoms: C17_39  and  O8_40 
ROOT
HETATM    1  C1  UNL     1       5.782  72.555  47.429  1.00  0.00     0.160 C 
HETATM    2  N1  UNL     1       7.088  72.707  48.147  1.00  0.00    -0.309 N 
HETATM    3  C2  UNL     1       8.188  72.742  47.393  1.00  0.00     0.291 A 
HETATM    4  O1  UNL     1       8.292  72.770  46.128  1.00  0.00    -0.259 OA
HETATM    5  S1  UNL     1       9.421  72.749  48.558  1.00  0.00    -0.022 SA
HETATM    6  C3  UNL     1       8.465  72.710  49.961  1.00  0.00     0.090 A 
HETATM    7  C4  UNL     1       8.743  72.670  51.322  1.00  0.00     0.164 A 
HETATM    8  N2  UNL     1       9.954  72.677  51.736  1.00  0.00    -0.363 N 
ATOM      9  H2  UNL     1      10.695  72.742  51.037  1.00  0.00     0.162 HD
HETATM   10  O5  UNL     1       7.743  72.624  52.192  1.00  0.00    -0.293 OA
HETATM   11  C12 UNL     1       6.497  72.617  51.774  1.00  0.00     0.103 A 
HETATM   12  C17 UNL     1       6.168  72.644  50.422  1.00  0.00     0.125 A 
HETATM   13  C18 UNL     1       7.192  72.693  49.452  1.00  0.00     0.095 A 
ENDROOT
BRANCH   8  14
HETATM   14  C5  UNL     1      10.336  72.603  53.095  1.00  0.00     0.190 C 
BRANCH  14  15
HETATM   15  C6  UNL     1      11.504  73.472  53.401  1.00  0.00     0.108 A 
HETATM   16  O2  UNL     1      12.787  73.274  53.287  1.00  0.00    -0.279 OA
HETATM   17  C7  UNL     1      13.486  74.355  53.635  1.00  0.00     0.229 A 
HETATM   18  N3  UNL     1      14.694  74.587  53.639  1.00  0.00    -0.333 N 
HETATM   19  N5  UNL     1      12.552  75.313  54.017  1.00  0.00    -0.314 N 
ATOM     20  H3  UNL     1      14.857  75.532  53.986  1.00  0.00     0.168 HD
HETATM   21  C11 UNL     1      11.343  74.803  53.880  1.00  0.00     0.115 A 
ATOM     22  H5  UNL     1      12.767  76.253  54.348  1.00  0.00     0.170 HD
HETATM   23  S2  UNL     1       9.755  75.558  54.235  1.00  0.00    -0.030 SA
BRANCH  18  24
HETATM   24  C8  UNL     1      15.896  74.001  53.333  1.00  0.00     0.108 C 
BRANCH  24  25
HETATM   25  C9  UNL     1      16.821  73.884  54.536  1.00  0.00     0.321 C 
BRANCH  25  26
HETATM   26  N4  UNL     1      18.046  73.190  54.171  1.00  0.00    -0.061 N 
ATOM     27  H43 UNL     1      17.854  72.318  53.677  1.00  0.00     0.275 HD
ATOM     28  H42 UNL     1      18.551  73.677  53.431  1.00  0.00     0.275 HD
ATOM     29  H41 UNL     1      18.630  73.040  54.994  1.00  0.00     0.275 HD
ENDBRANCH  25  26
BRANCH  25  30
HETATM   30  C10 UNL     1      16.117  73.020  55.573  1.00  0.00     0.209 C 
HETATM   31  O3  UNL     1      15.486  73.635  56.508  1.00  0.00    -0.646 OA
HETATM   32  O4  UNL     1      16.145  71.657  55.502  1.00  0.00    -0.646 OA
ENDBRANCH  25  30
ENDBRANCH  24  25
ENDBRANCH  18  24
ENDBRANCH  14  15
ENDBRANCH   8  14
BRANCH  11  33
HETATM   33  C13 UNL     1       5.497  72.609  52.838  1.00  0.00     0.051 C 
HETATM   34  C14 UNL     1       6.176  72.223  54.152  1.00  0.00     0.027 C 
BRANCH  33  35
HETATM   35  C15 UNL     1       4.197  72.013  52.726  1.00  0.00     0.182 C 
BRANCH  35  36
HETATM   36  O6  UNL     1       4.057  70.695  52.339  1.00  0.00    -0.400 OA
ATOM     37  H6  UNL     1       3.372  70.439  51.733  1.00  0.00     0.209 HD
ENDBRANCH  35  36
ENDBRANCH  33  35
BRANCH  33  38
HETATM   38  C16 UNL     1       5.206  74.143  53.153  1.00  0.00     0.182 C 
BRANCH  38  39
HETATM   39  O7  UNL     1       6.323  74.900  53.127  1.00  0.00    -0.400 OA
ATOM     40  H7  UNL     1       6.250  75.679  53.666  1.00  0.00     0.209 HD
ENDBRANCH  38  39
ENDBRANCH  33  38
ENDBRANCH  11  33
BRANCH  12  41
HETATM   41  O8  UNL     1       4.867  72.613  50.104  1.00  0.00    -0.356 OA
ATOM     42  H8  UNL     1       4.437  71.766  50.112  1.00  0.00     0.218 HD
ENDBRANCH  12  41
TORSDOF 12
ENDMDL
