MODEL 1
REMARK VINA RESULT: -4.506608488      0.000      0.000
REMARK  3 active torsions:
REMARK  status: ('A' for Active; 'I' for Inactive)
REMARK    1  A    between atoms: N1_1  and  C1_4 
REMARK    2  A    between atoms: C2_7  and  S1_8 
REMARK    3  A    between atoms: S1_8  and  N3_9 
ROOT
HETATM    1  C1  UNL     1     -34.921  11.076 -38.693  1.00  0.00     0.160 A 
HETATM    2  N2  UNL     1     -34.446  10.344 -39.680  1.00  0.00    -0.310 N 
ATOM      3  H2  UNL     1     -33.629   9.752 -39.534  1.00  0.00     0.170 HD
HETATM    4  C2  UNL     1     -35.029  10.384 -40.846  1.00  0.00     0.232 A 
HETATM    5  N4  UNL     1     -36.098  11.178 -40.978  1.00  0.00    -0.299 N 
ATOM      6  H4  UNL     1     -36.678  11.338 -41.802  1.00  0.00     0.176 HD
HETATM    7  S2  UNL     1     -36.243  11.847 -39.443  1.00  0.00     0.024 SA
ENDROOT
BRANCH   4   8
HETATM    8  S1  UNL     1     -34.381   9.386 -42.192  1.00  0.00     0.289 S 
HETATM    9  O1  UNL     1     -34.118  10.294 -43.379  1.00  0.00    -0.198 OA
HETATM   10  O2  UNL     1     -35.416   8.411 -42.598  1.00  0.00    -0.198 OA
BRANCH   8  11
HETATM   11  N3  UNL     1     -32.905   8.649 -41.731  1.00  0.00    -0.322 N 
ATOM     12  H32 UNL     1     -32.493   8.731 -40.802  1.00  0.00     0.169 HD
ATOM     13  H31 UNL     1     -32.510   8.126 -42.513  1.00  0.00     0.169 HD
ENDBRANCH   8  11
ENDBRANCH   4   8
BRANCH   1  14
HETATM   14  N1  UNL     1     -34.536  11.217 -37.459  1.00  0.00    -0.378 N 
ATOM     15  H12 UNL     1     -34.885  10.707 -36.649  1.00  0.00     0.158 HD
ATOM     16  H11 UNL     1     -33.838  11.827 -37.033  1.00  0.00     0.158 HD
ENDBRANCH   1  14
TORSDOF 3
ENDMDL
MODEL 2
REMARK VINA RESULT: -4.504282760      1.683      1.869
REMARK  3 active torsions:
REMARK  status: ('A' for Active; 'I' for Inactive)
REMARK    1  A    between atoms: N1_1  and  C1_4 
REMARK    2  A    between atoms: C2_7  and  S1_8 
REMARK    3  A    between atoms: S1_8  and  N3_9 
ROOT
HETATM    1  C1  UNL     1     -34.680  10.694 -39.361  1.00  0.00     0.160 A 
HETATM    2  N2  UNL     1     -33.669  10.632 -40.204  1.00  0.00    -0.310 N 
ATOM      3  H2  UNL     1     -32.710  10.671 -39.860  1.00  0.00     0.170 HD
HETATM    4  C2  UNL     1     -33.906  10.521 -41.481  1.00  0.00     0.232 A 
HETATM    5  N4  UNL     1     -35.185  10.474 -41.874  1.00  0.00    -0.299 N 
ATOM      6  H4  UNL     1     -35.561  10.389 -42.818  1.00  0.00     0.176 HD
HETATM    7  S2  UNL     1     -36.014  10.588 -40.416  1.00  0.00     0.024 SA
ENDROOT
BRANCH   4   8
HETATM    8  S1  UNL     1     -32.528  10.438 -42.631  1.00  0.00     0.289 S 
HETATM    9  O1  UNL     1     -31.809  11.775 -42.617  1.00  0.00    -0.198 OA
HETATM   10  O2  UNL     1     -33.062  10.234 -43.995  1.00  0.00    -0.198 OA
BRANCH   8  11
HETATM   11  N3  UNL     1     -31.424   9.220 -42.151  1.00  0.00    -0.322 N 
ATOM     12  H32 UNL     1     -31.698   8.352 -41.691  1.00  0.00     0.169 HD
ATOM     13  H31 UNL     1     -30.470   9.490 -42.392  1.00  0.00     0.169 HD
ENDBRANCH   8  11
ENDBRANCH   4   8
BRANCH   1  14
HETATM   14  N1  UNL     1     -34.719  10.803 -38.066  1.00  0.00    -0.378 N 
ATOM     15  H12 UNL     1     -35.431  11.283 -37.515  1.00  0.00     0.158 HD
ATOM     16  H11 UNL     1     -34.093  10.459 -37.338  1.00  0.00     0.158 HD
ENDBRANCH   1  14
TORSDOF 3
ENDMDL
MODEL 3
REMARK VINA RESULT: -4.475389593      2.803      3.439
REMARK  3 active torsions:
REMARK  status: ('A' for Active; 'I' for Inactive)
REMARK    1  A    between atoms: N1_1  and  C1_4 
REMARK    2  A    between atoms: C2_7  and  S1_8 
REMARK    3  A    between atoms: S1_8  and  N3_9 
ROOT
HETATM    1  C1  UNL     1     -32.937  12.508 -42.545  1.00  0.00     0.160 A 
HETATM    2  N2  UNL     1     -33.335  11.296 -42.212  1.00  0.00    -0.310 N 
ATOM      3  H2  UNL     1     -33.023  10.487 -42.749  1.00  0.00     0.170 HD
HETATM    4  C2  UNL     1     -34.130  11.140 -41.192  1.00  0.00     0.232 A 
HETATM    5  N4  UNL     1     -34.506  12.238 -40.523  1.00  0.00    -0.299 N 
ATOM      6  H4  UNL     1     -35.115  12.314 -39.710  1.00  0.00     0.176 HD
HETATM    7  S2  UNL     1     -33.717  13.460 -41.367  1.00  0.00     0.024 SA
ENDROOT
BRANCH   4   8
HETATM    8  S1  UNL     1     -34.673   9.489 -40.739  1.00  0.00     0.289 S 
HETATM    9  O1  UNL     1     -36.134   9.340 -41.124  1.00  0.00    -0.198 OA
HETATM   10  O2  UNL     1     -34.585   9.348 -39.269  1.00  0.00    -0.198 OA
BRANCH   8  11
HETATM   11  N3  UNL     1     -33.763   8.309 -41.584  1.00  0.00    -0.322 N 
ATOM     12  H32 UNL     1     -32.768   8.396 -41.789  1.00  0.00     0.169 HD
ATOM     13  H31 UNL     1     -34.358   7.522 -41.845  1.00  0.00     0.169 HD
ENDBRANCH   8  11
ENDBRANCH   4   8
BRANCH   1  14
HETATM   14  N1  UNL     1     -32.161  12.930 -43.498  1.00  0.00    -0.378 N 
ATOM     15  H12 UNL     1     -31.608  12.357 -44.134  1.00  0.00     0.158 HD
ATOM     16  H11 UNL     1     -31.934  13.872 -43.820  1.00  0.00     0.158 HD
ENDBRANCH   1  14
TORSDOF 3
ENDMDL
MODEL 4
REMARK VINA RESULT: -4.463631881      2.413      4.089
REMARK  3 active torsions:
REMARK  status: ('A' for Active; 'I' for Inactive)
REMARK    1  A    between atoms: N1_1  and  C1_4 
REMARK    2  A    between atoms: C2_7  and  S1_8 
REMARK    3  A    between atoms: S1_8  and  N3_9 
ROOT
HETATM    1  C1  UNL     1     -32.949   9.606 -41.706  1.00  0.00     0.160 A 
HETATM    2  N2  UNL     1     -33.403  10.372 -40.734  1.00  0.00    -0.310 N 
ATOM      3  H2  UNL     1     -32.755  10.802 -40.075  1.00  0.00     0.170 HD
HETATM    4  C2  UNL     1     -34.685  10.574 -40.623  1.00  0.00     0.232 A 
HETATM    5  N4  UNL     1     -35.487   9.984 -41.519  1.00  0.00    -0.299 N 
ATOM      6  H4  UNL     1     -36.503  10.025 -41.592  1.00  0.00     0.176 HD
HETATM    7  S2  UNL     1     -34.393   9.158 -42.492  1.00  0.00     0.024 SA
ENDROOT
BRANCH   4   8
HETATM    8  S1  UNL     1     -35.304  11.617 -39.298  1.00  0.00     0.289 S 
HETATM    9  O1  UNL     1     -36.816  11.492 -39.253  1.00  0.00    -0.198 OA
HETATM   10  O2  UNL     1     -34.984  13.026 -39.616  1.00  0.00    -0.198 OA
BRANCH   8  11
HETATM   11  N3  UNL     1     -34.669  11.106 -37.791  1.00  0.00    -0.322 N 
ATOM     12  H32 UNL     1     -34.530  11.724 -36.992  1.00  0.00     0.169 HD
ATOM     13  H31 UNL     1     -34.457  10.108 -37.816  1.00  0.00     0.169 HD
ENDBRANCH   8  11
ENDBRANCH   4   8
BRANCH   1  14
HETATM   14  N1  UNL     1     -31.742   9.250 -42.033  1.00  0.00    -0.378 N 
ATOM     15  H12 UNL     1     -30.876   9.543 -41.582  1.00  0.00     0.158 HD
ATOM     16  H11 UNL     1     -31.393   8.633 -42.767  1.00  0.00     0.158 HD
ENDBRANCH   1  14
TORSDOF 3
ENDMDL
MODEL 5
REMARK VINA RESULT: -4.325785146      2.146      2.351
REMARK  3 active torsions:
REMARK  status: ('A' for Active; 'I' for Inactive)
REMARK    1  A    between atoms: N1_1  and  C1_4 
REMARK    2  A    between atoms: C2_7  and  S1_8 
REMARK    3  A    between atoms: S1_8  and  N3_9 
ROOT
HETATM    1  C1  UNL     1     -34.607  10.501 -39.366  1.00  0.00     0.160 A 
HETATM    2  N2  UNL     1     -33.602  10.478 -40.219  1.00  0.00    -0.310 N 
ATOM      3  H2  UNL     1     -32.650  10.639 -39.895  1.00  0.00     0.170 HD
HETATM    4  C2  UNL     1     -33.837  10.249 -41.481  1.00  0.00     0.232 A 
HETATM    5  N4  UNL     1     -35.108  10.043 -41.848  1.00  0.00    -0.299 N 
ATOM      6  H4  UNL     1     -35.482   9.850 -42.777  1.00  0.00     0.176 HD
HETATM    7  S2  UNL     1     -35.933  10.183 -40.389  1.00  0.00     0.024 SA
ENDROOT
BRANCH   4   8
HETATM    8  S1  UNL     1     -32.469  10.218 -42.643  1.00  0.00     0.289 S 
HETATM    9  O1  UNL     1     -31.407   9.273 -42.112  1.00  0.00    -0.198 OA
HETATM   10  O2  UNL     1     -31.870  11.569 -42.704  1.00  0.00    -0.198 OA
BRANCH   8  11
HETATM   11  N3  UNL     1     -32.995   9.646 -44.169  1.00  0.00    -0.322 N 
ATOM     12  H32 UNL     1     -32.859   8.690 -44.497  1.00  0.00     0.169 HD
ATOM     13  H31 UNL     1     -33.456  10.393 -44.689  1.00  0.00     0.169 HD
ENDBRANCH   8  11
ENDBRANCH   4   8
BRANCH   1  14
HETATM   14  N1  UNL     1     -34.646  10.703 -38.083  1.00  0.00    -0.378 N 
ATOM     15  H12 UNL     1     -34.045  10.275 -37.379  1.00  0.00     0.158 HD
ATOM     16  H11 UNL     1     -35.244  11.298 -37.509  1.00  0.00     0.158 HD
ENDBRANCH   1  14
TORSDOF 3
ENDMDL
