MODEL 1
REMARK VINA RESULT: -4.570564169      0.000      0.000
REMARK  8 active torsions:
REMARK  status: ('A' for Active; 'I' for Inactive)
REMARK    1  A    between atoms: C2_3  and  C3_4 
REMARK    2  A    between atoms: C3_4  and  C4_5 
REMARK    3  A    between atoms: C4_5  and  N2_6 
REMARK    4  A    between atoms: C4_5  and  N3_10 
REMARK    5  A    between atoms: C6_20  and  C7_21 
REMARK    6  A    between atoms: C7_21  and  O1_22 
REMARK    7  A    between atoms: C8_24  and  O2_25 
REMARK    8  A    between atoms: C12_33  and  N8_34 
ROOT
HETATM    1  C3  UNL     1      18.994  49.387  11.460  1.00  0.00     0.157 C 
HETATM    2  N4  UNL     1      18.672  48.014  11.878  1.00  0.00    -0.344 N 
ATOM      3  H4  UNL     1      18.589  47.310  11.144  1.00  0.00     0.163 HD
HETATM    4  C5  UNL     1      18.491  47.632  13.059  1.00  0.00     0.185 C 
HETATM    5  N5  UNL     1      18.190  46.247  13.283  1.00  0.00    -0.064 NA
HETATM    6  N6  UNL     1      18.568  48.540  14.126  1.00  0.00    -0.355 N 
ATOM      7  H6  UNL     1      18.696  48.197  15.078  1.00  0.00     0.162 HD
HETATM    8  C6  UNL     1      18.467  49.960  13.881  1.00  0.00     0.139 C 
HETATM    9  C8  UNL     1      19.029  50.390  12.545  1.00  0.00     0.181 C 
ENDROOT
BRANCH   1  10
HETATM   10  C2  UNL     1      18.381  49.722  10.186  1.00  0.00     0.050 A 
HETATM   11  N1  UNL     1      17.117  49.367   9.906  1.00  0.00    -0.318 N 
HETATM   12  C1  UNL     1      16.288  48.674  10.801  1.00  0.00     0.159 C 
HETATM   13  C14 UNL     1      16.598  49.689   8.677  1.00  0.00     0.276 A 
HETATM   14  C13 UNL     1      17.274  50.348   7.707  1.00  0.00     0.133 A 
HETATM   15  O4  UNL     1      15.399  49.350   8.421  1.00  0.00    -0.265 OA
HETATM   16  C10 UNL     1      18.558  50.724   7.955  1.00  0.00     0.067 A 
HETATM   17  N9  UNL     1      16.689  50.611   6.516  1.00  0.00    -0.185 N 
HETATM   18  C9  UNL     1      19.103  50.411   9.191  1.00  0.00     0.047 A 
HETATM   19  C11 UNL     1      19.271  51.379   6.986  1.00  0.00     0.272 A 
HETATM   20  O3  UNL     1      20.457  51.748   7.157  1.00  0.00    -0.267 OA
HETATM   21  N7  UNL     1      18.645  51.618   5.815  1.00  0.00    -0.156 N 
HETATM   22  C12 UNL     1      17.380  51.246   5.574  1.00  0.00     0.679 A 
ATOM     23  H7  UNL     1      19.157  52.105   5.080  1.00  0.00     0.187 HD
ATOM     24  H9  UNL     1      15.725  50.324   6.342  1.00  0.00     0.184 HD
BRANCH  22  25
HETATM   25  N8  UNL     1      16.824  51.494   4.443  1.00  0.00    -0.234 N 
ATOM     26  H82 UNL     1      17.297  52.101   3.775  1.00  0.00     0.174 HD
ATOM     27  H81 UNL     1      15.916  51.093   4.206  1.00  0.00     0.174 HD
ENDBRANCH  22  25
ENDBRANCH   1  10
BRANCH   1  28
HETATM   28  C4  UNL     1      20.526  49.156  11.166  1.00  0.00     0.414 C 
BRANCH  28  29
HETATM   29  N2  UNL     1      21.235  49.335  12.456  1.00  0.00    -0.048 N 
ATOM     30  H23 UNL     1      21.027  50.225  12.910  1.00  0.00     0.276 HD
ATOM     31  H22 UNL     1      20.884  48.729  13.197  1.00  0.00     0.276 HD
ATOM     32  H21 UNL     1      22.227  49.202  12.263  1.00  0.00     0.276 HD
ENDBRANCH  28  29
BRANCH  28  33
HETATM   33  N3  UNL     1      20.789  47.812  10.773  1.00  0.00    -0.048 N 
ATOM     34  H33 UNL     1      19.928  47.268  10.707  1.00  0.00     0.276 HD
ATOM     35  H32 UNL     1      21.084  47.759   9.799  1.00  0.00     0.276 HD
ATOM     36  H31 UNL     1      21.465  47.364  11.392  1.00  0.00     0.276 HD
ENDBRANCH  28  33
ENDBRANCH   1  28
BRANCH   9  37
HETATM   37  O2  UNL     1      18.484  51.634  12.236  1.00  0.00    -0.390 OA
ATOM     38  H2  UNL     1      18.635  52.321  12.875  1.00  0.00     0.210 HD
ENDBRANCH   9  37
BRANCH   8  39
HETATM   39  C7  UNL     1      19.209  50.633  15.032  1.00  0.00     0.191 C 
BRANCH  39  40
HETATM   40  O1  UNL     1      20.482  50.081  15.187  1.00  0.00    -0.399 OA
ATOM     41  H1  UNL     1      20.648  49.871  16.098  1.00  0.00     0.209 HD
ENDBRANCH  39  40
ENDBRANCH   8  39
TORSDOF 8
ENDMDL
MODEL 2
REMARK VINA RESULT: -3.667486997      1.586      2.423
REMARK  8 active torsions:
REMARK  status: ('A' for Active; 'I' for Inactive)
REMARK    1  A    between atoms: C2_3  and  C3_4 
REMARK    2  A    between atoms: C3_4  and  C4_5 
REMARK    3  A    between atoms: C4_5  and  N2_6 
REMARK    4  A    between atoms: C4_5  and  N3_10 
REMARK    5  A    between atoms: C6_20  and  C7_21 
REMARK    6  A    between atoms: C7_21  and  O1_22 
REMARK    7  A    between atoms: C8_24  and  O2_25 
REMARK    8  A    between atoms: C12_33  and  N8_34 
ROOT
HETATM    1  C3  UNL     1      18.645  49.365  11.651  1.00  0.00     0.157 C 
HETATM    2  N4  UNL     1      18.388  50.431  12.632  1.00  0.00    -0.344 N 
ATOM      3  H4  UNL     1      17.521  50.958  12.531  1.00  0.00     0.163 HD
HETATM    4  C5  UNL     1      19.142  50.747  13.583  1.00  0.00     0.185 C 
HETATM    5  N5  UNL     1      18.726  51.813  14.449  1.00  0.00    -0.064 NA
HETATM    6  N6  UNL     1      20.363  50.084  13.781  1.00  0.00    -0.355 N 
ATOM      7  H6  UNL     1      20.833  50.142  14.685  1.00  0.00     0.162 HD
HETATM    8  C6  UNL     1      20.956  49.318  12.710  1.00  0.00     0.139 C 
HETATM    9  C8  UNL     1      19.946  48.678  11.786  1.00  0.00     0.181 C 
ENDROOT
BRANCH   1  10
HETATM   10  C2  UNL     1      18.145  49.713  10.332  1.00  0.00     0.050 A 
HETATM   11  N1  UNL     1      16.936  49.304   9.915  1.00  0.00    -0.318 N 
HETATM   12  C1  UNL     1      16.059  48.540  10.700  1.00  0.00     0.159 C 
HETATM   13  C14 UNL     1      16.525  49.643   8.650  1.00  0.00     0.276 A 
HETATM   14  C13 UNL     1      17.258  50.368   7.773  1.00  0.00     0.133 A 
HETATM   15  O4  UNL     1      15.378  49.253   8.263  1.00  0.00    -0.265 OA
HETATM   16  C10 UNL     1      18.489  50.799   8.161  1.00  0.00     0.067 A 
HETATM   17  N9  UNL     1      16.781  50.642   6.537  1.00  0.00    -0.185 N 
HETATM   18  C9  UNL     1      18.924  50.472   9.436  1.00  0.00     0.047 A 
HETATM   19  C11 UNL     1      19.259  51.523   7.288  1.00  0.00     0.272 A 
HETATM   20  O3  UNL     1      20.400  51.945   7.590  1.00  0.00    -0.267 OA
HETATM   21  N7  UNL     1      18.740  51.771   6.068  1.00  0.00    -0.156 N 
HETATM   22  C12 UNL     1      17.528  51.344   5.689  1.00  0.00     0.679 A 
ATOM     23  H7  UNL     1      19.297  52.308   5.403  1.00  0.00     0.187 HD
ATOM     24  H9  UNL     1      15.857  50.314   6.258  1.00  0.00     0.184 HD
BRANCH  22  25
HETATM   25  N8  UNL     1      17.074  51.602   4.516  1.00  0.00    -0.234 N 
ATOM     26  H82 UNL     1      17.652  51.401   3.700  1.00  0.00     0.174 HD
ATOM     27  H81 UNL     1      16.146  52.006   4.389  1.00  0.00     0.174 HD
ENDBRANCH  22  25
ENDBRANCH   1  10
BRANCH   1  28
HETATM   28  C4  UNL     1      17.640  48.302  12.238  1.00  0.00     0.414 C 
BRANCH  28  29
HETATM   29  N2  UNL     1      18.310  46.984  12.132  1.00  0.00    -0.048 N 
ATOM     30  H23 UNL     1      19.244  47.038  11.725  1.00  0.00     0.276 HD
ATOM     31  H22 UNL     1      18.587  46.598  13.035  1.00  0.00     0.276 HD
ATOM     32  H21 UNL     1      17.677  46.377  11.612  1.00  0.00     0.276 HD
ENDBRANCH  28  29
BRANCH  28  33
HETATM   33  N3  UNL     1      17.417  48.502  13.631  1.00  0.00    -0.048 N 
ATOM     34  H33 UNL     1      17.649  49.455  13.912  1.00  0.00     0.276 HD
ATOM     35  H32 UNL     1      16.421  48.510  13.852  1.00  0.00     0.276 HD
ATOM     36  H31 UNL     1      17.918  47.815  14.195  1.00  0.00     0.276 HD
ENDBRANCH  28  33
ENDBRANCH   1  28
BRANCH   9  37
HETATM   37  O2  UNL     1      20.597  48.373  10.592  1.00  0.00    -0.390 OA
ATOM     38  H2  UNL     1      21.418  48.828  10.441  1.00  0.00     0.210 HD
ENDBRANCH   9  37
BRANCH   8  39
HETATM   39  C7  UNL     1      21.827  48.264  13.388  1.00  0.00     0.191 C 
BRANCH  39  40
HETATM   40  O1  UNL     1      21.137  47.056  13.506  1.00  0.00    -0.399 OA
ATOM     41  H1  UNL     1      20.269  47.126  13.127  1.00  0.00     0.209 HD
ENDBRANCH  39  40
ENDBRANCH   8  39
TORSDOF 8
ENDMDL
MODEL 3
REMARK VINA RESULT: -2.782520378      1.652      1.684
REMARK  8 active torsions:
REMARK  status: ('A' for Active; 'I' for Inactive)
REMARK    1  A    between atoms: C2_3  and  C3_4 
REMARK    2  A    between atoms: C3_4  and  C4_5 
REMARK    3  A    between atoms: C4_5  and  N2_6 
REMARK    4  A    between atoms: C4_5  and  N3_10 
REMARK    5  A    between atoms: C6_20  and  C7_21 
REMARK    6  A    between atoms: C7_21  and  O1_22 
REMARK    7  A    between atoms: C8_24  and  O2_25 
REMARK    8  A    between atoms: C12_33  and  N8_34 
ROOT
HETATM    1  C3  UNL     1      19.708  48.861  11.625  1.00  0.00     0.157 C 
HETATM    2  N4  UNL     1      18.751  47.782  11.917  1.00  0.00    -0.344 N 
ATOM      3  H4  UNL     1      18.228  47.398  11.131  1.00  0.00     0.163 HD
HETATM    4  C5  UNL     1      18.522  47.294  13.050  1.00  0.00     0.185 C 
HETATM    5  N5  UNL     1      17.555  46.238  13.147  1.00  0.00    -0.064 NA
HETATM    6  N6  UNL     1      19.186  47.779  14.187  1.00  0.00    -0.355 N 
ATOM      7  H6  UNL     1      19.213  47.218  15.039  1.00  0.00     0.162 HD
HETATM    8  C6  UNL     1      19.831  49.071  14.156  1.00  0.00     0.139 C 
HETATM    9  C8  UNL     1      20.388  49.443  12.801  1.00  0.00     0.181 C 
ENDROOT
BRANCH   1  10
HETATM   10  C2  UNL     1      19.235  49.730  10.561  1.00  0.00     0.050 A 
HETATM   11  N1  UNL     1      18.164  50.521  10.732  1.00  0.00    -0.318 N 
HETATM   12  C1  UNL     1      17.433  50.594  11.927  1.00  0.00     0.159 C 
HETATM   13  C14 UNL     1      17.748  51.304   9.684  1.00  0.00     0.276 A 
HETATM   14  C13 UNL     1      18.343  51.339   8.468  1.00  0.00     0.133 A 
HETATM   15  O4  UNL     1      16.733  52.051   9.854  1.00  0.00    -0.265 OA
HETATM   16  C10 UNL     1      19.431  50.550   8.259  1.00  0.00     0.067 A 
HETATM   17  N9  UNL     1      17.855  52.129   7.484  1.00  0.00    -0.185 N 
HETATM   18  C9  UNL     1      19.872  49.752   9.304  1.00  0.00     0.047 A 
HETATM   19  C11 UNL     1      20.046  50.555   7.033  1.00  0.00     0.272 A 
HETATM   20  O3  UNL     1      21.050  49.848   6.782  1.00  0.00    -0.267 OA
HETATM   21  N7  UNL     1      19.523  51.359   6.085  1.00  0.00    -0.156 N 
HETATM   22  C12 UNL     1      18.450  52.135   6.295  1.00  0.00     0.679 A 
ATOM     23  H7  UNL     1      19.964  51.378   5.165  1.00  0.00     0.187 HD
ATOM     24  H9  UNL     1      17.039  52.717   7.654  1.00  0.00     0.184 HD
BRANCH  22  25
HETATM   25  N8  UNL     1      17.985  52.884   5.362  1.00  0.00    -0.234 N 
ATOM     26  H82 UNL     1      18.001  53.897   5.479  1.00  0.00     0.174 HD
ATOM     27  H81 UNL     1      17.600  52.481   4.507  1.00  0.00     0.174 HD
ENDBRANCH  22  25
ENDBRANCH   1  10
BRANCH   1  28
HETATM   28  C4  UNL     1      20.839  47.963  10.993  1.00  0.00     0.414 C 
BRANCH  28  29
HETATM   29  N2  UNL     1      22.008  48.056  11.899  1.00  0.00    -0.048 N 
ATOM     30  H23 UNL     1      21.941  47.439  12.708  1.00  0.00     0.276 HD
ATOM     31  H22 UNL     1      22.858  47.654  11.504  1.00  0.00     0.276 HD
ATOM     32  H21 UNL     1      22.106  49.040  12.148  1.00  0.00     0.276 HD
ENDBRANCH  28  29
BRANCH  28  33
HETATM   33  N3  UNL     1      20.474  46.585  10.985  1.00  0.00    -0.048 N 
ATOM     34  H33 UNL     1      20.868  46.092  11.786  1.00  0.00     0.276 HD
ATOM     35  H32 UNL     1      19.483  46.461  11.195  1.00  0.00     0.276 HD
ATOM     36  H31 UNL     1      20.728  46.133  10.107  1.00  0.00     0.276 HD
ENDBRANCH  28  33
ENDBRANCH   1  28
BRANCH   9  37
HETATM   37  O2  UNL     1      20.560  50.825  12.778  1.00  0.00    -0.390 OA
ATOM     38  H2  UNL     1      20.910  51.184  11.970  1.00  0.00     0.210 HD
ENDBRANCH   9  37
BRANCH   8  39
HETATM   39  C7  UNL     1      20.936  49.007  15.206  1.00  0.00     0.191 C 
BRANCH  39  40
HETATM   40  O1  UNL     1      22.163  49.378  14.654  1.00  0.00    -0.399 OA
ATOM     41  H1  UNL     1      22.165  49.239  13.714  1.00  0.00     0.209 HD
ENDBRANCH  39  40
ENDBRANCH   8  39
TORSDOF 8
ENDMDL
MODEL 4
REMARK VINA RESULT: -2.582462947      2.101      6.728
REMARK  8 active torsions:
REMARK  status: ('A' for Active; 'I' for Inactive)
REMARK    1  A    between atoms: C2_3  and  C3_4 
REMARK    2  A    between atoms: C3_4  and  C4_5 
REMARK    3  A    between atoms: C4_5  and  N2_6 
REMARK    4  A    between atoms: C4_5  and  N3_10 
REMARK    5  A    between atoms: C6_20  and  C7_21 
REMARK    6  A    between atoms: C7_21  and  O1_22 
REMARK    7  A    between atoms: C8_24  and  O2_25 
REMARK    8  A    between atoms: C12_33  and  N8_34 
ROOT
HETATM    1  C3  UNL     1      18.126  50.464   9.519  1.00  0.00     0.157 C 
HETATM    2  N4  UNL     1      17.166  49.398   9.193  1.00  0.00    -0.344 N 
ATOM      3  H4  UNL     1      16.824  48.826   9.965  1.00  0.00     0.163 HD
HETATM    4  C5  UNL     1      16.731  49.130   8.047  1.00  0.00     0.185 C 
HETATM    5  N5  UNL     1      15.790  48.055   7.916  1.00  0.00    -0.064 NA
HETATM    6  N6  UNL     1      17.165  49.857   6.927  1.00  0.00    -0.355 N 
ATOM      7  H6  UNL     1      16.623  49.832   6.063  1.00  0.00     0.162 HD
HETATM    8  C6  UNL     1      18.377  50.639   6.994  1.00  0.00     0.139 C 
HETATM    9  C8  UNL     1      18.655  51.217   8.363  1.00  0.00     0.181 C 
ENDROOT
BRANCH   1  10
HETATM   10  C2  UNL     1      19.018  50.077  10.598  1.00  0.00     0.050 A 
HETATM   11  N1  UNL     1      19.993  49.174  10.406  1.00  0.00    -0.318 N 
HETATM   12  C1  UNL     1      20.246  48.551   9.175  1.00  0.00     0.159 C 
HETATM   13  C14 UNL     1      20.791  48.829  11.469  1.00  0.00     0.276 A 
HETATM   14  C13 UNL     1      20.667  49.335  12.718  1.00  0.00     0.133 A 
HETATM   15  O4  UNL     1      21.713  47.974  11.278  1.00  0.00    -0.265 OA
HETATM   16  C10 UNL     1      19.690  50.253  12.950  1.00  0.00     0.067 A 
HETATM   17  N9  UNL     1      21.488  48.926  13.712  1.00  0.00    -0.185 N 
HETATM   18  C9  UNL     1      18.873  50.619  11.891  1.00  0.00     0.047 A 
HETATM   19  C11 UNL     1      19.533  50.772  14.209  1.00  0.00     0.272 A 
HETATM   20  O3  UNL     1      18.649  51.618  14.481  1.00  0.00    -0.267 OA
HETATM   21  N7  UNL     1      20.375  50.332  15.166  1.00  0.00    -0.156 N 
HETATM   22  C12 UNL     1      21.337  49.428  14.935  1.00  0.00     0.679 A 
ATOM     23  H7  UNL     1      20.275  50.705  16.110  1.00  0.00     0.187 HD
ATOM     24  H9  UNL     1      22.218  48.237  13.526  1.00  0.00     0.184 HD
BRANCH  22  25
HETATM   25  N8  UNL     1      22.116  49.037  15.877  1.00  0.00    -0.234 N 
ATOM     26  H82 UNL     1      22.088  49.513  16.779  1.00  0.00     0.174 HD
ATOM     27  H81 UNL     1      22.761  48.259  15.737  1.00  0.00     0.174 HD
ENDBRANCH  22  25
ENDBRANCH   1  10
BRANCH   1  28
HETATM   28  C4  UNL     1      17.096  51.482  10.141  1.00  0.00     0.414 C 
BRANCH  28  29
HETATM   29  N2  UNL     1      17.128  52.692   9.285  1.00  0.00    -0.048 N 
ATOM     30  H23 UNL     1      17.317  52.487   8.304  1.00  0.00     0.276 HD
ATOM     31  H22 UNL     1      16.210  53.116   9.151  1.00  0.00     0.276 HD
ATOM     32  H21 UNL     1      17.808  53.326   9.703  1.00  0.00     0.276 HD
ENDBRANCH  28  29
BRANCH  28  33
HETATM   33  N3  UNL     1      15.759  50.994  10.056  1.00  0.00    -0.048 N 
ATOM     34  H33 UNL     1      15.082  51.755  10.105  1.00  0.00     0.276 HD
ATOM     35  H32 UNL     1      15.545  50.652   9.120  1.00  0.00     0.276 HD
ATOM     36  H31 UNL     1      15.572  50.284  10.764  1.00  0.00     0.276 HD
ENDBRANCH  28  33
ENDBRANCH   1  28
BRANCH   9  37
HETATM   37  O2  UNL     1      20.010  51.541   8.420  1.00  0.00    -0.390 OA
ATOM     38  H2  UNL     1      20.368  51.958   7.645  1.00  0.00     0.210 HD
ENDBRANCH   9  37
BRANCH   8  39
HETATM   39  C7  UNL     1      18.215  51.743   5.954  1.00  0.00     0.191 C 
BRANCH  39  40
HETATM   40  O1  UNL     1      19.415  52.433   5.775  1.00  0.00    -0.399 OA
ATOM     41  H1  UNL     1      19.255  53.301   5.424  1.00  0.00     0.209 HD
ENDBRANCH  39  40
ENDBRANCH   8  39
TORSDOF 8
ENDMDL
MODEL 5
REMARK VINA RESULT: -1.958633547      1.783      2.692
REMARK  8 active torsions:
REMARK  status: ('A' for Active; 'I' for Inactive)
REMARK    1  A    between atoms: C2_3  and  C3_4 
REMARK    2  A    between atoms: C3_4  and  C4_5 
REMARK    3  A    between atoms: C4_5  and  N2_6 
REMARK    4  A    between atoms: C4_5  and  N3_10 
REMARK    5  A    between atoms: C6_20  and  C7_21 
REMARK    6  A    between atoms: C7_21  and  O1_22 
REMARK    7  A    between atoms: C8_24  and  O2_25 
REMARK    8  A    between atoms: C12_33  and  N8_34 
ROOT
HETATM    1  C3  UNL     1      18.814  49.332  11.937  1.00  0.00     0.157 C 
HETATM    2  N4  UNL     1      19.995  50.118  12.324  1.00  0.00    -0.344 N 
ATOM      3  H4  UNL     1      20.015  51.099  12.043  1.00  0.00     0.163 HD
HETATM    4  C5  UNL     1      20.981  49.689  12.970  1.00  0.00     0.185 C 
HETATM    5  N5  UNL     1      22.046  50.604  13.265  1.00  0.00    -0.064 NA
HETATM    6  N6  UNL     1      21.042  48.347  13.377  1.00  0.00    -0.355 N 
ATOM      7  H6  UNL     1      21.686  48.069  14.118  1.00  0.00     0.162 HD
HETATM    8  C6  UNL     1      20.197  47.359  12.749  1.00  0.00     0.139 C 
HETATM    9  C8  UNL     1      18.861  47.898  12.294  1.00  0.00     0.181 C 
ENDROOT
BRANCH   1  10
HETATM   10  C2  UNL     1      18.296  49.737  10.641  1.00  0.00     0.050 A 
HETATM   11  N1  UNL     1      17.019  49.504  10.298  1.00  0.00    -0.318 N 
HETATM   12  C1  UNL     1      16.087  48.882  11.143  1.00  0.00     0.159 C 
HETATM   13  C14 UNL     1      16.590  49.888   9.052  1.00  0.00     0.276 A 
HETATM   14  C13 UNL     1      17.369  50.491   8.124  1.00  0.00     0.133 A 
HETATM   15  O4  UNL     1      15.379  49.665   8.735  1.00  0.00    -0.265 OA
HETATM   16  C10 UNL     1      18.669  50.743   8.437  1.00  0.00     0.067 A 
HETATM   17  N9  UNL     1      16.868  50.821   6.912  1.00  0.00    -0.185 N 
HETATM   18  C9  UNL     1      19.125  50.366   9.691  1.00  0.00     0.047 A 
HETATM   19  C11 UNL     1      19.485  51.340   7.511  1.00  0.00     0.272 A 
HETATM   20  O3  UNL     1      20.690  51.594   7.742  1.00  0.00    -0.267 OA
HETATM   21  N7  UNL     1      18.939  51.649   6.317  1.00  0.00    -0.156 N 
HETATM   22  C12 UNL     1      17.658  51.399   6.012  1.00  0.00     0.679 A 
ATOM     23  H7  UNL     1      19.529  52.094   5.613  1.00  0.00     0.187 HD
ATOM     24  H9  UNL     1      15.891  50.627   6.689  1.00  0.00     0.184 HD
BRANCH  22  25
HETATM   25  N8  UNL     1      17.181  51.710   4.861  1.00  0.00    -0.234 N 
ATOM     26  H82 UNL     1      17.763  51.600   4.032  1.00  0.00     0.174 HD
ATOM     27  H81 UNL     1      16.230  52.067   4.767  1.00  0.00     0.174 HD
ENDBRANCH  22  25
ENDBRANCH   1  10
BRANCH   1  28
HETATM   28  C4  UNL     1      17.820  49.915  13.012  1.00  0.00     0.414 C 
BRANCH  28  29
HETATM   29  N2  UNL     1      17.709  48.894  14.082  1.00  0.00    -0.048 N 
ATOM     30  H23 UNL     1      17.157  49.206  14.881  1.00  0.00     0.276 HD
ATOM     31  H22 UNL     1      17.121  48.101  13.823  1.00  0.00     0.276 HD
ATOM     32  H21 UNL     1      18.662  48.626  14.328  1.00  0.00     0.276 HD
ENDBRANCH  28  29
BRANCH  28  33
HETATM   33  N3  UNL     1      18.354  51.073  13.648  1.00  0.00    -0.048 N 
ATOM     34  H33 UNL     1      19.088  51.503  13.085  1.00  0.00     0.276 HD
ATOM     35  H32 UNL     1      17.684  51.841  13.647  1.00  0.00     0.276 HD
ATOM     36  H31 UNL     1      18.683  50.867  14.592  1.00  0.00     0.276 HD
ENDBRANCH  28  33
ENDBRANCH   1  28
BRANCH   9  37
HETATM   37  O2  UNL     1      18.351  47.020  11.340  1.00  0.00    -0.390 OA
ATOM     38  H2  UNL     1      18.928  46.820  10.612  1.00  0.00     0.210 HD
ENDBRANCH   9  37
BRANCH   8  39
HETATM   39  C7  UNL     1      20.019  46.251  13.784  1.00  0.00     0.191 C 
BRANCH  39  40
HETATM   40  O1  UNL     1      18.670  45.923  13.928  1.00  0.00    -0.399 OA
ATOM     41  H1  UNL     1      18.520  45.011  13.710  1.00  0.00     0.209 HD
ENDBRANCH  39  40
ENDBRANCH   8  39
TORSDOF 8
ENDMDL
