MODEL 1
REMARK VINA RESULT: -8.145157247      0.000      0.000
REMARK  15 active torsions:
REMARK  status: ('A' for Active; 'I' for Inactive)
REMARK    1  A    between atoms: O1_2  and  C2_3 
REMARK    2  A    between atoms: C2_3  and  O3_5 
REMARK    3  A    between atoms: O3_5  and  C3_6 
REMARK    4  A    between atoms: C5_8  and  N1_9 
REMARK    5  A    between atoms: C5_8  and  C6_13 
REMARK    6  A    between atoms: C6_13  and  N2_14 
REMARK    7  A    between atoms: N2_14  and  N3_15 
REMARK    8  A    between atoms: C7_18  and  O4_19 
REMARK    9  A    between atoms: C8_23  and  O5_24 
REMARK   10  A    between atoms: O5_24  and  C9_25 
REMARK   11  A    between atoms: C10_26  and  N5_27 
REMARK   12  A    between atoms: N5_27  and  C11_30 
REMARK   13  A    between atoms: C15_34  and  N6_35 
REMARK   14  A    between atoms: C19_42  and  O6_43 
REMARK   15  A    between atoms: O6_43  and  C20_44 
ROOT
HETATM    1  C9  UNL     1     -18.170   8.653  15.889  1.00  0.00     0.184 C 
HETATM    2  C10 UNL     1     -18.612   7.305  15.381  1.00  0.00     0.240 C 
HETATM    3  C16 UNL     1     -17.951   7.201  14.061  1.00  0.00     0.013 C 
HETATM    4  C17 UNL     1     -16.875   7.959  14.074  1.00  0.00    -0.053 C 
HETATM    5  C18 UNL     1     -15.822   8.267  13.082  1.00  0.00     0.098 C 
HETATM    6  C19 UNL     1     -14.654   8.821  13.900  1.00  0.00     0.291 C 
HETATM    7  O8  UNL     1     -15.010   9.933  14.614  1.00  0.00    -0.253 OA
HETATM    8  N7  UNL     1     -16.253   9.982  15.077  1.00  0.00    -0.086 NA
HETATM    9  C23 UNL     1     -16.730   8.651  15.399  1.00  0.00     0.167 C 
ENDROOT
BRANCH   1  10
HETATM   10  O5  UNL     1     -18.263   8.825  17.247  1.00  0.00    -0.355 OA
BRANCH  10  11
HETATM   11  C8  UNL     1     -18.534  10.106  17.653  1.00  0.00     0.249 C 
HETATM   12  C3  UNL     1     -17.528  10.686  18.620  1.00  0.00     0.185 C 
HETATM   13  C4  UNL     1     -17.933  12.070  19.071  1.00  0.00     0.081 C 
HETATM   14  C5  UNL     1     -18.915  12.720  18.158  1.00  0.00     0.183 C 
HETATM   15  C7  UNL     1     -18.760  12.330  16.719  1.00  0.00     0.253 C 
HETATM   16  N4  UNL     1     -18.611  10.937  16.466  1.00  0.00    -0.367 N 
ATOM     17  H4  UNL     1     -18.563  10.552  15.523  1.00  0.00     0.158 HD
BRANCH  12  18
HETATM   18  O3  UNL     1     -16.216  10.657  18.108  1.00  0.00    -0.288 OA
BRANCH  18  19
HETATM   19  C2  UNL     1     -15.343  11.704  18.266  1.00  0.00     0.406 C 
HETATM   20  O2  UNL     1     -14.671  11.721  19.334  1.00  0.00    -0.229 OA
BRANCH  19  21
HETATM   21  O1  UNL     1     -15.142  12.720  17.374  1.00  0.00    -0.303 OA
HETATM   22  C1  UNL     1     -14.184  12.605  16.338  1.00  0.00     0.215 C 
ENDBRANCH  19  21
ENDBRANCH  18  19
ENDBRANCH  12  18
BRANCH  14  23
HETATM   23  N1  UNL     1     -20.297  12.548  18.603  1.00  0.00    -0.065 N 
ATOM     24  H13 UNL     1     -20.729  11.742  18.151  1.00  0.00     0.275 HD
ATOM     25  H12 UNL     1     -20.332  12.232  19.572  1.00  0.00     0.275 HD
ATOM     26  H11 UNL     1     -20.859  13.387  18.470  1.00  0.00     0.275 HD
ENDBRANCH  14  23
BRANCH  14  27
HETATM   27  C6  UNL     1     -18.671  14.233  18.232  1.00  0.00     0.177 C 
BRANCH  27  28
HETATM   28  N2  UNL     1     -17.519  14.460  19.085  1.00  0.00    -0.146 NA
BRANCH  28  29
HETATM   29  N3  UNL     1     -16.552  15.203  18.395  1.00  0.00    -0.348 N 
ATOM     30  H32 UNL     1     -16.763  16.001  17.796  1.00  0.00     0.172 HD
ATOM     31  H31 UNL     1     -15.624  14.826  18.583  1.00  0.00     0.172 HD
ENDBRANCH  28  29
ENDBRANCH  27  28
ENDBRANCH  14  27
BRANCH  15  32
HETATM   32  O4  UNL     1     -17.626  12.985  16.194  1.00  0.00    -0.374 OA
ATOM     33  H4  UNL     1     -16.855  12.667  16.647  1.00  0.00     0.212 HD
ENDBRANCH  15  32
ENDBRANCH  10  11
ENDBRANCH   1  10
BRANCH   2  34
HETATM   34  N5  UNL     1     -20.048   7.183  15.318  1.00  0.00    -0.059 N 
ATOM     35  H52 UNL     1     -20.340   6.214  15.442  1.00  0.00     0.278 HD
ATOM     36  H51 UNL     1     -20.487   7.593  16.142  1.00  0.00     0.278 HD
BRANCH  34  37
HETATM   37  C11 UNL     1     -20.597   7.740  14.104  1.00  0.00     0.217 C 
HETATM   38  C12 UNL     1     -21.614   6.839  13.436  1.00  0.00     0.035 C 
HETATM   39  C13 UNL     1     -22.369   7.805  12.519  1.00  0.00     0.004 C 
HETATM   40  C14 UNL     1     -22.107   9.183  13.037  1.00  0.00     0.035 C 
HETATM   41  C15 UNL     1     -21.457   8.965  14.400  1.00  0.00     0.214 C 
BRANCH  41  42
HETATM   42  N6  UNL     1     -22.498   8.671  15.335  1.00  0.00    -0.073 N 
ATOM     43  H63 UNL     1     -22.935   9.525  15.682  1.00  0.00     0.274 HD
ATOM     44  H62 UNL     1     -23.306   8.255  14.871  1.00  0.00     0.274 HD
ATOM     45  H61 UNL     1     -22.167   8.085  16.101  1.00  0.00     0.274 HD
ENDBRANCH  41  42
ENDBRANCH  34  37
ENDBRANCH   2  34
BRANCH   6  46
HETATM   46  O6  UNL     1     -13.556   9.088  13.116  1.00  0.00    -0.326 OA
BRANCH  46  47
HETATM   47  C20 UNL     1     -12.378   9.231  13.855  1.00  0.00     0.294 A 
HETATM   48  C21 UNL     1     -11.148   9.290  13.064  1.00  0.00     0.057 A 
HETATM   49  C22 UNL     1     -10.898  10.501  13.473  1.00  0.00     0.139 A 
HETATM   50  O7  UNL     1     -12.035  10.506  14.231  1.00  0.00    -0.329 OA
ENDBRANCH  46  47
ENDBRANCH   6  46
TORSDOF 15
ENDMDL
MODEL 2
REMARK VINA RESULT: -8.047262400      1.608      2.770
REMARK  15 active torsions:
REMARK  status: ('A' for Active; 'I' for Inactive)
REMARK    1  A    between atoms: O1_2  and  C2_3 
REMARK    2  A    between atoms: C2_3  and  O3_5 
REMARK    3  A    between atoms: O3_5  and  C3_6 
REMARK    4  A    between atoms: C5_8  and  N1_9 
REMARK    5  A    between atoms: C5_8  and  C6_13 
REMARK    6  A    between atoms: C6_13  and  N2_14 
REMARK    7  A    between atoms: N2_14  and  N3_15 
REMARK    8  A    between atoms: C7_18  and  O4_19 
REMARK    9  A    between atoms: C8_23  and  O5_24 
REMARK   10  A    between atoms: O5_24  and  C9_25 
REMARK   11  A    between atoms: C10_26  and  N5_27 
REMARK   12  A    between atoms: N5_27  and  C11_30 
REMARK   13  A    between atoms: C15_34  and  N6_35 
REMARK   14  A    between atoms: C19_42  and  O6_43 
REMARK   15  A    between atoms: O6_43  and  C20_44 
ROOT
HETATM    1  C9  UNL     1     -18.201   8.577  15.646  1.00  0.00     0.184 C 
HETATM    2  C10 UNL     1     -18.418   7.115  15.358  1.00  0.00     0.240 C 
HETATM    3  C16 UNL     1     -17.636   6.889  14.121  1.00  0.00     0.013 C 
HETATM    4  C17 UNL     1     -16.674   7.784  14.068  1.00  0.00    -0.053 C 
HETATM    5  C18 UNL     1     -15.587   8.071  13.106  1.00  0.00     0.098 C 
HETATM    6  C19 UNL     1     -14.577   8.915  13.886  1.00  0.00     0.291 C 
HETATM    7  O8  UNL     1     -15.136  10.067  14.368  1.00  0.00    -0.253 OA
HETATM    8  N7  UNL     1     -16.409  10.014  14.735  1.00  0.00    -0.086 NA
HETATM    9  C23 UNL     1     -16.735   8.700  15.257  1.00  0.00     0.167 C 
ENDROOT
BRANCH   1  10
HETATM   10  O5  UNL     1     -18.433   8.957  16.944  1.00  0.00    -0.355 OA
BRANCH  10  11
HETATM   11  C8  UNL     1     -17.806  10.114  17.331  1.00  0.00     0.249 C 
HETATM   12  C3  UNL     1     -18.567  11.379  17.009  1.00  0.00     0.185 C 
HETATM   13  C4  UNL     1     -17.782  12.609  17.403  1.00  0.00     0.081 C 
HETATM   14  C5  UNL     1     -16.711  12.326  18.400  1.00  0.00     0.183 C 
HETATM   15  C7  UNL     1     -17.042  11.214  19.349  1.00  0.00     0.253 C 
HETATM   16  N4  UNL     1     -17.572  10.032  18.760  1.00  0.00    -0.367 N 
ATOM     17  H4  UNL     1     -17.771   9.190  19.301  1.00  0.00     0.158 HD
BRANCH  12  18
HETATM   18  O3  UNL     1     -19.863  11.379  17.559  1.00  0.00    -0.288 OA
BRANCH  18  19
HETATM   19  C2  UNL     1     -20.968  11.004  16.836  1.00  0.00     0.406 C 
HETATM   20  O2  UNL     1     -21.522   9.921  17.172  1.00  0.00    -0.229 OA
BRANCH  19  21
HETATM   21  O1  UNL     1     -21.514  11.698  15.792  1.00  0.00    -0.303 OA
HETATM   22  C1  UNL     1     -21.795  13.081  15.901  1.00  0.00     0.215 C 
ENDBRANCH  19  21
ENDBRANCH  18  19
ENDBRANCH  12  18
BRANCH  14  23
HETATM   23  N1  UNL     1     -15.405  12.115  17.778  1.00  0.00    -0.065 N 
ATOM     24  H13 UNL     1     -15.405  11.274  17.201  1.00  0.00     0.275 HD
ATOM     25  H12 UNL     1     -15.228  12.811  17.054  1.00  0.00     0.275 HD
ATOM     26  H11 UNL     1     -14.646  12.093  18.459  1.00  0.00     0.275 HD
ENDBRANCH  14  23
BRANCH  14  27
HETATM   27  C6  UNL     1     -16.536  13.591  19.249  1.00  0.00     0.177 C 
BRANCH  27  28
HETATM   28  N2  UNL     1     -17.528  14.560  18.820  1.00  0.00    -0.146 NA
BRANCH  28  29
HETATM   29  N3  UNL     1     -16.910  15.786  18.540  1.00  0.00    -0.348 N 
ATOM     30  H32 UNL     1     -15.947  15.882  18.218  1.00  0.00     0.172 HD
ATOM     31  H31 UNL     1     -17.563  16.551  18.707  1.00  0.00     0.172 HD
ENDBRANCH  28  29
ENDBRANCH  27  28
ENDBRANCH  14  27
BRANCH  15  32
HETATM   32  O4  UNL     1     -17.984  11.686  20.287  1.00  0.00    -0.374 OA
ATOM     33  H4  UNL     1     -18.406  10.939  20.695  1.00  0.00     0.212 HD
ENDBRANCH  15  32
ENDBRANCH  10  11
ENDBRANCH   1  10
BRANCH   2  34
HETATM   34  N5  UNL     1     -19.814   6.780  15.227  1.00  0.00    -0.059 N 
ATOM     35  H52 UNL     1     -19.961   5.774  15.320  1.00  0.00     0.278 HD
ATOM     36  H51 UNL     1     -20.346   7.099  16.036  1.00  0.00     0.278 HD
BRANCH  34  37
HETATM   37  C11 UNL     1     -20.389   7.277  13.998  1.00  0.00     0.217 C 
HETATM   38  C12 UNL     1     -21.161   6.226  13.227  1.00  0.00     0.035 C 
HETATM   39  C13 UNL     1     -22.038   7.068  12.296  1.00  0.00     0.004 C 
HETATM   40  C14 UNL     1     -22.090   8.443  12.882  1.00  0.00     0.035 C 
HETATM   41  C15 UNL     1     -21.494   8.290  14.278  1.00  0.00     0.214 C 
BRANCH  41  42
HETATM   42  N6  UNL     1     -22.510   7.750  15.126  1.00  0.00    -0.073 N 
ATOM     43  H63 UNL     1     -22.266   7.857  16.111  1.00  0.00     0.274 HD
ATOM     44  H62 UNL     1     -23.353   8.325  15.107  1.00  0.00     0.274 HD
ATOM     45  H61 UNL     1     -22.719   6.778  14.898  1.00  0.00     0.274 HD
ENDBRANCH  41  42
ENDBRANCH  34  37
ENDBRANCH   2  34
BRANCH   6  46
HETATM   46  O6  UNL     1     -13.459   9.202  13.138  1.00  0.00    -0.326 OA
BRANCH  46  47
HETATM   47  C20 UNL     1     -12.306   9.352  13.914  1.00  0.00     0.294 A 
HETATM   48  C21 UNL     1     -11.057   9.470  13.160  1.00  0.00     0.057 A 
HETATM   49  C22 UNL     1     -10.852  10.673  13.615  1.00  0.00     0.139 A 
HETATM   50  O7  UNL     1     -12.009  10.623  14.340  1.00  0.00    -0.329 OA
ENDBRANCH  46  47
ENDBRANCH   6  46
TORSDOF 15
ENDMDL
MODEL 3
REMARK VINA RESULT: -7.932130422      2.933      6.260
REMARK  15 active torsions:
REMARK  status: ('A' for Active; 'I' for Inactive)
REMARK    1  A    between atoms: O1_2  and  C2_3 
REMARK    2  A    between atoms: C2_3  and  O3_5 
REMARK    3  A    between atoms: O3_5  and  C3_6 
REMARK    4  A    between atoms: C5_8  and  N1_9 
REMARK    5  A    between atoms: C5_8  and  C6_13 
REMARK    6  A    between atoms: C6_13  and  N2_14 
REMARK    7  A    between atoms: N2_14  and  N3_15 
REMARK    8  A    between atoms: C7_18  and  O4_19 
REMARK    9  A    between atoms: C8_23  and  O5_24 
REMARK   10  A    between atoms: O5_24  and  C9_25 
REMARK   11  A    between atoms: C10_26  and  N5_27 
REMARK   12  A    between atoms: N5_27  and  C11_30 
REMARK   13  A    between atoms: C15_34  and  N6_35 
REMARK   14  A    between atoms: C19_42  and  O6_43 
REMARK   15  A    between atoms: O6_43  and  C20_44 
ROOT
HETATM    1  C9  UNL     1     -19.851   9.060  15.045  1.00  0.00     0.184 C 
HETATM    2  C10 UNL     1     -19.980   7.660  14.505  1.00  0.00     0.240 C 
HETATM    3  C16 UNL     1     -21.433   7.515  14.267  1.00  0.00     0.013 C 
HETATM    4  C17 UNL     1     -21.944   8.711  14.069  1.00  0.00    -0.053 C 
HETATM    5  C18 UNL     1     -23.306   9.214  13.786  1.00  0.00     0.098 C 
HETATM    6  C19 UNL     1     -23.100  10.616  13.209  1.00  0.00     0.291 C 
HETATM    7  O8  UNL     1     -22.435  11.436  14.079  1.00  0.00    -0.253 OA
HETATM    8  N7  UNL     1     -21.517  10.875  14.855  1.00  0.00    -0.086 NA
HETATM    9  C23 UNL     1     -20.880   9.766  14.173  1.00  0.00     0.167 C 
ENDROOT
BRANCH   1  10
HETATM   10  O5  UNL     1     -18.602   9.616  14.937  1.00  0.00    -0.355 OA
BRANCH  10  11
HETATM   11  C8  UNL     1     -18.223  10.401  15.995  1.00  0.00     0.249 C 
HETATM   12  C3  UNL     1     -16.730  10.489  16.209  1.00  0.00     0.185 C 
HETATM   13  C4  UNL     1     -16.396  11.313  17.431  1.00  0.00     0.081 C 
HETATM   14  C5  UNL     1     -17.511  12.206  17.857  1.00  0.00     0.183 C 
HETATM   15  C7  UNL     1     -18.357  12.706  16.726  1.00  0.00     0.253 C 
HETATM   16  N4  UNL     1     -18.768  11.727  15.778  1.00  0.00    -0.367 N 
ATOM     17  H4  UNL     1     -19.397  11.942  15.005  1.00  0.00     0.158 HD
BRANCH  12  18
HETATM   18  O3  UNL     1     -16.051  10.944  15.062  1.00  0.00    -0.288 OA
BRANCH  18  19
HETATM   19  C2  UNL     1     -14.890  10.362  14.617  1.00  0.00     0.406 C 
HETATM   20  O2  UNL     1     -14.996   9.220  14.091  1.00  0.00    -0.229 OA
BRANCH  19  21
HETATM   21  O1  UNL     1     -13.640  10.911  14.694  1.00  0.00    -0.303 OA
HETATM   22  C1  UNL     1     -12.546  10.338  14.002  1.00  0.00     0.215 C 
ENDBRANCH  19  21
ENDBRANCH  18  19
ENDBRANCH  12  18
BRANCH  14  23
HETATM   23  N1  UNL     1     -18.336  11.614  18.908  1.00  0.00    -0.065 N 
ATOM     24  H13 UNL     1     -17.810  11.517  19.777  1.00  0.00     0.275 HD
ATOM     25  H12 UNL     1     -19.053  12.268  19.223  1.00  0.00     0.275 HD
ATOM     26  H11 UNL     1     -18.748  10.724  18.629  1.00  0.00     0.275 HD
ENDBRANCH  14  23
BRANCH  14  27
HETATM   27  C6  UNL     1     -16.878  13.441  18.512  1.00  0.00     0.177 C 
BRANCH  27  28
HETATM   28  N2  UNL     1     -15.548  13.611  17.957  1.00  0.00    -0.146 NA
BRANCH  28  29
HETATM   29  N3  UNL     1     -15.354  14.945  17.580  1.00  0.00    -0.348 N 
ATOM     30  H32 UNL     1     -15.896  15.728  17.944  1.00  0.00     0.172 HD
ATOM     31  H31 UNL     1     -14.599  15.008  16.897  1.00  0.00     0.172 HD
ENDBRANCH  28  29
ENDBRANCH  27  28
ENDBRANCH  14  27
BRANCH  15  32
HETATM   32  O4  UNL     1     -17.638  13.702  16.031  1.00  0.00    -0.374 OA
ATOM     33  H4  UNL     1     -17.113  13.284  15.359  1.00  0.00     0.212 HD
ENDBRANCH  15  32
ENDBRANCH  10  11
ENDBRANCH   1  10
BRANCH   2  34
HETATM   34  N5  UNL     1     -19.441   6.670  15.404  1.00  0.00    -0.059 N 
ATOM     35  H52 UNL     1     -18.970   7.110  16.195  1.00  0.00     0.278 HD
ATOM     36  H51 UNL     1     -20.185   6.186  15.906  1.00  0.00     0.278 HD
BRANCH  34  37
HETATM   37  C11 UNL     1     -18.569   5.732  14.736  1.00  0.00     0.217 C 
HETATM   38  C12 UNL     1     -18.301   6.085  13.288  1.00  0.00     0.035 C 
HETATM   39  C13 UNL     1     -17.036   5.282  12.975  1.00  0.00     0.004 C 
HETATM   40  C14 UNL     1     -16.408   4.937  14.288  1.00  0.00     0.035 C 
HETATM   41  C15 UNL     1     -17.156   5.791  15.307  1.00  0.00     0.214 C 
BRANCH  41  42
HETATM   42  N6  UNL     1     -16.612   7.112  15.248  1.00  0.00    -0.073 N 
ATOM     43  H63 UNL     1     -17.349   7.817  15.270  1.00  0.00     0.274 HD
ATOM     44  H62 UNL     1     -16.133   7.354  16.115  1.00  0.00     0.274 HD
ATOM     45  H61 UNL     1     -16.003   7.236  14.441  1.00  0.00     0.274 HD
ENDBRANCH  41  42
ENDBRANCH  34  37
ENDBRANCH   2  34
BRANCH   6  46
HETATM   46  O6  UNL     1     -24.287  11.193  12.820  1.00  0.00    -0.326 OA
BRANCH  46  47
HETATM   47  C20 UNL     1     -24.386  12.539  13.185  1.00  0.00     0.294 A 
HETATM   48  C21 UNL     1     -24.793  13.448  12.113  1.00  0.00     0.057 A 
HETATM   49  C22 UNL     1     -25.884  13.768  12.747  1.00  0.00     0.139 A 
HETATM   50  O7  UNL     1     -25.559  12.934  13.779  1.00  0.00    -0.329 OA
ENDBRANCH  46  47
ENDBRANCH   6  46
TORSDOF 15
ENDMDL
MODEL 4
REMARK VINA RESULT: -7.914116069      1.712      2.776
REMARK  15 active torsions:
REMARK  status: ('A' for Active; 'I' for Inactive)
REMARK    1  A    between atoms: O1_2  and  C2_3 
REMARK    2  A    between atoms: C2_3  and  O3_5 
REMARK    3  A    between atoms: O3_5  and  C3_6 
REMARK    4  A    between atoms: C5_8  and  N1_9 
REMARK    5  A    between atoms: C5_8  and  C6_13 
REMARK    6  A    between atoms: C6_13  and  N2_14 
REMARK    7  A    between atoms: N2_14  and  N3_15 
REMARK    8  A    between atoms: C7_18  and  O4_19 
REMARK    9  A    between atoms: C8_23  and  O5_24 
REMARK   10  A    between atoms: O5_24  and  C9_25 
REMARK   11  A    between atoms: C10_26  and  N5_27 
REMARK   12  A    between atoms: N5_27  and  C11_30 
REMARK   13  A    between atoms: C15_34  and  N6_35 
REMARK   14  A    between atoms: C19_42  and  O6_43 
REMARK   15  A    between atoms: O6_43  and  C20_44 
ROOT
HETATM    1  C9  UNL     1     -18.388   8.339  15.303  1.00  0.00     0.184 C 
HETATM    2  C10 UNL     1     -18.572   6.866  15.046  1.00  0.00     0.240 C 
HETATM    3  C16 UNL     1     -17.720   6.615  13.862  1.00  0.00     0.013 C 
HETATM    4  C17 UNL     1     -16.767   7.522  13.835  1.00  0.00    -0.053 C 
HETATM    5  C18 UNL     1     -15.632   7.796  12.926  1.00  0.00     0.098 C 
HETATM    6  C19 UNL     1     -14.677   8.675  13.735  1.00  0.00     0.291 C 
HETATM    7  O8  UNL     1     -15.275   9.833  14.151  1.00  0.00    -0.253 OA
HETATM    8  N7  UNL     1     -16.566   9.773  14.450  1.00  0.00    -0.086 NA
HETATM    9  C23 UNL     1     -16.905   8.471  14.991  1.00  0.00     0.167 C 
ENDROOT
BRANCH   1  10
HETATM   10  O5  UNL     1     -18.696   8.754  16.574  1.00  0.00    -0.355 OA
BRANCH  10  11
HETATM   11  C8  UNL     1     -18.094   9.922  16.965  1.00  0.00     0.249 C 
HETATM   12  C3  UNL     1     -18.878  11.172  16.643  1.00  0.00     0.185 C 
HETATM   13  C4  UNL     1     -18.120  12.416  17.043  1.00  0.00     0.081 C 
HETATM   14  C5  UNL     1     -17.047  12.153  18.043  1.00  0.00     0.183 C 
HETATM   15  C7  UNL     1     -17.359  11.032  18.989  1.00  0.00     0.253 C 
HETATM   16  N4  UNL     1     -17.863   9.841  18.395  1.00  0.00    -0.367 N 
ATOM     17  H4  UNL     1     -18.048   8.995  18.934  1.00  0.00     0.158 HD
BRANCH  12  18
HETATM   18  O3  UNL     1     -20.177  11.145  17.188  1.00  0.00    -0.288 OA
BRANCH  18  19
HETATM   19  C2  UNL     1     -20.874  12.289  17.483  1.00  0.00     0.406 C 
HETATM   20  O2  UNL     1     -21.572  12.780  16.553  1.00  0.00    -0.229 OA
BRANCH  19  21
HETATM   21  O1  UNL     1     -20.877  12.937  18.687  1.00  0.00    -0.303 OA
HETATM   22  C1  UNL     1     -21.135  14.326  18.770  1.00  0.00     0.215 C 
ENDBRANCH  19  21
ENDBRANCH  18  19
ENDBRANCH  12  18
BRANCH  14  23
HETATM   23  N1  UNL     1     -15.735  11.969  17.426  1.00  0.00    -0.065 N 
ATOM     24  H13 UNL     1     -15.802  11.397  16.584  1.00  0.00     0.275 HD
ATOM     25  H12 UNL     1     -15.402  12.838  17.008  1.00  0.00     0.275 HD
ATOM     26  H11 UNL     1     -15.047  11.587  18.074  1.00  0.00     0.275 HD
ENDBRANCH  14  23
BRANCH  14  27
HETATM   27  C6  UNL     1     -16.900  13.420  18.895  1.00  0.00     0.177 C 
BRANCH  27  28
HETATM   28  N2  UNL     1     -15.740  13.253  19.751  1.00  0.00    -0.146 NA
BRANCH  28  29
HETATM   29  N3  UNL     1     -16.148  13.003  21.067  1.00  0.00    -0.348 N 
ATOM     30  H32 UNL     1     -16.352  12.076  21.437  1.00  0.00     0.172 HD
ATOM     31  H31 UNL     1     -16.207  13.879  21.586  1.00  0.00     0.172 HD
ENDBRANCH  28  29
ENDBRANCH  27  28
ENDBRANCH  14  27
BRANCH  15  32
HETATM   32  O4  UNL     1     -18.314  11.483  19.924  1.00  0.00    -0.374 OA
ATOM     33  H4  UNL     1     -17.993  11.300  20.799  1.00  0.00     0.212 HD
ENDBRANCH  15  32
ENDBRANCH  10  11
ENDBRANCH   1  10
BRANCH   2  34
HETATM   34  N5  UNL     1     -19.954   6.508  14.849  1.00  0.00    -0.059 N 
ATOM     35  H52 UNL     1     -20.050   5.515  14.635  1.00  0.00     0.278 HD
ATOM     36  H51 UNL     1     -20.470   6.538  15.728  1.00  0.00     0.278 HD
BRANCH  34  37
HETATM   37  C11 UNL     1     -20.597   7.321  13.841  1.00  0.00     0.217 C 
HETATM   38  C12 UNL     1     -21.534   6.538  12.946  1.00  0.00     0.035 C 
HETATM   39  C13 UNL     1     -22.415   7.634  12.340  1.00  0.00     0.004 C 
HETATM   40  C14 UNL     1     -22.283   8.831  13.227  1.00  0.00     0.035 C 
HETATM   41  C15 UNL     1     -21.571   8.311  14.472  1.00  0.00     0.214 C 
BRANCH  41  42
HETATM   42  N6  UNL     1     -22.546   7.654  15.286  1.00  0.00    -0.073 N 
ATOM     43  H63 UNL     1     -23.426   7.533  14.785  1.00  0.00     0.274 HD
ATOM     44  H62 UNL     1     -22.307   6.673  15.431  1.00  0.00     0.274 HD
ATOM     45  H61 UNL     1     -22.687   8.137  16.174  1.00  0.00     0.274 HD
ENDBRANCH  41  42
ENDBRANCH  34  37
ENDBRANCH   2  34
BRANCH   6  46
HETATM   46  O6  UNL     1     -13.523   8.955  13.041  1.00  0.00    -0.326 OA
BRANCH  46  47
HETATM   47  C20 UNL     1     -12.430   9.205  13.876  1.00  0.00     0.294 A 
HETATM   48  C21 UNL     1     -11.129   9.247  13.207  1.00  0.00     0.057 A 
HETATM   49  C22 UNL     1     -10.960  10.497  13.533  1.00  0.00     0.139 A 
HETATM   50  O7  UNL     1     -12.166  10.519  14.173  1.00  0.00    -0.329 OA
ENDBRANCH  46  47
ENDBRANCH   6  46
TORSDOF 15
ENDMDL
MODEL 5
REMARK VINA RESULT: -7.856470466      1.707      1.957
REMARK  15 active torsions:
REMARK  status: ('A' for Active; 'I' for Inactive)
REMARK    1  A    between atoms: O1_2  and  C2_3 
REMARK    2  A    between atoms: C2_3  and  O3_5 
REMARK    3  A    between atoms: O3_5  and  C3_6 
REMARK    4  A    between atoms: C5_8  and  N1_9 
REMARK    5  A    between atoms: C5_8  and  C6_13 
REMARK    6  A    between atoms: C6_13  and  N2_14 
REMARK    7  A    between atoms: N2_14  and  N3_15 
REMARK    8  A    between atoms: C7_18  and  O4_19 
REMARK    9  A    between atoms: C8_23  and  O5_24 
REMARK   10  A    between atoms: O5_24  and  C9_25 
REMARK   11  A    between atoms: C10_26  and  N5_27 
REMARK   12  A    between atoms: N5_27  and  C11_30 
REMARK   13  A    between atoms: C15_34  and  N6_35 
REMARK   14  A    between atoms: C19_42  and  O6_43 
REMARK   15  A    between atoms: O6_43  and  C20_44 
ROOT
HETATM    1  C9  UNL     1     -18.231   8.511  15.355  1.00  0.00     0.184 C 
HETATM    2  C10 UNL     1     -18.353   7.010  15.315  1.00  0.00     0.240 C 
HETATM    3  C16 UNL     1     -17.478   6.625  14.184  1.00  0.00     0.013 C 
HETATM    4  C17 UNL     1     -16.562   7.555  14.032  1.00  0.00    -0.053 C 
HETATM    5  C18 UNL     1     -15.428   7.739  13.098  1.00  0.00     0.098 C 
HETATM    6  C19 UNL     1     -14.518   8.765  13.776  1.00  0.00     0.291 C 
HETATM    7  O8  UNL     1     -15.165   9.946  14.016  1.00  0.00    -0.253 OA
HETATM    8  N7  UNL     1     -16.457   9.878  14.312  1.00  0.00    -0.086 NA
HETATM    9  C23 UNL     1     -16.750   8.656  15.036  1.00  0.00     0.167 C 
ENDROOT
BRANCH   1  10
HETATM   10  O5  UNL     1     -18.569   9.093  16.550  1.00  0.00    -0.355 OA
BRANCH  10  11
HETATM   11  C8  UNL     1     -19.402  10.178  16.452  1.00  0.00     0.249 C 
HETATM   12  C3  UNL     1     -19.548  10.976  17.727  1.00  0.00     0.185 C 
HETATM   13  C4  UNL     1     -20.531  12.111  17.556  1.00  0.00     0.081 C 
HETATM   14  C5  UNL     1     -20.766  12.474  16.130  1.00  0.00     0.183 C 
HETATM   15  C7  UNL     1     -19.572  12.272  15.247  1.00  0.00     0.253 C 
HETATM   16  N4  UNL     1     -18.894  11.030  15.394  1.00  0.00    -0.367 N 
ATOM     17  H4  UNL     1     -18.109  10.759  14.801  1.00  0.00     0.158 HD
BRANCH  12  18
HETATM   18  O3  UNL     1     -18.307  11.420  18.224  1.00  0.00    -0.288 OA
BRANCH  18  19
HETATM   19  C2  UNL     1     -18.207  12.250  19.312  1.00  0.00     0.406 C 
HETATM   20  O2  UNL     1     -18.215  11.698  20.447  1.00  0.00    -0.229 OA
BRANCH  19  21
HETATM   21  O1  UNL     1     -18.101  13.613  19.272  1.00  0.00    -0.303 OA
HETATM   22  C1  UNL     1     -16.860  14.242  19.008  1.00  0.00     0.215 C 
ENDBRANCH  19  21
ENDBRANCH  18  19
ENDBRANCH  12  18
BRANCH  14  23
HETATM   23  N1  UNL     1     -21.949  11.824  15.571  1.00  0.00    -0.065 N 
ATOM     24  H13 UNL     1     -21.732  10.880  15.250  1.00  0.00     0.275 HD
ATOM     25  H12 UNL     1     -22.623  11.597  16.303  1.00  0.00     0.275 HD
ATOM     26  H11 UNL     1     -22.384  12.371  14.829  1.00  0.00     0.275 HD
ENDBRANCH  14  23
BRANCH  14  27
HETATM   27  C6  UNL     1     -21.094  13.972  16.092  1.00  0.00     0.177 C 
BRANCH  27  28
HETATM   28  N2  UNL     1     -20.765  14.537  17.388  1.00  0.00    -0.146 NA
BRANCH  28  29
HETATM   29  N3  UNL     1     -19.756  15.497  17.250  1.00  0.00    -0.348 N 
ATOM     30  H32 UNL     1     -19.451  15.884  16.357  1.00  0.00     0.172 HD
ATOM     31  H31 UNL     1     -19.382  15.744  18.166  1.00  0.00     0.172 HD
ENDBRANCH  28  29
ENDBRANCH  27  28
ENDBRANCH  14  27
BRANCH  15  32
HETATM   32  O4  UNL     1     -18.642  13.303  15.502  1.00  0.00    -0.374 OA
ATOM     33  H4  UNL     1     -18.329  13.214  16.394  1.00  0.00     0.212 HD
ENDBRANCH  15  32
ENDBRANCH  10  11
ENDBRANCH   1  10
BRANCH   2  34
HETATM   34  N5  UNL     1     -19.718   6.572  15.163  1.00  0.00    -0.059 N 
ATOM     35  H52 UNL     1     -19.773   5.555  15.099  1.00  0.00     0.278 HD
ATOM     36  H51 UNL     1     -20.246   6.710  16.025  1.00  0.00     0.278 HD
BRANCH  34  37
HETATM   37  C11 UNL     1     -20.380   7.200  14.043  1.00  0.00     0.217 C 
HETATM   38  C12 UNL     1     -21.081   6.216  13.130  1.00  0.00     0.035 C 
HETATM   39  C13 UNL     1     -22.063   7.107  12.365  1.00  0.00     0.004 C 
HETATM   40  C14 UNL     1     -22.218   8.362  13.165  1.00  0.00     0.035 C 
HETATM   41  C15 UNL     1     -21.561   8.047  14.505  1.00  0.00     0.214 C 
BRANCH  41  42
HETATM   42  N6  UNL     1     -22.493   7.286  15.277  1.00  0.00    -0.073 N 
ATOM     43  H63 UNL     1     -23.035   7.886  15.899  1.00  0.00     0.274 HD
ATOM     44  H62 UNL     1     -23.251   6.930  14.696  1.00  0.00     0.274 HD
ATOM     45  H61 UNL     1     -22.035   6.534  15.792  1.00  0.00     0.274 HD
ENDBRANCH  41  42
ENDBRANCH  34  37
ENDBRANCH   2  34
BRANCH   6  46
HETATM   46  O6  UNL     1     -13.367   8.988  13.056  1.00  0.00    -0.326 OA
BRANCH  46  47
HETATM   47  C20 UNL     1     -12.249   9.209  13.865  1.00  0.00     0.294 A 
HETATM   48  C21 UNL     1     -11.002   9.478  13.148  1.00  0.00     0.057 A 
HETATM   49  C22 UNL     1     -10.921  10.673  13.660  1.00  0.00     0.139 A 
HETATM   50  O7  UNL     1     -12.082  10.481  14.355  1.00  0.00    -0.329 OA
ENDBRANCH  46  47
ENDBRANCH   6  46
TORSDOF 15
ENDMDL
