MODEL 1
REMARK VINA RESULT: -7.202878605      0.000      0.000
REMARK  7 active torsions:
REMARK  status: ('A' for Active; 'I' for Inactive)
REMARK    1  A    between atoms: N1_2  and  C2_4 
REMARK    2  A    between atoms: C2_4  and  C3_5 
REMARK    3  A    between atoms: C3_5  and  N2_6 
REMARK    4  A    between atoms: N2_6  and  C4_8 
REMARK    5  A    between atoms: C4_8  and  N3_10 
REMARK    6  A    between atoms: N3_10  and  N4_12 
REMARK    7  A    between atoms: C5_14  and  C6_15 
ROOT
HETATM    1  N3  UNL     1      39.859  12.157  52.072  1.00  0.00    -0.277 N 
ATOM      2  H3  UNL     1      40.338  13.052  51.970  1.00  0.00     0.189 HD
ENDROOT
BRANCH   1   3
HETATM    3  C4  UNL     1      40.401  10.986  51.524  1.00  0.00     0.186 C 
HETATM    4  S1  UNL     1      40.344  10.751  49.913  1.00  0.00    -0.040 SA
BRANCH   3   5
HETATM    5  N2  UNL     1      40.999  10.005  52.334  1.00  0.00    -0.364 N 
ATOM      6  H2  UNL     1      41.833  10.245  52.870  1.00  0.00     0.162 HD
BRANCH   5   7
HETATM    7  C3  UNL     1      40.472   8.683  52.426  1.00  0.00     0.141 C 
BRANCH   7   8
HETATM    8  C2  UNL     1      41.417   7.685  51.845  1.00  0.00     0.133 C 
BRANCH   8   9
HETATM    9  N1  UNL     1      40.984   7.139  50.575  1.00  0.00    -0.424 N 
HETATM   10  C1  UNL     1      41.563   5.881  50.234  1.00  0.00     0.139 C 
ATOM     11  H1  UNL     1      40.316   7.618  49.971  1.00  0.00     0.152 HD
ENDBRANCH   8   9
ENDBRANCH   7   8
ENDBRANCH   5   7
ENDBRANCH   3   5
ENDBRANCH   1   3
BRANCH   1  12
HETATM   12  N4  UNL     1      38.634  12.071  52.769  1.00  0.00    -0.309 N 
HETATM   13  C5  UNL     1      37.561  11.767  52.093  1.00  0.00     0.118 C 
ATOM     14  H4  UNL     1      38.589  12.241  53.774  1.00  0.00     0.186 HD
BRANCH  13  15
HETATM   15  C6  UNL     1      36.277  11.667  52.770  1.00  0.00    -0.019 A 
HETATM   16  C7  UNL     1      36.118  12.204  54.024  1.00  0.00     0.013 A 
HETATM   17  C8  UNL     1      34.878  12.098  54.655  1.00  0.00     0.001 A 
HETATM   18  C9  UNL     1      33.834  11.464  54.025  1.00  0.00     0.000 A 
HETATM   19  C10 UNL     1      34.011  10.932  52.766  1.00  0.00     0.001 A 
HETATM   20  C11 UNL     1      35.238  11.032  52.133  1.00  0.00     0.013 A 
ENDBRANCH  13  15
ENDBRANCH   1  12
TORSDOF 7
ENDMDL
MODEL 2
REMARK VINA RESULT: -7.192903308      0.048      1.195
REMARK  7 active torsions:
REMARK  status: ('A' for Active; 'I' for Inactive)
REMARK    1  A    between atoms: N1_2  and  C2_4 
REMARK    2  A    between atoms: C2_4  and  C3_5 
REMARK    3  A    between atoms: C3_5  and  N2_6 
REMARK    4  A    between atoms: N2_6  and  C4_8 
REMARK    5  A    between atoms: C4_8  and  N3_10 
REMARK    6  A    between atoms: N3_10  and  N4_12 
REMARK    7  A    between atoms: C5_14  and  C6_15 
ROOT
HETATM    1  N3  UNL     1      39.861  12.165  52.062  1.00  0.00    -0.277 N 
ATOM      2  H3  UNL     1      40.336  13.062  51.956  1.00  0.00     0.189 HD
ENDROOT
BRANCH   1   3
HETATM    3  C4  UNL     1      40.405  10.995  51.513  1.00  0.00     0.186 C 
HETATM    4  S1  UNL     1      40.340  10.757  49.903  1.00  0.00    -0.040 SA
BRANCH   3   5
HETATM    5  N2  UNL     1      41.010  10.018  52.322  1.00  0.00    -0.364 N 
ATOM      6  H2  UNL     1      41.858  10.255  52.837  1.00  0.00     0.162 HD
BRANCH   5   7
HETATM    7  C3  UNL     1      40.471   8.702  52.441  1.00  0.00     0.141 C 
BRANCH   7   8
HETATM    8  C2  UNL     1      41.393   7.687  51.853  1.00  0.00     0.133 C 
BRANCH   8   9
HETATM    9  N1  UNL     1      40.939   7.149  50.588  1.00  0.00    -0.424 N 
HETATM   10  C1  UNL     1      41.505   5.888  50.235  1.00  0.00     0.139 C 
ATOM     11  H1  UNL     1      40.266   7.634  49.994  1.00  0.00     0.152 HD
ENDBRANCH   8   9
ENDBRANCH   7   8
ENDBRANCH   5   7
ENDBRANCH   3   5
ENDBRANCH   1   3
BRANCH   1  12
HETATM   12  N4  UNL     1      38.640  12.076  52.766  1.00  0.00    -0.309 N 
HETATM   13  C5  UNL     1      37.566  11.755  52.099  1.00  0.00     0.118 C 
ATOM     14  H4  UNL     1      38.598  12.258  53.769  1.00  0.00     0.186 HD
BRANCH  13  15
HETATM   15  C6  UNL     1      36.287  11.651  52.783  1.00  0.00    -0.019 A 
HETATM   16  C7  UNL     1      35.239  10.996  52.183  1.00  0.00     0.013 A 
HETATM   17  C8  UNL     1      34.020  10.906  52.858  1.00  0.00     0.001 A 
HETATM   18  C9  UNL     1      33.877  11.468  54.103  1.00  0.00     0.000 A 
HETATM   19  C10 UNL     1      34.940  12.121  54.690  1.00  0.00     0.001 A 
HETATM   20  C11 UNL     1      36.152  12.215  54.028  1.00  0.00     0.013 A 
ENDBRANCH  13  15
ENDBRANCH   1  12
TORSDOF 7
ENDMDL
MODEL 3
REMARK VINA RESULT: -7.179763182      1.609      2.157
REMARK  7 active torsions:
REMARK  status: ('A' for Active; 'I' for Inactive)
REMARK    1  A    between atoms: N1_2  and  C2_4 
REMARK    2  A    between atoms: C2_4  and  C3_5 
REMARK    3  A    between atoms: C3_5  and  N2_6 
REMARK    4  A    between atoms: N2_6  and  C4_8 
REMARK    5  A    between atoms: C4_8  and  N3_10 
REMARK    6  A    between atoms: N3_10  and  N4_12 
REMARK    7  A    between atoms: C5_14  and  C6_15 
ROOT
HETATM    1  N3  UNL     1      39.801  10.614  50.087  1.00  0.00    -0.277 N 
ATOM      2  H3  UNL     1      40.055  11.344  49.421  1.00  0.00     0.189 HD
ENDROOT
BRANCH   1   3
HETATM    3  C4  UNL     1      40.758   9.697  50.545  1.00  0.00     0.186 C 
HETATM    4  S1  UNL     1      41.952  10.205  51.531  1.00  0.00    -0.040 SA
BRANCH   3   5
HETATM    5  N2  UNL     1      40.712   8.341  50.176  1.00  0.00    -0.364 N 
ATOM      6  H2  UNL     1      40.510   8.099  49.206  1.00  0.00     0.162 HD
BRANCH   5   7
HETATM    7  C3  UNL     1      40.939   7.297  51.120  1.00  0.00     0.141 C 
BRANCH   7   8
HETATM    8  C2  UNL     1      42.025   6.383  50.661  1.00  0.00     0.133 C 
BRANCH   8   9
HETATM    9  N1  UNL     1      41.656   5.562  49.525  1.00  0.00    -0.424 N 
HETATM   10  C1  UNL     1      42.752   5.114  48.729  1.00  0.00     0.139 C 
ATOM     11  H1  UNL     1      40.689   5.323  49.312  1.00  0.00     0.152 HD
ENDBRANCH   8   9
ENDBRANCH   7   8
ENDBRANCH   5   7
ENDBRANCH   3   5
ENDBRANCH   1   3
BRANCH   1  12
HETATM   12  N4  UNL     1      38.478  10.505  50.568  1.00  0.00    -0.309 N 
HETATM   13  C5  UNL     1      38.155  11.176  51.639  1.00  0.00     0.118 C 
ATOM     14  H4  UNL     1      37.794   9.917  50.092  1.00  0.00     0.186 HD
BRANCH  13  15
HETATM   15  C6  UNL     1      36.803  11.094  52.170  1.00  0.00    -0.019 A 
HETATM   16  C7  UNL     1      35.907  10.203  51.631  1.00  0.00     0.013 A 
HETATM   17  C8  UNL     1      34.615  10.139  52.156  1.00  0.00     0.001 A 
HETATM   18  C9  UNL     1      34.252  10.959  53.198  1.00  0.00     0.000 A 
HETATM   19  C10 UNL     1      35.164  11.846  53.726  1.00  0.00     0.001 A 
HETATM   20  C11 UNL     1      36.448  11.916  53.211  1.00  0.00     0.013 A 
ENDBRANCH  13  15
ENDBRANCH   1  12
TORSDOF 7
ENDMDL
MODEL 4
REMARK VINA RESULT: -7.167924562      1.614      1.826
REMARK  7 active torsions:
REMARK  status: ('A' for Active; 'I' for Inactive)
REMARK    1  A    between atoms: N1_2  and  C2_4 
REMARK    2  A    between atoms: C2_4  and  C3_5 
REMARK    3  A    between atoms: C3_5  and  N2_6 
REMARK    4  A    between atoms: N2_6  and  C4_8 
REMARK    5  A    between atoms: C4_8  and  N3_10 
REMARK    6  A    between atoms: N3_10  and  N4_12 
REMARK    7  A    between atoms: C5_14  and  C6_15 
ROOT
HETATM    1  N3  UNL     1      39.809  10.594  50.079  1.00  0.00    -0.277 N 
ATOM      2  H3  UNL     1      40.067  11.310  49.401  1.00  0.00     0.189 HD
ENDROOT
BRANCH   1   3
HETATM    3  C4  UNL     1      40.761   9.684  50.559  1.00  0.00     0.186 C 
HETATM    4  S1  UNL     1      41.949  10.207  51.545  1.00  0.00    -0.040 SA
BRANCH   3   5
HETATM    5  N2  UNL     1      40.717   8.322  50.211  1.00  0.00    -0.364 N 
ATOM      6  H2  UNL     1      40.473   8.062  49.255  1.00  0.00     0.162 HD
BRANCH   5   7
HETATM    7  C3  UNL     1      41.002   7.295  51.159  1.00  0.00     0.141 C 
BRANCH   7   8
HETATM    8  C2  UNL     1      42.073   6.384  50.659  1.00  0.00     0.133 C 
BRANCH   8   9
HETATM    9  N1  UNL     1      41.671   5.573  49.529  1.00  0.00    -0.424 N 
HETATM   10  C1  UNL     1      42.742   5.138  48.692  1.00  0.00     0.139 C 
ATOM     11  H1  UNL     1      40.697   5.332  49.345  1.00  0.00     0.152 HD
ENDBRANCH   8   9
ENDBRANCH   7   8
ENDBRANCH   5   7
ENDBRANCH   3   5
ENDBRANCH   1   3
BRANCH   1  12
HETATM   12  N4  UNL     1      38.483  10.496  50.556  1.00  0.00    -0.309 N 
HETATM   13  C5  UNL     1      38.172  11.141  51.646  1.00  0.00     0.118 C 
ATOM     14  H4  UNL     1      37.788   9.936  50.062  1.00  0.00     0.186 HD
BRANCH  13  15
HETATM   15  C6  UNL     1      36.818  11.069  52.173  1.00  0.00    -0.019 A 
HETATM   16  C7  UNL     1      36.442  11.885  53.212  1.00  0.00     0.013 A 
HETATM   17  C8  UNL     1      35.137  11.801  53.702  1.00  0.00     0.001 A 
HETATM   18  C9  UNL     1      34.247  10.913  53.148  1.00  0.00     0.000 A 
HETATM   19  C10 UNL     1      34.642  10.102  52.106  1.00  0.00     0.001 A 
HETATM   20  C11 UNL     1      35.934  10.178  51.614  1.00  0.00     0.013 A 
ENDBRANCH  13  15
ENDBRANCH   1  12
TORSDOF 7
ENDMDL
MODEL 5
REMARK VINA RESULT: -7.066547629      2.097      2.463
REMARK  7 active torsions:
REMARK  status: ('A' for Active; 'I' for Inactive)
REMARK    1  A    between atoms: N1_2  and  C2_4 
REMARK    2  A    between atoms: C2_4  and  C3_5 
REMARK    3  A    between atoms: C3_5  and  N2_6 
REMARK    4  A    between atoms: N2_6  and  C4_8 
REMARK    5  A    between atoms: C4_8  and  N3_10 
REMARK    6  A    between atoms: N3_10  and  N4_12 
REMARK    7  A    between atoms: C5_14  and  C6_15 
ROOT
HETATM    1  N3  UNL     1      39.915   9.855  50.577  1.00  0.00    -0.277 N 
ATOM      2  H3  UNL     1      39.994  10.442  49.746  1.00  0.00     0.189 HD
ENDROOT
BRANCH   1   3
HETATM    3  C4  UNL     1      40.884   8.881  50.860  1.00  0.00     0.186 C 
HETATM    4  S1  UNL     1      40.883   8.145  52.314  1.00  0.00    -0.040 SA
BRANCH   3   5
HETATM    5  N2  UNL     1      41.860   8.519  49.915  1.00  0.00    -0.364 N 
ATOM      6  H2  UNL     1      41.674   8.679  48.925  1.00  0.00     0.162 HD
BRANCH   5   7
HETATM    7  C3  UNL     1      43.101   7.935  50.303  1.00  0.00     0.141 C 
BRANCH   7   8
HETATM    8  C2  UNL     1      43.360   6.672  49.551  1.00  0.00     0.133 C 
BRANCH   8   9
HETATM    9  N1  UNL     1      43.647   6.876  48.147  1.00  0.00    -0.424 N 
HETATM   10  C1  UNL     1      43.647   5.688  47.356  1.00  0.00     0.139 C 
ATOM     11  H1  UNL     1      43.835   7.797  47.753  1.00  0.00     0.152 HD
ENDBRANCH   8   9
ENDBRANCH   7   8
ENDBRANCH   5   7
ENDBRANCH   3   5
ENDBRANCH   1   3
BRANCH   1  12
HETATM   12  N4  UNL     1      38.829  10.004  51.466  1.00  0.00    -0.309 N 
HETATM   13  C5  UNL     1      37.807  10.715  51.076  1.00  0.00     0.118 C 
ATOM     14  H4  UNL     1      38.843   9.569  52.388  1.00  0.00     0.186 HD
BRANCH  13  15
HETATM   15  C6  UNL     1      36.666  10.896  51.960  1.00  0.00    -0.019 A 
HETATM   16  C7  UNL     1      36.703  11.854  52.942  1.00  0.00     0.013 A 
HETATM   17  C8  UNL     1      35.597  12.012  53.779  1.00  0.00     0.001 A 
HETATM   18  C9  UNL     1      34.488  11.216  53.615  1.00  0.00     0.000 A 
HETATM   19  C10 UNL     1      34.468  10.260  52.622  1.00  0.00     0.001 A 
HETATM   20  C11 UNL     1      35.561  10.096  51.789  1.00  0.00     0.013 A 
ENDBRANCH  13  15
ENDBRANCH   1  12
TORSDOF 7
ENDMDL
