MODEL 1
REMARK VINA RESULT: -8.362400048      0.000      0.000
REMARK  8 active torsions:
REMARK  status: ('A' for Active; 'I' for Inactive)
REMARK    1  A    between atoms: O1_2  and  C2_3 
REMARK    2  A    between atoms: N1_9  and  O2_10 
REMARK    3  A    between atoms: C8_14  and  C9_15 
REMARK    4  A    between atoms: C9_15  and  O3_17 
REMARK    5  A    between atoms: O3_17  and  C10_18 
REMARK    6  A    between atoms: C10_18  and  C11_19 
REMARK       I    between atoms: C11_19  and  N3_21 
REMARK    7  A    between atoms: N3_21  and  C12_23 
REMARK    8  A    between atoms: C12_23  and  C13_24 
ROOT
HETATM    1  C2  UNL     1      10.541  21.137  48.448  1.00  0.00     0.070 A 
HETATM    2  C3  UNL     1      10.391  19.879  49.018  1.00  0.00     0.039 A 
HETATM    3  C4  UNL     1       9.369  19.632  49.904  1.00  0.00     0.036 A 
HETATM    4  C5  UNL     1       8.457  20.594  50.270  1.00  0.00     0.079 A 
HETATM    5  C6  UNL     1       8.609  21.854  49.698  1.00  0.00     0.111 A 
HETATM    6  C7  UNL     1       9.632  22.123  48.802  1.00  0.00     0.073 A 
HETATM    7  N1  UNL     1       7.707  22.787  50.066  1.00  0.00    -0.160 N 
HETATM    8  N2  UNL     1       6.723  22.542  50.921  1.00  0.00    -0.255 N 
ATOM      9  H2  UNL     1       6.072  23.290  51.160  1.00  0.00     0.191 HD
HETATM   10  C8  UNL     1       6.565  21.327  51.482  1.00  0.00     0.181 A 
HETATM   11  N4  UNL     1       7.455  20.383  51.127  1.00  0.00    -0.256 N 
HETATM   12 BR1  UNL     1       7.251  18.674  51.901  1.00  0.00     0.057 Br
ENDROOT
BRANCH  10  13
HETATM   13  C9  UNL     1       5.478  21.087  52.420  1.00  0.00     0.183 C 
HETATM   14  S1  UNL     1       5.644  21.453  53.997  1.00  0.00    -0.049 SA
BRANCH  13  15
HETATM   15  O3  UNL     1       4.284  20.543  51.988  1.00  0.00    -0.328 OA
BRANCH  15  16
HETATM   16  C10 UNL     1       3.509  21.192  51.004  1.00  0.00     0.279 C 
BRANCH  16  17
HETATM   17  C11 UNL     1       2.610  20.161  50.387  1.00  0.00     0.242 C 
HETATM   18  O4  UNL     1       1.418  20.072  50.758  1.00  0.00    -0.271 OA
HETATM   19  N3  UNL     1       3.114  19.297  49.393  1.00  0.00    -0.355 N 
ATOM     20  H3  UNL     1       4.087  19.381  49.097  1.00  0.00     0.162 HD
BRANCH  19  21
HETATM   21  C12 UNL     1       2.267  18.295  48.786  1.00  0.00     0.161 C 
BRANCH  21  22
HETATM   22  C13 UNL     1       1.785  18.763  47.478  1.00  0.00    -0.041 A 
HETATM   23  C14 UNL     1       2.715  19.120  46.524  1.00  0.00     0.009 A 
HETATM   24  C15 UNL     1       2.294  19.571  45.286  1.00  0.00     0.001 A 
HETATM   25  C16 UNL     1       0.937  19.658  45.019  1.00  0.00     0.000 A 
HETATM   26  C17 UNL     1       0.012  19.297  45.984  1.00  0.00     0.001 A 
HETATM   27  C18 UNL     1       0.440  18.845  47.228  1.00  0.00     0.009 A 
ENDBRANCH  21  22
ENDBRANCH  19  21
ENDBRANCH  16  17
ENDBRANCH  15  16
ENDBRANCH  13  15
ENDBRANCH  10  13
BRANCH   7  28
HETATM   28  O2  UNL     1       7.867  24.037  49.492  1.00  0.00    -0.267 OA
ATOM     29  H2  UNL     1       7.277  24.240  48.775  1.00  0.00     0.247 HD
ENDBRANCH   7  28
BRANCH   1  30
HETATM   30  O1  UNL     1      11.531  21.459  47.560  1.00  0.00    -0.356 OA
HETATM   31  C1  UNL     1      11.384  22.550  46.683  1.00  0.00     0.210 C 
ENDBRANCH   1  30
TORSDOF 8
ENDMDL
MODEL 2
REMARK VINA RESULT: -8.234459268      1.658      2.096
REMARK  8 active torsions:
REMARK  status: ('A' for Active; 'I' for Inactive)
REMARK    1  A    between atoms: O1_2  and  C2_3 
REMARK    2  A    between atoms: N1_9  and  O2_10 
REMARK    3  A    between atoms: C8_14  and  C9_15 
REMARK    4  A    between atoms: C9_15  and  O3_17 
REMARK    5  A    between atoms: O3_17  and  C10_18 
REMARK    6  A    between atoms: C10_18  and  C11_19 
REMARK       I    between atoms: C11_19  and  N3_21 
REMARK    7  A    between atoms: N3_21  and  C12_23 
REMARK    8  A    between atoms: C12_23  and  C13_24 
ROOT
HETATM    1  C2  UNL     1      10.951  22.820  47.417  1.00  0.00     0.070 A 
HETATM    2  C3  UNL     1      11.338  21.523  47.729  1.00  0.00     0.039 A 
HETATM    3  C4  UNL     1      10.666  20.807  48.692  1.00  0.00     0.036 A 
HETATM    4  C5  UNL     1       9.597  21.322  49.387  1.00  0.00     0.079 A 
HETATM    5  C6  UNL     1       9.210  22.622  49.073  1.00  0.00     0.111 A 
HETATM    6  C7  UNL     1       9.874  23.360  48.106  1.00  0.00     0.073 A 
HETATM    7  N1  UNL     1       8.160  23.113  49.762  1.00  0.00    -0.160 N 
HETATM    8  N2  UNL     1       7.516  22.417  50.689  1.00  0.00    -0.255 N 
ATOM      9  H2  UNL     1       6.728  22.844  51.176  1.00  0.00     0.191 HD
HETATM   10  C8  UNL     1       7.880  21.157  51.003  1.00  0.00     0.181 A 
HETATM   11  N4  UNL     1       8.926  20.650  50.326  1.00  0.00    -0.256 N 
HETATM   12 BR1  UNL     1       9.452  18.888  50.750  1.00  0.00     0.057 Br
ENDROOT
BRANCH  10  13
HETATM   13  C9  UNL     1       7.158  20.418  52.028  1.00  0.00     0.183 C 
HETATM   14  S1  UNL     1       7.416  20.715  53.607  1.00  0.00    -0.049 SA
BRANCH  13  15
HETATM   15  O3  UNL     1       6.238  19.448  51.678  1.00  0.00    -0.328 OA
BRANCH  15  16
HETATM   16  C10 UNL     1       5.017  19.798  51.065  1.00  0.00     0.279 C 
BRANCH  16  17
HETATM   17  C11 UNL     1       5.048  19.264  49.663  1.00  0.00     0.242 C 
HETATM   18  O4  UNL     1       6.017  18.572  49.281  1.00  0.00    -0.271 OA
HETATM   19  N3  UNL     1       3.983  19.547  48.782  1.00  0.00    -0.355 N 
ATOM     20  H3  UNL     1       3.197  20.112  49.106  1.00  0.00     0.162 HD
BRANCH  19  21
HETATM   21  C12 UNL     1       3.992  19.047  47.426  1.00  0.00     0.161 C 
BRANCH  21  22
HETATM   22  C13 UNL     1       2.647  19.148  46.840  1.00  0.00    -0.041 A 
HETATM   23  C14 UNL     1       1.561  18.823  47.627  1.00  0.00     0.009 A 
HETATM   24  C15 UNL     1       0.283  18.902  47.104  1.00  0.00     0.001 A 
HETATM   25  C16 UNL     1       0.109  19.307  45.790  1.00  0.00     0.000 A 
HETATM   26  C17 UNL     1       1.206  19.629  45.009  1.00  0.00     0.001 A 
HETATM   27  C18 UNL     1       2.490  19.549  45.539  1.00  0.00     0.009 A 
ENDBRANCH  21  22
ENDBRANCH  19  21
ENDBRANCH  16  17
ENDBRANCH  15  16
ENDBRANCH  13  15
ENDBRANCH  10  13
BRANCH   7  28
HETATM   28  O2  UNL     1       7.783  24.407  49.442  1.00  0.00    -0.267 OA
ATOM     29  H2  UNL     1       8.291  24.827  48.758  1.00  0.00     0.247 HD
ENDBRANCH   7  28
BRANCH   1  30
HETATM   30  O1  UNL     1      11.569  23.595  46.474  1.00  0.00    -0.356 OA
HETATM   31  C1  UNL     1      11.149  24.918  46.241  1.00  0.00     0.210 C 
ENDBRANCH   1  30
TORSDOF 8
ENDMDL
MODEL 3
REMARK VINA RESULT: -8.039065112      2.287      3.159
REMARK  8 active torsions:
REMARK  status: ('A' for Active; 'I' for Inactive)
REMARK    1  A    between atoms: O1_2  and  C2_3 
REMARK    2  A    between atoms: N1_9  and  O2_10 
REMARK    3  A    between atoms: C8_14  and  C9_15 
REMARK    4  A    between atoms: C9_15  and  O3_17 
REMARK    5  A    between atoms: O3_17  and  C10_18 
REMARK    6  A    between atoms: C10_18  and  C11_19 
REMARK       I    between atoms: C11_19  and  N3_21 
REMARK    7  A    between atoms: N3_21  and  C12_23 
REMARK    8  A    between atoms: C12_23  and  C13_24 
ROOT
HETATM    1  C2  UNL     1      10.928  23.145  47.215  1.00  0.00     0.070 A 
HETATM    2  C3  UNL     1      11.492  21.883  47.345  1.00  0.00     0.039 A 
HETATM    3  C4  UNL     1      10.999  20.990  48.268  1.00  0.00     0.036 A 
HETATM    4  C5  UNL     1       9.942  21.289  49.096  1.00  0.00     0.079 A 
HETATM    5  C6  UNL     1       9.378  22.555  48.964  1.00  0.00     0.111 A 
HETATM    6  C7  UNL     1       9.860  23.469  48.040  1.00  0.00     0.073 A 
HETATM    7  N1  UNL     1       8.342  22.833  49.782  1.00  0.00    -0.160 N 
HETATM    8  N2  UNL     1       7.871  21.968  50.670  1.00  0.00    -0.255 N 
ATOM      9  H2  UNL     1       7.085  22.237  51.260  1.00  0.00     0.191 HD
HETATM   10  C8  UNL     1       8.408  20.739  50.808  1.00  0.00     0.181 A 
HETATM   11  N4  UNL     1       9.442  20.443  50.000  1.00  0.00    -0.256 N 
HETATM   12 BR1  UNL     1      10.209  18.728  50.178  1.00  0.00     0.057 Br
ENDROOT
BRANCH  10  13
HETATM   13  C9  UNL     1       7.873  19.810  51.793  1.00  0.00     0.183 C 
HETATM   14  S1  UNL     1       7.345  18.337  51.346  1.00  0.00    -0.049 SA
BRANCH  13  15
HETATM   15  O3  UNL     1       7.803  20.163  53.126  1.00  0.00    -0.328 OA
BRANCH  15  16
HETATM   16  C10 UNL     1       6.575  20.127  53.819  1.00  0.00     0.279 C 
BRANCH  16  17
HETATM   17  C11 UNL     1       5.600  20.971  53.052  1.00  0.00     0.242 C 
HETATM   18  O4  UNL     1       5.770  22.208  52.979  1.00  0.00    -0.271 OA
HETATM   19  N3  UNL     1       4.496  20.364  52.419  1.00  0.00    -0.355 N 
ATOM     20  H3  UNL     1       4.369  19.354  52.484  1.00  0.00     0.162 HD
BRANCH  19  21
HETATM   21  C12 UNL     1       3.541  21.157  51.677  1.00  0.00     0.161 C 
BRANCH  21  22
HETATM   22  C13 UNL     1       3.051  20.402  50.513  1.00  0.00    -0.041 A 
HETATM   23  C14 UNL     1       3.920  20.172  49.466  1.00  0.00     0.009 A 
HETATM   24  C15 UNL     1       3.489  19.472  48.355  1.00  0.00     0.001 A 
HETATM   25  C16 UNL     1       2.184  19.008  48.307  1.00  0.00     0.000 A 
HETATM   26  C17 UNL     1       1.320  19.245  49.362  1.00  0.00     0.001 A 
HETATM   27  C18 UNL     1       1.758  19.950  50.479  1.00  0.00     0.009 A 
ENDBRANCH  21  22
ENDBRANCH  19  21
ENDBRANCH  16  17
ENDBRANCH  15  16
ENDBRANCH  13  15
ENDBRANCH  10  13
BRANCH   7  28
HETATM   28  O2  UNL     1       7.788  24.095  49.643  1.00  0.00    -0.267 OA
ATOM     29  H2  UNL     1       7.003  24.258  50.152  1.00  0.00     0.247 HD
ENDBRANCH   7  28
BRANCH   1  30
HETATM   30  O1  UNL     1      11.363  24.087  46.322  1.00  0.00    -0.356 OA
HETATM   31  C1  UNL     1      10.665  25.299  46.156  1.00  0.00     0.210 C 
ENDBRANCH   1  30
TORSDOF 8
ENDMDL
MODEL 4
REMARK VINA RESULT: -8.033091367      1.985      2.447
REMARK  8 active torsions:
REMARK  status: ('A' for Active; 'I' for Inactive)
REMARK    1  A    between atoms: O1_2  and  C2_3 
REMARK    2  A    between atoms: N1_9  and  O2_10 
REMARK    3  A    between atoms: C8_14  and  C9_15 
REMARK    4  A    between atoms: C9_15  and  O3_17 
REMARK    5  A    between atoms: O3_17  and  C10_18 
REMARK    6  A    between atoms: C10_18  and  C11_19 
REMARK       I    between atoms: C11_19  and  N3_21 
REMARK    7  A    between atoms: N3_21  and  C12_23 
REMARK    8  A    between atoms: C12_23  and  C13_24 
ROOT
HETATM    1  C2  UNL     1      10.846  22.988  47.501  1.00  0.00     0.070 A 
HETATM    2  C3  UNL     1      11.392  21.711  47.509  1.00  0.00     0.039 A 
HETATM    3  C4  UNL     1      10.817  20.712  48.258  1.00  0.00     0.036 A 
HETATM    4  C5  UNL     1       9.693  20.914  49.025  1.00  0.00     0.079 A 
HETATM    5  C6  UNL     1       9.148  22.195  49.016  1.00  0.00     0.111 A 
HETATM    6  C7  UNL     1       9.712  23.216  48.267  1.00  0.00     0.073 A 
HETATM    7  N1  UNL     1       8.046  22.378  49.772  1.00  0.00    -0.160 N 
HETATM    8  N2  UNL     1       7.496  21.410  50.492  1.00  0.00    -0.255 N 
ATOM      9  H2  UNL     1       6.662  21.611  51.044  1.00  0.00     0.191 HD
HETATM   10  C8  UNL     1       8.014  20.165  50.511  1.00  0.00     0.181 A 
HETATM   11  N4  UNL     1       9.113  19.963  49.762  1.00  0.00    -0.256 N 
HETATM   12 BR1  UNL     1       9.854  18.228  49.774  1.00  0.00     0.057 Br
ENDROOT
BRANCH  10  13
HETATM   13  C9  UNL     1       7.391  19.122  51.313  1.00  0.00     0.183 C 
HETATM   14  S1  UNL     1       8.002  18.713  52.765  1.00  0.00    -0.049 SA
BRANCH  13  15
HETATM   15  O3  UNL     1       6.269  18.460  50.855  1.00  0.00    -0.328 OA
BRANCH  15  16
HETATM   16  C10 UNL     1       6.083  18.220  49.478  1.00  0.00     0.279 C 
BRANCH  16  17
HETATM   17  C11 UNL     1       4.878  19.001  49.043  1.00  0.00     0.242 C 
HETATM   18  O4  UNL     1       4.892  20.250  49.098  1.00  0.00    -0.271 OA
HETATM   19  N3  UNL     1       3.735  18.320  48.575  1.00  0.00    -0.355 N 
ATOM     20  H3  UNL     1       3.735  17.301  48.533  1.00  0.00     0.162 HD
BRANCH  19  21
HETATM   21  C12 UNL     1       2.561  19.051  48.154  1.00  0.00     0.161 C 
BRANCH  21  22
HETATM   22  C13 UNL     1       2.450  19.029  46.687  1.00  0.00    -0.041 A 
HETATM   23  C14 UNL     1       1.551  19.885  46.083  1.00  0.00     0.009 A 
HETATM   24  C15 UNL     1       1.418  19.885  44.707  1.00  0.00     0.001 A 
HETATM   25  C16 UNL     1       2.192  19.020  43.949  1.00  0.00     0.000 A 
HETATM   26  C17 UNL     1       3.090  18.165  44.565  1.00  0.00     0.001 A 
HETATM   27  C18 UNL     1       3.221  18.169  45.950  1.00  0.00     0.009 A 
ENDBRANCH  21  22
ENDBRANCH  19  21
ENDBRANCH  16  17
ENDBRANCH  15  16
ENDBRANCH  13  15
ENDBRANCH  10  13
BRANCH   7  28
HETATM   28  O2  UNL     1       7.511  23.656  49.756  1.00  0.00    -0.267 OA
ATOM     29  H2  UNL     1       6.612  23.729  50.052  1.00  0.00     0.247 HD
ENDBRANCH   7  28
BRANCH   1  30
HETATM   30  O1  UNL     1      11.361  24.033  46.782  1.00  0.00    -0.356 OA
HETATM   31  C1  UNL     1      10.542  25.108  46.387  1.00  0.00     0.210 C 
ENDBRANCH   1  30
TORSDOF 8
ENDMDL
MODEL 5
REMARK VINA RESULT: -8.018335825      2.092      2.519
REMARK  8 active torsions:
REMARK  status: ('A' for Active; 'I' for Inactive)
REMARK    1  A    between atoms: O1_2  and  C2_3 
REMARK    2  A    between atoms: N1_9  and  O2_10 
REMARK    3  A    between atoms: C8_14  and  C9_15 
REMARK    4  A    between atoms: C9_15  and  O3_17 
REMARK    5  A    between atoms: O3_17  and  C10_18 
REMARK    6  A    between atoms: C10_18  and  C11_19 
REMARK       I    between atoms: C11_19  and  N3_21 
REMARK    7  A    between atoms: N3_21  and  C12_23 
REMARK    8  A    between atoms: C12_23  and  C13_24 
ROOT
HETATM    1  C2  UNL     1      10.054  22.854  48.367  1.00  0.00     0.070 A 
HETATM    2  C3  UNL     1      10.789  21.678  48.274  1.00  0.00     0.039 A 
HETATM    3  C4  UNL     1      10.328  20.520  48.854  1.00  0.00     0.036 A 
HETATM    4  C5  UNL     1       9.141  20.459  49.546  1.00  0.00     0.079 A 
HETATM    5  C6  UNL     1       8.407  21.638  49.639  1.00  0.00     0.111 A 
HETATM    6  C7  UNL     1       8.853  22.816  49.061  1.00  0.00     0.073 A 
HETATM    7  N1  UNL     1       7.244  21.563  50.320  1.00  0.00    -0.160 N 
HETATM    8  N2  UNL     1       6.806  20.443  50.877  1.00  0.00    -0.255 N 
ATOM      9  H2  UNL     1       5.918  20.450  51.379  1.00  0.00     0.191 HD
HETATM   10  C8  UNL     1       7.507  19.294  50.795  1.00  0.00     0.181 A 
HETATM   11  N4  UNL     1       8.669  19.349  50.119  1.00  0.00    -0.256 N 
HETATM   12 BR1  UNL     1       9.666  17.752  49.992  1.00  0.00     0.057 Br
ENDROOT
BRANCH  10  13
HETATM   13  C9  UNL     1       7.003  18.079  51.419  1.00  0.00     0.183 C 
HETATM   14  S1  UNL     1       7.326  17.750  52.979  1.00  0.00    -0.049 SA
BRANCH  13  15
HETATM   15  O3  UNL     1       6.240  17.183  50.696  1.00  0.00    -0.328 OA
BRANCH  15  16
HETATM   16  C10 UNL     1       5.863  17.462  49.366  1.00  0.00     0.279 C 
BRANCH  16  17
HETATM   17  C11 UNL     1       4.364  17.446  49.310  1.00  0.00     0.242 C 
HETATM   18  O4  UNL     1       3.741  16.399  49.594  1.00  0.00    -0.271 OA
HETATM   19  N3  UNL     1       3.665  18.612  48.935  1.00  0.00    -0.355 N 
ATOM     20  H3  UNL     1       4.183  19.460  48.707  1.00  0.00     0.162 HD
BRANCH  19  21
HETATM   21  C12 UNL     1       2.220  18.619  48.870  1.00  0.00     0.161 C 
BRANCH  21  22
HETATM   22  C13 UNL     1       1.776  18.966  47.511  1.00  0.00    -0.041 A 
HETATM   23  C14 UNL     1       0.424  18.958  47.240  1.00  0.00     0.009 A 
HETATM   24  C15 UNL     1      -0.026  19.273  45.971  1.00  0.00     0.001 A 
HETATM   25  C16 UNL     1       0.892  19.596  44.984  1.00  0.00     0.000 A 
HETATM   26  C17 UNL     1       2.247  19.601  45.267  1.00  0.00     0.001 A 
HETATM   27  C18 UNL     1       2.696  19.282  46.545  1.00  0.00     0.009 A 
ENDBRANCH  21  22
ENDBRANCH  19  21
ENDBRANCH  16  17
ENDBRANCH  15  16
ENDBRANCH  13  15
ENDBRANCH  10  13
BRANCH   7  28
HETATM   28  O2  UNL     1       6.521  22.741  50.406  1.00  0.00    -0.267 OA
ATOM     29  H2  UNL     1       6.888  23.409  50.975  1.00  0.00     0.247 HD
ENDBRANCH   7  28
BRANCH   1  30
HETATM   30  O1  UNL     1      10.447  24.044  47.818  1.00  0.00    -0.356 OA
HETATM   31  C1  UNL     1      10.868  24.113  46.476  1.00  0.00     0.210 C 
ENDBRANCH   1  30
TORSDOF 8
ENDMDL
