MODEL 1
REMARK VINA RESULT: -8.022525466      0.000      0.000
REMARK  10 active torsions:
REMARK  status: ('A' for Active; 'I' for Inactive)
REMARK    1  A    between atoms: C2_2  and  C3_3 
REMARK    2  A    between atoms: C3_3  and  N1_4 
REMARK    3  A    between atoms: N1_4  and  C4_5 
REMARK    4  A    between atoms: N1_4  and  C8_11 
REMARK    5  A    between atoms: C4_5  and  C5_6 
REMARK       I    between atoms: C5_6  and  N2_8 
REMARK    6  A    between atoms: C8_11  and  O2_12 
REMARK    7  A    between atoms: C8_11  and  C9_14 
REMARK    8  A    between atoms: N5_23  and  C13_24 
REMARK    9  A    between atoms: C13_24  and  C14_25 
REMARK   10  A    between atoms: C20_32  and  N6_33 
ROOT
HETATM    1  C9  UNL     1       3.952  17.724  49.334  1.00  0.00     0.031 A 
HETATM    2  C10 UNL     1       4.502  16.549  48.780  1.00  0.00     0.105 A 
HETATM    3  N3  UNL     1       5.817  16.355  48.648  1.00  0.00    -0.350 N 
ATOM      4  H3  UNL     1       6.146  15.481  48.238  1.00  0.00     0.166 HD
HETATM    5  C11 UNL     1       6.716  17.262  49.033  1.00  0.00     0.123 A 
HETATM    6  N4  UNL     1       8.031  17.052  48.895  1.00  0.00    -0.293 N 
ATOM      7  H4  UNL     1       8.358  16.177  48.487  1.00  0.00     0.172 HD
HETATM    8  C12 UNL     1       8.930  17.976  49.286  1.00  0.00     0.330 A 
HETATM    9  O3  UNL     1      10.176  17.708  49.126  1.00  0.00    -0.246 OA
HETATM   10  N5  UNL     1       8.548  19.138  49.826  1.00  0.00    -0.280 N 
HETATM   11  C20 UNL     1       7.188  19.413  50.000  1.00  0.00     0.125 A 
HETATM   12  C22 UNL     1       6.284  18.443  49.588  1.00  0.00     0.053 A 
HETATM   13  C23 UNL     1       4.911  18.635  49.719  1.00  0.00     0.036 A 
ENDROOT
BRANCH   1  14
HETATM   14  C8  UNL     1       2.547  17.846  49.445  1.00  0.00     0.150 C 
BRANCH  14  15
HETATM   15  N1  UNL     1       1.623  18.869  49.272  1.00  0.00    -0.349 N 
BRANCH  15  16
HETATM   16  C3  UNL     1       1.372  19.944  50.172  1.00  0.00     0.152 C 
BRANCH  16  17
HETATM   17  C2  UNL     1       1.890  19.604  51.535  1.00  0.00    -0.017 C 
HETATM   18  C1  UNL     1       1.846  20.505  52.498  1.00  0.00     0.008 C 
ENDBRANCH  16  17
ENDBRANCH  15  16
BRANCH  15  19
HETATM   19  C4  UNL     1       0.772  18.903  48.054  1.00  0.00     0.228 C 
BRANCH  19  20
HETATM   20  C5  UNL     1       1.576  18.756  46.843  1.00  0.00     0.236 C 
HETATM   21  O1  UNL     1       2.373  19.650  46.418  1.00  0.00    -0.272 OA
HETATM   22  N2  UNL     1       1.482  17.568  46.088  1.00  0.00    -0.359 N 
HETATM   23  C6  UNL     1       0.598  16.504  46.508  1.00  0.00     0.152 C 
HETATM   24  C7  UNL     1       2.255  17.375  44.883  1.00  0.00     0.152 C 
ENDBRANCH  19  20
ENDBRANCH  15  19
ENDBRANCH  14  15
BRANCH  14  25
HETATM   25  O2  UNL     1       1.956  16.706  49.802  1.00  0.00    -0.345 OA
ATOM     26  H2  UNL     1       1.453  16.334  49.087  1.00  0.00     0.219 HD
ENDBRANCH  14  25
ENDBRANCH   1  14
BRANCH  11  27
HETATM   27  N6  UNL     1       6.867  20.456  50.527  1.00  0.00    -0.361 N 
HETATM   28  C21 UNL     1       6.334  21.281  51.463  1.00  0.00     0.120 C 
ATOM     29  H6  UNL     1       7.209  21.132  49.844  1.00  0.00     0.165 HD
ENDBRANCH  11  27
BRANCH  10  30
HETATM   30  C13 UNL     1       9.548  20.090  50.247  1.00  0.00     0.174 C 
BRANCH  30  31
HETATM   31  C14 UNL     1       9.858  21.160  49.269  1.00  0.00    -0.040 A 
HETATM   32  C15 UNL     1      10.760  20.945  48.228  1.00  0.00     0.012 A 
HETATM   33  C16 UNL     1      11.088  21.902  47.288  1.00  0.00     0.043 A 
HETATM   34  C17 UNL     1      10.510  23.148  47.357  1.00  0.00     0.116 A 
HETATM   35  F1  UNL     1      10.802  24.122  46.454  1.00  0.00    -0.206 F 
HETATM   36  C18 UNL     1       9.620  23.390  48.372  1.00  0.00     0.043 A 
HETATM   37  C19 UNL     1       9.294  22.414  49.320  1.00  0.00     0.012 A 
ENDBRANCH  30  31
ENDBRANCH  10  30
TORSDOF 10
ENDMDL
MODEL 2
REMARK VINA RESULT: -7.971885211      1.969      3.506
REMARK  10 active torsions:
REMARK  status: ('A' for Active; 'I' for Inactive)
REMARK    1  A    between atoms: C2_2  and  C3_3 
REMARK    2  A    between atoms: C3_3  and  N1_4 
REMARK    3  A    between atoms: N1_4  and  C4_5 
REMARK    4  A    between atoms: N1_4  and  C8_11 
REMARK    5  A    between atoms: C4_5  and  C5_6 
REMARK       I    between atoms: C5_6  and  N2_8 
REMARK    6  A    between atoms: C8_11  and  O2_12 
REMARK    7  A    between atoms: C8_11  and  C9_14 
REMARK    8  A    between atoms: N5_23  and  C13_24 
REMARK    9  A    between atoms: C13_24  and  C14_25 
REMARK   10  A    between atoms: C20_32  and  N6_33 
ROOT
HETATM    1  C9  UNL     1       2.653  18.580  50.159  1.00  0.00     0.031 A 
HETATM    2  C10 UNL     1       2.171  19.497  51.116  1.00  0.00     0.105 A 
HETATM    3  N3  UNL     1       2.976  20.266  51.854  1.00  0.00    -0.350 N 
ATOM      4  H3  UNL     1       2.559  20.907  52.529  1.00  0.00     0.166 HD
HETATM    5  C11 UNL     1       4.304  20.227  51.741  1.00  0.00     0.123 A 
HETATM    6  N4  UNL     1       5.097  21.005  52.488  1.00  0.00    -0.293 N 
ATOM      7  H4  UNL     1       4.678  21.648  53.160  1.00  0.00     0.172 HD
HETATM    8  C12 UNL     1       6.438  20.957  52.367  1.00  0.00     0.330 A 
HETATM    9  O3  UNL     1       7.138  21.734  53.112  1.00  0.00    -0.246 OA
HETATM   10  N5  UNL     1       7.032  20.131  51.498  1.00  0.00    -0.280 N 
HETATM   11  C20 UNL     1       6.255  19.295  50.688  1.00  0.00     0.125 A 
HETATM   12  C22 UNL     1       4.877  19.367  50.835  1.00  0.00     0.053 A 
HETATM   13  C23 UNL     1       4.028  18.569  50.072  1.00  0.00     0.036 A 
ENDROOT
BRANCH   1  14
HETATM   14  C8  UNL     1       1.732  17.807  49.413  1.00  0.00     0.150 C 
BRANCH  14  15
HETATM   15  N1  UNL     1       1.260  17.813  48.107  1.00  0.00    -0.349 N 
BRANCH  15  16
HETATM   16  C3  UNL     1       0.846  18.953  47.362  1.00  0.00     0.152 C 
BRANCH  16  17
HETATM   17  C2  UNL     1       1.909  19.340  46.381  1.00  0.00    -0.017 C 
HETATM   18  C1  UNL     1       1.576  19.924  45.246  1.00  0.00     0.008 C 
ENDBRANCH  16  17
ENDBRANCH  15  16
BRANCH  15  19
HETATM   19  C4  UNL     1       1.141  16.536  47.355  1.00  0.00     0.228 C 
BRANCH  19  20
HETATM   20  C5  UNL     1      -0.254  16.115  47.246  1.00  0.00     0.236 C 
HETATM   21  O1  UNL     1      -0.955  15.745  48.240  1.00  0.00    -0.272 OA
HETATM   22  N2  UNL     1      -0.881  16.111  45.982  1.00  0.00    -0.359 N 
HETATM   23  C6  UNL     1      -0.150  16.520  44.803  1.00  0.00     0.152 C 
HETATM   24  C7  UNL     1      -2.257  15.703  45.822  1.00  0.00     0.152 C 
ENDBRANCH  19  20
ENDBRANCH  15  19
ENDBRANCH  14  15
BRANCH  14  25
HETATM   25  O2  UNL     1       1.175  16.832  50.132  1.00  0.00    -0.345 OA
ATOM     26  H2  UNL     1       1.321  16.956  51.063  1.00  0.00     0.219 HD
ENDBRANCH  14  25
ENDBRANCH   1  14
BRANCH  11  27
HETATM   27  N6  UNL     1       6.813  18.583  49.882  1.00  0.00    -0.361 N 
HETATM   28  C21 UNL     1       7.403  17.467  49.384  1.00  0.00     0.120 C 
ATOM     29  H6  UNL     1       6.883  19.213  49.082  1.00  0.00     0.165 HD
ENDBRANCH  11  27
BRANCH  10  30
HETATM   30  C13 UNL     1       8.470  20.127  51.391  1.00  0.00     0.174 C 
BRANCH  30  31
HETATM   31  C14 UNL     1       9.025  20.905  50.257  1.00  0.00    -0.040 A 
HETATM   32  C15 UNL     1      10.053  20.391  49.466  1.00  0.00     0.012 A 
HETATM   33  C16 UNL     1      10.610  21.067  48.399  1.00  0.00     0.043 A 
HETATM   34  C17 UNL     1      10.147  22.320  48.073  1.00  0.00     0.116 A 
HETATM   35  F1  UNL     1      10.664  23.024  47.030  1.00  0.00    -0.206 F 
HETATM   36  C18 UNL     1       9.138  22.852  48.835  1.00  0.00     0.043 A 
HETATM   37  C19 UNL     1       8.580  22.160  49.914  1.00  0.00     0.012 A 
ENDBRANCH  30  31
ENDBRANCH  10  30
TORSDOF 10
ENDMDL
MODEL 3
REMARK VINA RESULT: -7.897259669      1.989      3.655
REMARK  10 active torsions:
REMARK  status: ('A' for Active; 'I' for Inactive)
REMARK    1  A    between atoms: C2_2  and  C3_3 
REMARK    2  A    between atoms: C3_3  and  N1_4 
REMARK    3  A    between atoms: N1_4  and  C4_5 
REMARK    4  A    between atoms: N1_4  and  C8_11 
REMARK    5  A    between atoms: C4_5  and  C5_6 
REMARK       I    between atoms: C5_6  and  N2_8 
REMARK    6  A    between atoms: C8_11  and  O2_12 
REMARK    7  A    between atoms: C8_11  and  C9_14 
REMARK    8  A    between atoms: N5_23  and  C13_24 
REMARK    9  A    between atoms: C13_24  and  C14_25 
REMARK   10  A    between atoms: C20_32  and  N6_33 
ROOT
HETATM    1  C9  UNL     1       2.676  18.884  49.303  1.00  0.00     0.031 A 
HETATM    2  C10 UNL     1       2.142  19.865  50.165  1.00  0.00     0.105 A 
HETATM    3  N3  UNL     1       2.896  20.593  50.993  1.00  0.00    -0.350 N 
ATOM      4  H3  UNL     1       2.443  21.285  51.589  1.00  0.00     0.166 HD
HETATM    5  C11 UNL     1       4.219  20.447  51.070  1.00  0.00     0.123 A 
HETATM    6  N4  UNL     1       4.961  21.184  51.905  1.00  0.00    -0.293 N 
ATOM      7  H4  UNL     1       4.507  21.878  52.499  1.00  0.00     0.172 HD
HETATM    8  C12 UNL     1       6.298  21.028  51.975  1.00  0.00     0.330 A 
HETATM    9  O3  UNL     1       6.948  21.771  52.796  1.00  0.00    -0.246 OA
HETATM   10  N5  UNL     1       6.937  20.132  51.216  1.00  0.00    -0.280 N 
HETATM   11  C20 UNL     1       6.216  19.334  50.321  1.00  0.00     0.125 A 
HETATM   12  C22 UNL     1       4.841  19.517  50.271  1.00  0.00     0.053 A 
HETATM   13  C23 UNL     1       4.045  18.764  49.412  1.00  0.00     0.036 A 
ENDROOT
BRANCH   1  14
HETATM   14  C8  UNL     1       1.808  18.163  48.450  1.00  0.00     0.150 C 
BRANCH  14  15
HETATM   15  N1  UNL     1       1.533  18.157  47.089  1.00  0.00    -0.349 N 
BRANCH  15  16
HETATM   16  C3  UNL     1       0.843  19.166  46.360  1.00  0.00     0.152 C 
BRANCH  16  17
HETATM   17  C2  UNL     1       1.786  19.866  45.432  1.00  0.00    -0.017 C 
HETATM   18  C1  UNL     1       1.472  20.007  44.159  1.00  0.00     0.008 C 
ENDBRANCH  16  17
ENDBRANCH  15  16
BRANCH  15  19
HETATM   19  C4  UNL     1       1.965  17.008  46.250  1.00  0.00     0.228 C 
BRANCH  19  20
HETATM   20  C5  UNL     1       3.387  16.726  46.432  1.00  0.00     0.236 C 
HETATM   21  O1  UNL     1       4.312  17.512  46.053  1.00  0.00    -0.272 OA
HETATM   22  N2  UNL     1       3.782  15.526  47.059  1.00  0.00    -0.359 N 
HETATM   23  C6  UNL     1       2.788  14.581  47.518  1.00  0.00     0.152 C 
HETATM   24  C7  UNL     1       5.174  15.201  47.262  1.00  0.00     0.152 C 
ENDBRANCH  19  20
ENDBRANCH  15  19
ENDBRANCH  14  15
BRANCH  14  25
HETATM   25  O2  UNL     1       1.068  17.267  49.105  1.00  0.00    -0.345 OA
ATOM     26  H2  UNL     1       0.625  17.656  49.850  1.00  0.00     0.219 HD
ENDBRANCH  14  25
ENDBRANCH   1  14
BRANCH  11  27
HETATM   27  N6  UNL     1       6.821  18.556  49.616  1.00  0.00    -0.361 N 
HETATM   28  C21 UNL     1       7.447  17.406  49.259  1.00  0.00     0.120 C 
ATOM     29  H6  UNL     1       6.922  19.106  48.763  1.00  0.00     0.165 HD
ENDBRANCH  11  27
BRANCH  10  30
HETATM   30  C13 UNL     1       8.372  20.012  51.312  1.00  0.00     0.174 C 
BRANCH  30  31
HETATM   31  C14 UNL     1       9.143  20.772  50.299  1.00  0.00    -0.040 A 
HETATM   32  C15 UNL     1       9.107  22.166  50.265  1.00  0.00     0.012 A 
HETATM   33  C16 UNL     1       9.802  22.927  49.346  1.00  0.00     0.043 A 
HETATM   34  C17 UNL     1      10.582  22.305  48.399  1.00  0.00     0.116 A 
HETATM   35  F1  UNL     1      11.285  23.013  47.475  1.00  0.00    -0.206 F 
HETATM   36  C18 UNL     1      10.634  20.934  48.407  1.00  0.00     0.043 A 
HETATM   37  C19 UNL     1       9.926  20.171  49.342  1.00  0.00     0.012 A 
ENDBRANCH  30  31
ENDBRANCH  10  30
TORSDOF 10
ENDMDL
MODEL 4
REMARK VINA RESULT: -7.854865099      3.197      8.386
REMARK  10 active torsions:
REMARK  status: ('A' for Active; 'I' for Inactive)
REMARK    1  A    between atoms: C2_2  and  C3_3 
REMARK    2  A    between atoms: C3_3  and  N1_4 
REMARK    3  A    between atoms: N1_4  and  C4_5 
REMARK    4  A    between atoms: N1_4  and  C8_11 
REMARK    5  A    between atoms: C4_5  and  C5_6 
REMARK       I    between atoms: C5_6  and  N2_8 
REMARK    6  A    between atoms: C8_11  and  O2_12 
REMARK    7  A    between atoms: C8_11  and  C9_14 
REMARK    8  A    between atoms: N5_23  and  C13_24 
REMARK    9  A    between atoms: C13_24  and  C14_25 
REMARK   10  A    between atoms: C20_32  and  N6_33 
ROOT
HETATM    1  C9  UNL     1       6.847  20.867  49.977  1.00  0.00     0.031 A 
HETATM    2  C10 UNL     1       5.888  21.586  50.722  1.00  0.00     0.105 A 
HETATM    3  N3  UNL     1       4.586  21.290  50.705  1.00  0.00    -0.350 N 
ATOM      4  H3  UNL     1       3.948  21.853  51.268  1.00  0.00     0.166 HD
HETATM    5  C11 UNL     1       4.088  20.288  49.980  1.00  0.00     0.123 A 
HETATM    6  N4  UNL     1       2.780  20.004  49.975  1.00  0.00    -0.293 N 
ATOM      7  H4  UNL     1       2.144  20.566  50.540  1.00  0.00     0.172 HD
HETATM    8  C12 UNL     1       2.288  18.990  49.237  1.00  0.00     0.330 A 
HETATM    9  O3  UNL     1       1.023  18.772  49.282  1.00  0.00    -0.246 OA
HETATM   10  N5  UNL     1       3.084  18.226  48.481  1.00  0.00    -0.280 N 
HETATM   11  C20 UNL     1       4.460  18.471  48.448  1.00  0.00     0.125 A 
HETATM   12  C22 UNL     1       4.939  19.523  49.218  1.00  0.00     0.053 A 
HETATM   13  C23 UNL     1       6.294  19.840  49.242  1.00  0.00     0.036 A 
ENDROOT
BRANCH   1  14
HETATM   14  C8  UNL     1       8.209  21.240  50.056  1.00  0.00     0.150 C 
BRANCH  14  15
HETATM   15  N1  UNL     1       9.325  21.103  49.240  1.00  0.00    -0.349 N 
BRANCH  15  16
HETATM   16  C3  UNL     1       9.682  19.952  48.481  1.00  0.00     0.152 C 
BRANCH  16  17
HETATM   17  C2  UNL     1       9.921  18.789  49.392  1.00  0.00    -0.017 C 
HETATM   18  C1  UNL     1       9.290  17.650  49.185  1.00  0.00     0.008 C 
ENDBRANCH  16  17
ENDBRANCH  15  16
BRANCH  15  19
HETATM   19  C4  UNL     1      10.290  22.226  49.107  1.00  0.00     0.228 C 
BRANCH  19  20
HETATM   20  C5  UNL     1       9.709  23.335  48.354  1.00  0.00     0.236 C 
HETATM   21  O1  UNL     1       8.687  23.985  48.739  1.00  0.00    -0.272 OA
HETATM   22  N2  UNL     1      10.295  23.726  47.132  1.00  0.00    -0.359 N 
HETATM   23  C6  UNL     1      11.461  23.035  46.627  1.00  0.00     0.152 C 
HETATM   24  C7  UNL     1       9.758  24.815  46.350  1.00  0.00     0.152 C 
ENDBRANCH  19  20
ENDBRANCH  15  19
ENDBRANCH  14  15
BRANCH  14  25
HETATM   25  O2  UNL     1       8.503  21.881  51.187  1.00  0.00    -0.345 OA
ATOM     26  H2  UNL     1       7.889  21.669  51.880  1.00  0.00     0.219 HD
ENDBRANCH  14  25
ENDBRANCH   1  14
BRANCH  11  27
HETATM   27  N6  UNL     1       5.166  17.742  47.786  1.00  0.00    -0.361 N 
HETATM   28  C21 UNL     1       5.785  16.596  47.404  1.00  0.00     0.120 C 
ATOM     29  H6  UNL     1       5.506  18.392  47.077  1.00  0.00     0.165 HD
ENDBRANCH  11  27
BRANCH  10  30
HETATM   30  C13 UNL     1       2.514  17.139  47.723  1.00  0.00     0.174 C 
BRANCH  30  31
HETATM   31  C14 UNL     1       1.736  17.539  46.525  1.00  0.00    -0.040 A 
HETATM   32  C15 UNL     1       2.169  18.576  45.699  1.00  0.00     0.012 A 
HETATM   33  C16 UNL     1       1.488  18.993  44.573  1.00  0.00     0.043 A 
HETATM   34  C17 UNL     1       0.313  18.370  44.219  1.00  0.00     0.116 A 
HETATM   35  F1  UNL     1      -0.391  18.746  43.118  1.00  0.00    -0.206 F 
HETATM   36  C18 UNL     1      -0.138  17.348  45.015  1.00  0.00     0.043 A 
HETATM   37  C19 UNL     1       0.558  16.932  46.155  1.00  0.00     0.012 A 
ENDBRANCH  30  31
ENDBRANCH  10  30
TORSDOF 10
ENDMDL
MODEL 5
REMARK VINA RESULT: -7.847722902      1.611      2.863
REMARK  10 active torsions:
REMARK  status: ('A' for Active; 'I' for Inactive)
REMARK    1  A    between atoms: C2_2  and  C3_3 
REMARK    2  A    between atoms: C3_3  and  N1_4 
REMARK    3  A    between atoms: N1_4  and  C4_5 
REMARK    4  A    between atoms: N1_4  and  C8_11 
REMARK    5  A    between atoms: C4_5  and  C5_6 
REMARK       I    between atoms: C5_6  and  N2_8 
REMARK    6  A    between atoms: C8_11  and  O2_12 
REMARK    7  A    between atoms: C8_11  and  C9_14 
REMARK    8  A    between atoms: N5_23  and  C13_24 
REMARK    9  A    between atoms: C13_24  and  C14_25 
REMARK   10  A    between atoms: C20_32  and  N6_33 
ROOT
HETATM    1  C9  UNL     1       3.313  17.875  48.210  1.00  0.00     0.031 A 
HETATM    2  C10 UNL     1       3.920  16.641  47.893  1.00  0.00     0.105 A 
HETATM    3  N3  UNL     1       5.214  16.391  48.114  1.00  0.00    -0.350 N 
ATOM      4  H3  UNL     1       5.587  15.477  47.859  1.00  0.00     0.166 HD
HETATM    5  C11 UNL     1       6.034  17.293  48.654  1.00  0.00     0.123 A 
HETATM    6  N4  UNL     1       7.329  17.026  48.870  1.00  0.00    -0.293 N 
ATOM      7  H4  UNL     1       7.700  16.110  48.617  1.00  0.00     0.172 HD
HETATM    8  C12 UNL     1       8.150  17.945  49.415  1.00  0.00     0.330 A 
HETATM    9  O3  UNL     1       9.379  17.621  49.596  1.00  0.00    -0.246 OA
HETATM   10  N5  UNL     1       7.708  19.158  49.763  1.00  0.00    -0.280 N 
HETATM   11  C20 UNL     1       6.364  19.494  49.565  1.00  0.00     0.125 A 
HETATM   12  C22 UNL     1       5.542  18.528  49.002  1.00  0.00     0.053 A 
HETATM   13  C23 UNL     1       4.193  18.778  48.766  1.00  0.00     0.036 A 
ENDROOT
BRANCH   1  14
HETATM   14  C8  UNL     1       1.933  18.055  47.951  1.00  0.00     0.150 C 
BRANCH  14  15
HETATM   15  N1  UNL     1       1.137  18.115  46.815  1.00  0.00    -0.349 N 
BRANCH  15  16
HETATM   16  C3  UNL     1       0.632  19.294  46.197  1.00  0.00     0.152 C 
BRANCH  16  17
HETATM   17  C2  UNL     1       1.686  19.910  45.330  1.00  0.00    -0.017 C 
HETATM   18  C1  UNL     1       1.540  19.913  44.019  1.00  0.00     0.008 C 
ENDBRANCH  16  17
ENDBRANCH  15  16
BRANCH  15  19
HETATM   19  C4  UNL     1       0.724  16.861  46.131  1.00  0.00     0.228 C 
BRANCH  19  20
HETATM   20  C5  UNL     1      -0.619  16.455  46.537  1.00  0.00     0.236 C 
HETATM   21  O1  UNL     1      -1.007  16.425  47.748  1.00  0.00    -0.272 OA
HETATM   22  N2  UNL     1      -1.555  16.070  45.554  1.00  0.00    -0.359 N 
HETATM   23  C6  UNL     1      -1.189  16.078  44.155  1.00  0.00     0.152 C 
HETATM   24  C7  UNL     1      -2.894  15.660  45.905  1.00  0.00     0.152 C 
ENDBRANCH  19  20
ENDBRANCH  15  19
ENDBRANCH  14  15
BRANCH  14  25
HETATM   25  O2  UNL     1       1.215  18.206  49.064  1.00  0.00    -0.345 OA
ATOM     26  H2  UNL     1       1.738  18.054  49.842  1.00  0.00     0.219 HD
ENDBRANCH  14  25
ENDBRANCH   1  14
BRANCH  11  27
HETATM   27  N6  UNL     1       5.978  20.585  49.924  1.00  0.00    -0.361 N 
HETATM   28  C21 UNL     1       5.420  21.519  50.735  1.00  0.00     0.120 C 
ATOM     29  H6  UNL     1       6.225  21.154  49.114  1.00  0.00     0.165 HD
ENDBRANCH  11  27
BRANCH  10  30
HETATM   30  C13 UNL     1       8.620  20.102  50.360  1.00  0.00     0.174 C 
BRANCH  30  31
HETATM   31  C14 UNL     1       9.254  21.057  49.419  1.00  0.00    -0.040 A 
HETATM   32  C15 UNL     1       8.834  22.385  49.350  1.00  0.00     0.012 A 
HETATM   33  C16 UNL     1       9.385  23.319  48.495  1.00  0.00     0.043 A 
HETATM   34  C17 UNL     1      10.406  22.949  47.651  1.00  0.00     0.116 A 
HETATM   35  F1  UNL     1      10.980  23.833  46.793  1.00  0.00    -0.206 F 
HETATM   36  C18 UNL     1      10.839  21.647  47.697  1.00  0.00     0.043 A 
HETATM   37  C19 UNL     1      10.275  20.708  48.566  1.00  0.00     0.012 A 
ENDBRANCH  30  31
ENDBRANCH  10  30
TORSDOF 10
ENDMDL
