MODEL 1
REMARK VINA RESULT: -9.080213985      0.000      0.000
REMARK  9 active torsions:
REMARK  status: ('A' for Active; 'I' for Inactive)
REMARK    1  A    between atoms: N1_2  and  C2_3 
REMARK       I    between atoms: N1_2  and  C10_15 
REMARK    2  A    between atoms: C2_3  and  C3_4 
REMARK       I    between atoms: C3_4  and  N2_6 
REMARK    3  A    between atoms: N2_6  and  C4_8 
REMARK    4  A    between atoms: C10_15  and  C11_17 
REMARK    5  A    between atoms: C11_17  and  O3_18 
REMARK    6  A    between atoms: O3_18  and  C12_19 
REMARK    7  A    between atoms: N3_22  and  O4_23 
REMARK    8  A    between atoms: C15_25  and  N4_26 
REMARK    9  A    between atoms: C16_29  and  O7_30 
ROOT
HETATM    1  C1  UNL     1       6.386  18.527  51.614  1.00  0.00     0.153 C 
HETATM    2  N1  UNL     1       5.784  19.849  51.740  1.00  0.00    -0.346 N 
HETATM    3  C10 UNL     1       6.617  20.991  51.536  1.00  0.00     0.244 C 
HETATM    4  O2  UNL     1       6.138  22.146  51.635  1.00  0.00    -0.271 OA
ENDROOT
BRANCH   3   5
HETATM    5  C11 UNL     1       8.049  20.844  51.207  1.00  0.00     0.278 C 
BRANCH   5   6
HETATM    6  O3  UNL     1       8.573  21.958  50.592  1.00  0.00    -0.339 OA
BRANCH   6   7
HETATM    7  C12 UNL     1       9.381  22.049  49.481  1.00  0.00     0.107 A 
HETATM    8  C13 UNL     1      10.261  21.082  49.060  1.00  0.00     0.059 A 
HETATM    9  C14 UNL     1      11.047  21.266  47.913  1.00  0.00     0.128 A 
HETATM   10  N3  UNL     1      10.972  22.390  47.180  1.00  0.00    -0.211 N 
HETATM   11  C15 UNL     1      10.116  23.351  47.574  1.00  0.00     0.235 A 
HETATM   12  C16 UNL     1       9.326  23.211  48.696  1.00  0.00     0.152 A 
BRANCH  10  13
HETATM   13  O4  UNL     1      11.740  22.571  46.060  1.00  0.00    -0.281 OA
ATOM     14  H4  UNL     1      12.052  23.430  45.802  1.00  0.00     0.245 HD
ENDBRANCH  10  13
BRANCH  11  15
HETATM   15  N4  UNL     1       9.998  24.577  46.822  1.00  0.00    -0.092 N 
HETATM   16  O5  UNL     1       8.888  25.107  46.639  1.00  0.00    -0.530 OA
HETATM   17  O6  UNL     1      11.132  25.168  46.300  1.00  0.00    -0.530 OA
ENDBRANCH  11  15
BRANCH  12  18
HETATM   18  O7  UNL     1       8.446  24.203  49.097  1.00  0.00    -0.355 OA
ATOM     19  H7  UNL     1       8.552  25.062  48.703  1.00  0.00     0.218 HD
ENDBRANCH  12  18
ENDBRANCH   6   7
ENDBRANCH   5   6
ENDBRANCH   3   5
BRANCH   2  20
HETATM   20  C2  UNL     1       4.404  20.026  52.065  1.00  0.00     0.228 C 
BRANCH  20  21
HETATM   21  C3  UNL     1       3.614  20.185  50.807  1.00  0.00     0.240 C 
HETATM   22  O1  UNL     1       3.220  21.327  50.471  1.00  0.00    -0.271 OA
HETATM   23  N2  UNL     1       3.317  19.066  50.010  1.00  0.00    -0.326 N 
ATOM     24  H2  UNL     1       3.669  18.164  50.333  1.00  0.00     0.169 HD
BRANCH  23  25
HETATM   25  C4  UNL     1       2.582  19.070  48.812  1.00  0.00     0.034 A 
HETATM   26  C5  UNL     1       3.315  19.170  47.631  1.00  0.00     0.031 A 
HETATM   27  C6  UNL     1       2.748  19.170  46.387  1.00  0.00     0.021 A 
HETATM   28  C7  UNL     1       1.383  19.065  46.284  1.00  0.00     0.011 A 
HETATM   29 BR1  UNL     1       0.618  19.067  44.532  1.00  0.00    -0.051 Br
HETATM   30  C8  UNL     1       0.629  18.964  47.426  1.00  0.00     0.021 A 
HETATM   31  C9  UNL     1       1.224  18.966  48.682  1.00  0.00     0.031 A 
ENDBRANCH  23  25
ENDBRANCH  20  21
ENDBRANCH   2  20
TORSDOF 9
ENDMDL
MODEL 2
REMARK VINA RESULT: -8.464345214      2.290      3.173
REMARK  9 active torsions:
REMARK  status: ('A' for Active; 'I' for Inactive)
REMARK    1  A    between atoms: N1_2  and  C2_3 
REMARK       I    between atoms: N1_2  and  C10_15 
REMARK    2  A    between atoms: C2_3  and  C3_4 
REMARK       I    between atoms: C3_4  and  N2_6 
REMARK    3  A    between atoms: N2_6  and  C4_8 
REMARK    4  A    between atoms: C10_15  and  C11_17 
REMARK    5  A    between atoms: C11_17  and  O3_18 
REMARK    6  A    between atoms: O3_18  and  C12_19 
REMARK    7  A    between atoms: N3_22  and  O4_23 
REMARK    8  A    between atoms: C15_25  and  N4_26 
REMARK    9  A    between atoms: C16_29  and  O7_30 
ROOT
HETATM    1  C1  UNL     1       6.908  17.930  51.369  1.00  0.00     0.153 C 
HETATM    2  N1  UNL     1       7.677  17.448  50.229  1.00  0.00    -0.346 N 
HETATM    3  C10 UNL     1       8.922  18.085  49.938  1.00  0.00     0.244 C 
HETATM    4  O2  UNL     1       9.614  17.699  48.965  1.00  0.00    -0.271 OA
ENDROOT
BRANCH   3   5
HETATM    5  C11 UNL     1       9.422  19.202  50.764  1.00  0.00     0.278 C 
BRANCH   5   6
HETATM    6  O3  UNL     1      10.222  20.072  50.059  1.00  0.00    -0.339 OA
BRANCH   6   7
HETATM    7  C12 UNL     1       9.891  21.244  49.417  1.00  0.00     0.107 A 
HETATM    8  C13 UNL     1       8.896  22.108  49.809  1.00  0.00     0.059 A 
HETATM    9  C14 UNL     1       8.629  23.281  49.088  1.00  0.00     0.128 A 
HETATM   10  N3  UNL     1       9.331  23.609  47.990  1.00  0.00    -0.211 N 
HETATM   11  C15 UNL     1      10.311  22.776  47.588  1.00  0.00     0.235 A 
HETATM   12  C16 UNL     1      10.605  21.613  48.268  1.00  0.00     0.152 A 
BRANCH  10  13
HETATM   13  O4  UNL     1       9.070  24.754  47.284  1.00  0.00    -0.281 OA
ATOM     14  H4  UNL     1       9.408  24.887  46.407  1.00  0.00     0.245 HD
ENDBRANCH  10  13
BRANCH  11  15
HETATM   15  N4  UNL     1      11.093  23.083  46.416  1.00  0.00    -0.092 N 
HETATM   16  O5  UNL     1      11.356  22.202  45.577  1.00  0.00    -0.530 OA
HETATM   17  O6  UNL     1      11.556  24.369  46.222  1.00  0.00    -0.530 OA
ENDBRANCH  11  15
BRANCH  12  18
HETATM   18  O7  UNL     1      11.615  20.761  47.851  1.00  0.00    -0.355 OA
ATOM     19  H7  UNL     1      11.570  20.441  46.957  1.00  0.00     0.218 HD
ENDBRANCH  12  18
ENDBRANCH   6   7
ENDBRANCH   5   6
ENDBRANCH   3   5
BRANCH   2  20
HETATM   20  C2  UNL     1       7.219  16.374  49.404  1.00  0.00     0.228 C 
BRANCH  20  21
HETATM   21  C3  UNL     1       5.904  16.740  48.797  1.00  0.00     0.240 C 
HETATM   22  O1  UNL     1       4.899  16.030  49.039  1.00  0.00    -0.271 OA
HETATM   23  N2  UNL     1       5.797  17.868  47.965  1.00  0.00    -0.326 N 
ATOM     24  H2  UNL     1       6.648  18.408  47.809  1.00  0.00     0.169 HD
BRANCH  23  25
HETATM   25  C4  UNL     1       4.629  18.321  47.328  1.00  0.00     0.034 A 
HETATM   26  C5  UNL     1       4.475  17.974  45.987  1.00  0.00     0.031 A 
HETATM   27  C6  UNL     1       3.387  18.323  45.236  1.00  0.00     0.021 A 
HETATM   28  C7  UNL     1       2.386  19.057  45.824  1.00  0.00     0.011 A 
HETATM   29 BR1  UNL     1       0.878  19.531  44.750  1.00  0.00    -0.051 Br
HETATM   30  C8  UNL     1       2.505  19.417  47.142  1.00  0.00     0.021 A 
HETATM   31  C9  UNL     1       3.617  19.052  47.891  1.00  0.00     0.031 A 
ENDBRANCH  23  25
ENDBRANCH  20  21
ENDBRANCH   2  20
TORSDOF 9
ENDMDL
MODEL 3
REMARK VINA RESULT: -8.373603471      1.277      1.497
REMARK  9 active torsions:
REMARK  status: ('A' for Active; 'I' for Inactive)
REMARK    1  A    between atoms: N1_2  and  C2_3 
REMARK       I    between atoms: N1_2  and  C10_15 
REMARK    2  A    between atoms: C2_3  and  C3_4 
REMARK       I    between atoms: C3_4  and  N2_6 
REMARK    3  A    between atoms: N2_6  and  C4_8 
REMARK    4  A    between atoms: C10_15  and  C11_17 
REMARK    5  A    between atoms: C11_17  and  O3_18 
REMARK    6  A    between atoms: O3_18  and  C12_19 
REMARK    7  A    between atoms: N3_22  and  O4_23 
REMARK    8  A    between atoms: C15_25  and  N4_26 
REMARK    9  A    between atoms: C16_29  and  O7_30 
ROOT
HETATM    1  C1  UNL     1       6.205  19.136  52.729  1.00  0.00     0.153 C 
HETATM    2  N1  UNL     1       5.613  20.241  51.985  1.00  0.00    -0.346 N 
HETATM    3  C10 UNL     1       6.488  21.212  51.410  1.00  0.00     0.244 C 
HETATM    4  O2  UNL     1       6.017  22.178  50.762  1.00  0.00    -0.271 OA
ENDROOT
BRANCH   3   5
HETATM    5  C11 UNL     1       7.953  21.107  51.561  1.00  0.00     0.278 C 
BRANCH   5   6
HETATM    6  O3  UNL     1       8.630  22.113  50.910  1.00  0.00    -0.339 OA
BRANCH   6   7
HETATM    7  C12 UNL     1       9.377  22.063  49.754  1.00  0.00     0.107 A 
HETATM    8  C13 UNL     1      10.131  20.990  49.344  1.00  0.00     0.059 A 
HETATM    9  C14 UNL     1      10.863  21.032  48.149  1.00  0.00     0.128 A 
HETATM   10  N3  UNL     1      10.859  22.119  47.358  1.00  0.00    -0.211 N 
HETATM   11  C15 UNL     1      10.127  23.183  47.741  1.00  0.00     0.235 A 
HETATM   12  C16 UNL     1       9.393  23.182  48.908  1.00  0.00     0.152 A 
BRANCH  10  13
HETATM   13  O4  UNL     1      11.574  22.162  46.190  1.00  0.00    -0.281 OA
ATOM     14  H4  UNL     1      11.626  21.413  45.608  1.00  0.00     0.245 HD
ENDBRANCH  10  13
BRANCH  11  15
HETATM   15  N4  UNL     1      10.088  24.373  46.927  1.00  0.00    -0.092 N 
HETATM   16  O5  UNL     1       9.024  24.994  46.757  1.00  0.00    -0.530 OA
HETATM   17  O6  UNL     1      11.247  24.829  46.329  1.00  0.00    -0.530 OA
ENDBRANCH  11  15
BRANCH  12  18
HETATM   18  O7  UNL     1       8.641  24.279  49.297  1.00  0.00    -0.355 OA
ATOM     19  H7  UNL     1       8.971  24.795  50.023  1.00  0.00     0.218 HD
ENDBRANCH  12  18
ENDBRANCH   6   7
ENDBRANCH   5   6
ENDBRANCH   3   5
BRANCH   2  20
HETATM   20  C2  UNL     1       4.199  20.377  51.827  1.00  0.00     0.228 C 
BRANCH  20  21
HETATM   21  C3  UNL     1       3.752  19.577  50.646  1.00  0.00     0.240 C 
HETATM   22  O1  UNL     1       2.810  18.761  50.781  1.00  0.00    -0.271 OA
HETATM   23  N2  UNL     1       4.382  19.740  49.401  1.00  0.00    -0.326 N 
ATOM     24  H2  UNL     1       5.139  20.423  49.352  1.00  0.00     0.169 HD
BRANCH  23  25
HETATM   25  C4  UNL     1       4.068  19.053  48.215  1.00  0.00     0.034 A 
HETATM   26  C5  UNL     1       4.838  17.930  47.923  1.00  0.00     0.031 A 
HETATM   27  C6  UNL     1       4.644  17.147  46.819  1.00  0.00     0.021 A 
HETATM   28  C7  UNL     1       3.639  17.476  45.944  1.00  0.00     0.011 A 
HETATM   29 BR1  UNL     1       3.391  16.365  44.409  1.00  0.00    -0.051 Br
HETATM   30  C8  UNL     1       2.860  18.576  46.200  1.00  0.00     0.021 A 
HETATM   31  C9  UNL     1       3.072  19.360  47.328  1.00  0.00     0.031 A 
ENDBRANCH  23  25
ENDBRANCH  20  21
ENDBRANCH   2  20
TORSDOF 9
ENDMDL
MODEL 4
REMARK VINA RESULT: -8.289843418      1.401      1.934
REMARK  9 active torsions:
REMARK  status: ('A' for Active; 'I' for Inactive)
REMARK    1  A    between atoms: N1_2  and  C2_3 
REMARK       I    between atoms: N1_2  and  C10_15 
REMARK    2  A    between atoms: C2_3  and  C3_4 
REMARK       I    between atoms: C3_4  and  N2_6 
REMARK    3  A    between atoms: N2_6  and  C4_8 
REMARK    4  A    between atoms: C10_15  and  C11_17 
REMARK    5  A    between atoms: C11_17  and  O3_18 
REMARK    6  A    between atoms: O3_18  and  C12_19 
REMARK    7  A    between atoms: N3_22  and  O4_23 
REMARK    8  A    between atoms: C15_25  and  N4_26 
REMARK    9  A    between atoms: C16_29  and  O7_30 
ROOT
HETATM    1  C1  UNL     1       8.584  18.310  51.349  1.00  0.00     0.153 C 
HETATM    2  N1  UNL     1       7.203  18.775  51.393  1.00  0.00    -0.346 N 
HETATM    3  C10 UNL     1       6.969  20.174  51.566  1.00  0.00     0.244 C 
HETATM    4  O2  UNL     1       5.795  20.614  51.609  1.00  0.00    -0.271 OA
ENDROOT
BRANCH   3   5
HETATM    5  C11 UNL     1       8.089  21.127  51.698  1.00  0.00     0.278 C 
BRANCH   5   6
HETATM    6  O3  UNL     1       8.200  21.972  50.618  1.00  0.00    -0.339 OA
BRANCH   6   7
HETATM    7  C12 UNL     1       9.124  21.975  49.597  1.00  0.00     0.107 A 
HETATM    8  C13 UNL     1       9.988  20.947  49.308  1.00  0.00     0.059 A 
HETATM    9  C14 UNL     1      10.899  21.041  48.245  1.00  0.00     0.128 A 
HETATM   10  N3  UNL     1      10.964  22.135  47.469  1.00  0.00    -0.211 N 
HETATM   11  C15 UNL     1      10.126  23.156  47.734  1.00  0.00     0.235 A 
HETATM   12  C16 UNL     1       9.216  23.104  48.769  1.00  0.00     0.152 A 
BRANCH  10  13
HETATM   13  O4  UNL     1      11.854  22.229  46.431  1.00  0.00    -0.281 OA
ATOM     14  H4  UNL     1      11.596  22.567  45.581  1.00  0.00     0.245 HD
ENDBRANCH  10  13
BRANCH  11  15
HETATM   15  N4  UNL     1      10.156  24.353  46.929  1.00  0.00    -0.092 N 
HETATM   16  O5  UNL     1      11.220  24.751  46.419  1.00  0.00    -0.530 OA
HETATM   17  O6  UNL     1       8.992  25.066  46.723  1.00  0.00    -0.530 OA
ENDBRANCH  11  15
BRANCH  12  18
HETATM   18  O7  UNL     1       8.356  24.156  49.037  1.00  0.00    -0.355 OA
ATOM     19  H7  UNL     1       8.682  24.851  49.597  1.00  0.00     0.218 HD
ENDBRANCH  12  18
ENDBRANCH   6   7
ENDBRANCH   5   6
ENDBRANCH   3   5
BRANCH   2  20
HETATM   20  C2  UNL     1       6.096  17.879  51.277  1.00  0.00     0.228 C 
BRANCH  20  21
HETATM   21  C3  UNL     1       5.596  17.888  49.869  1.00  0.00     0.240 C 
HETATM   22  O1  UNL     1       6.189  17.200  49.004  1.00  0.00    -0.271 OA
HETATM   23  N2  UNL     1       4.473  18.658  49.521  1.00  0.00    -0.326 N 
ATOM     24  H2  UNL     1       4.031  19.192  50.269  1.00  0.00     0.169 HD
BRANCH  23  25
HETATM   25  C4  UNL     1       3.902  18.762  48.240  1.00  0.00     0.034 A 
HETATM   26  C5  UNL     1       2.551  19.099  48.186  1.00  0.00     0.031 A 
HETATM   27  C6  UNL     1       1.859  19.256  47.017  1.00  0.00     0.021 A 
HETATM   28  C7  UNL     1       2.520  19.074  45.827  1.00  0.00     0.011 A 
HETATM   29 BR1  UNL     1       1.526  19.299  44.211  1.00  0.00    -0.051 Br
HETATM   30  C8  UNL     1       3.850  18.740  45.844  1.00  0.00     0.021 A 
HETATM   31  C9  UNL     1       4.538  18.586  47.041  1.00  0.00     0.031 A 
ENDBRANCH  23  25
ENDBRANCH  20  21
ENDBRANCH   2  20
TORSDOF 9
ENDMDL
MODEL 5
REMARK VINA RESULT: -8.245148335      1.081      1.225
REMARK  9 active torsions:
REMARK  status: ('A' for Active; 'I' for Inactive)
REMARK    1  A    between atoms: N1_2  and  C2_3 
REMARK       I    between atoms: N1_2  and  C10_15 
REMARK    2  A    between atoms: C2_3  and  C3_4 
REMARK       I    between atoms: C3_4  and  N2_6 
REMARK    3  A    between atoms: N2_6  and  C4_8 
REMARK    4  A    between atoms: C10_15  and  C11_17 
REMARK    5  A    between atoms: C11_17  and  O3_18 
REMARK    6  A    between atoms: O3_18  and  C12_19 
REMARK    7  A    between atoms: N3_22  and  O4_23 
REMARK    8  A    between atoms: C15_25  and  N4_26 
REMARK    9  A    between atoms: C16_29  and  O7_30 
ROOT
HETATM    1  C1  UNL     1       6.250  18.606  51.651  1.00  0.00     0.153 C 
HETATM    2  N1  UNL     1       5.643  19.923  51.499  1.00  0.00    -0.346 N 
HETATM    3  C10 UNL     1       6.502  21.034  51.240  1.00  0.00     0.244 C 
HETATM    4  O2  UNL     1       6.019  22.184  51.103  1.00  0.00    -0.271 OA
ENDROOT
BRANCH   3   5
HETATM    5  C11 UNL     1       7.964  20.862  51.126  1.00  0.00     0.278 C 
BRANCH   5   6
HETATM    6  O3  UNL     1       8.592  21.963  50.590  1.00  0.00    -0.339 OA
BRANCH   6   7
HETATM    7  C12 UNL     1       9.393  22.060  49.474  1.00  0.00     0.107 A 
HETATM    8  C13 UNL     1      10.274  21.096  49.045  1.00  0.00     0.059 A 
HETATM    9  C14 UNL     1      11.052  21.286  47.894  1.00  0.00     0.128 A 
HETATM   10  N3  UNL     1      10.970  22.412  47.165  1.00  0.00    -0.211 N 
HETATM   11  C15 UNL     1      10.113  23.370  47.567  1.00  0.00     0.235 A 
HETATM   12  C16 UNL     1       9.330  23.223  48.693  1.00  0.00     0.152 A 
BRANCH  10  13
HETATM   13  O4  UNL     1      11.730  22.599  46.041  1.00  0.00    -0.281 OA
ATOM     14  H4  UNL     1      11.663  23.390  45.519  1.00  0.00     0.245 HD
ENDBRANCH  10  13
BRANCH  11  15
HETATM   15  N4  UNL     1       9.987  24.597  46.820  1.00  0.00    -0.092 N 
HETATM   16  O5  UNL     1       8.872  25.117  46.632  1.00  0.00    -0.530 OA
HETATM   17  O6  UNL     1      11.117  25.202  46.306  1.00  0.00    -0.530 OA
ENDBRANCH  11  15
BRANCH  12  18
HETATM   18  O7  UNL     1       8.449  24.212  49.102  1.00  0.00    -0.355 OA
ATOM     19  H7  UNL     1       7.544  24.128  48.824  1.00  0.00     0.218 HD
ENDBRANCH  12  18
ENDBRANCH   6   7
ENDBRANCH   5   6
ENDBRANCH   3   5
BRANCH   2  20
HETATM   20  C2  UNL     1       4.233  20.126  51.611  1.00  0.00     0.228 C 
BRANCH  20  21
HETATM   21  C3  UNL     1       3.571  19.726  50.333  1.00  0.00     0.240 C 
HETATM   22  O1  UNL     1       4.006  20.182  49.249  1.00  0.00    -0.271 OA
HETATM   23  N2  UNL     1       2.473  18.849  50.349  1.00  0.00    -0.326 N 
ATOM     24  H2  UNL     1       2.168  18.509  51.261  1.00  0.00     0.169 HD
BRANCH  23  25
HETATM   25  C4  UNL     1       1.755  18.397  49.228  1.00  0.00     0.034 A 
HETATM   26  C5  UNL     1       1.882  17.046  48.910  1.00  0.00     0.031 A 
HETATM   27  C6  UNL     1       1.235  16.452  47.862  1.00  0.00     0.021 A 
HETATM   28  C7  UNL     1       0.412  17.219  47.074  1.00  0.00     0.011 A 
HETATM   29 BR1  UNL     1      -0.480  16.363  45.616  1.00  0.00    -0.051 Br
HETATM   30  C8  UNL     1       0.264  18.553  47.358  1.00  0.00     0.021 A 
HETATM   31  C9  UNL     1       0.930  19.139  48.427  1.00  0.00     0.031 A 
ENDBRANCH  23  25
ENDBRANCH  20  21
ENDBRANCH   2  20
TORSDOF 9
ENDMDL
