MODEL 1
REMARK VINA RESULT: -4.806193625      0.000      0.000
REMARK  3 active torsions:
REMARK  status: ('A' for Active; 'I' for Inactive)
REMARK    1  A    between atoms: C4_5  and  C5_6 
REMARK    2  A    between atoms: C5_6  and  N2_7 
REMARK    3  A    between atoms: C5_6  and  C6_11 
ROOT
HETATM    1  N1  UNL     1       0.026  15.967 -19.854  1.00  0.00    -0.197 NA
HETATM    2  C1  UNL     1       0.668  16.726 -20.435  1.00  0.00     0.064 C 
HETATM    3  C2  UNL     1       1.472  17.656 -21.178  1.00  0.00     0.093 C 
HETATM    4  C3  UNL     1       1.050  19.127 -21.047  1.00  0.00     0.026 C 
HETATM    5  C4  UNL     1       2.533  19.450 -21.073  1.00  0.00     0.019 C 
HETATM    6  C7  UNL     1       2.773  18.081 -20.483  1.00  0.00     0.026 C 
ENDROOT
BRANCH   5   7
HETATM    7  C5  UNL     1       2.939  20.612 -20.218  1.00  0.00     0.197 C 
BRANCH   7   8
HETATM    8  N2  UNL     1       1.902  21.115 -19.373  1.00  0.00    -0.074 N 
ATOM      9  H23 UNL     1       0.990  20.800 -19.703  1.00  0.00     0.274 HD
ATOM     10  H22 UNL     1       1.928  20.652 -18.465  1.00  0.00     0.274 HD
ATOM     11  H21 UNL     1       1.907  22.128 -19.256  1.00  0.00     0.274 HD
ENDBRANCH   7   8
BRANCH   7  12
HETATM   12  C6  UNL     1       3.454  21.707 -21.127  1.00  0.00     0.119 C 
HETATM   13  S1  UNL     1       2.553  21.788 -22.679  1.00  0.00    -0.096 SA
ENDBRANCH   7  12
ENDBRANCH   5   7
TORSDOF 3
ENDMDL
MODEL 2
REMARK VINA RESULT: -4.339680326      1.794      1.813
REMARK  3 active torsions:
REMARK  status: ('A' for Active; 'I' for Inactive)
REMARK    1  A    between atoms: C4_5  and  C5_6 
REMARK    2  A    between atoms: C5_6  and  N2_7 
REMARK    3  A    between atoms: C5_6  and  C6_11 
ROOT
HETATM    1  N1  UNL     1       0.258  16.118 -19.786  1.00  0.00    -0.197 NA
HETATM    2  C1  UNL     1       0.958  16.807 -20.386  1.00  0.00     0.064 C 
HETATM    3  C2  UNL     1       1.844  17.649 -21.141  1.00  0.00     0.093 C 
HETATM    4  C3  UNL     1       1.180  18.876 -21.785  1.00  0.00     0.026 C 
HETATM    5  C4  UNL     1       2.465  19.616 -21.457  1.00  0.00     0.019 C 
HETATM    6  C7  UNL     1       2.645  18.656 -20.305  1.00  0.00     0.026 C 
ENDROOT
BRANCH   5   7
HETATM    7  C5  UNL     1       2.284  21.057 -21.087  1.00  0.00     0.197 C 
BRANCH   7   8
HETATM    8  N2  UNL     1       2.557  21.978 -22.145  1.00  0.00    -0.074 N 
ATOM      9  H23 UNL     1       3.368  21.672 -22.682  1.00  0.00     0.274 HD
ATOM     10  H22 UNL     1       1.837  21.915 -22.864  1.00  0.00     0.274 HD
ATOM     11  H21 UNL     1       2.674  22.945 -21.843  1.00  0.00     0.274 HD
ENDBRANCH   7   8
BRANCH   7  12
HETATM   12  C6  UNL     1       3.168  21.349 -19.893  1.00  0.00     0.119 C 
HETATM   13  S1  UNL     1       2.309  21.120 -18.332  1.00  0.00    -0.096 SA
ENDBRANCH   7  12
ENDBRANCH   5   7
TORSDOF 3
ENDMDL
MODEL 3
REMARK VINA RESULT: -4.187254146      2.445      4.538
REMARK  3 active torsions:
REMARK  status: ('A' for Active; 'I' for Inactive)
REMARK    1  A    between atoms: C4_5  and  C5_6 
REMARK    2  A    between atoms: C5_6  and  N2_7 
REMARK    3  A    between atoms: C5_6  and  C6_11 
ROOT
HETATM    1  N1  UNL     1       4.558  21.940 -21.890  1.00  0.00    -0.197 NA
HETATM    2  C1  UNL     1       3.599  21.392 -21.566  1.00  0.00     0.064 C 
HETATM    3  C2  UNL     1       2.391  20.728 -21.162  1.00  0.00     0.093 C 
HETATM    4  C3  UNL     1       2.169  19.344 -21.791  1.00  0.00     0.026 C 
HETATM    5  C4  UNL     1       1.590  18.938 -20.448  1.00  0.00     0.019 C 
HETATM    6  C7  UNL     1       2.482  19.984 -19.822  1.00  0.00     0.026 C 
ENDROOT
BRANCH   5   7
HETATM    7  C5  UNL     1       1.863  17.520 -20.047  1.00  0.00     0.197 C 
BRANCH   7   8
HETATM    8  N2  UNL     1       2.890  16.879 -20.807  1.00  0.00    -0.074 N 
ATOM      9  H23 UNL     1       2.633  16.842 -21.793  1.00  0.00     0.274 HD
ATOM     10  H22 UNL     1       3.715  17.476 -20.864  1.00  0.00     0.274 HD
ATOM     11  H21 UNL     1       3.146  15.950 -20.472  1.00  0.00     0.274 HD
ENDBRANCH   7   8
BRANCH   7  12
HETATM   12  C6  UNL     1       0.568  16.744 -20.153  1.00  0.00     0.119 C 
HETATM   13  S1  UNL     1      -0.716  17.668 -21.003  1.00  0.00    -0.096 SA
ENDBRANCH   7  12
ENDBRANCH   5   7
TORSDOF 3
ENDMDL
MODEL 4
REMARK VINA RESULT: -4.076133930      2.734      4.415
REMARK  3 active torsions:
REMARK  status: ('A' for Active; 'I' for Inactive)
REMARK    1  A    between atoms: C4_5  and  C5_6 
REMARK    2  A    between atoms: C5_6  and  N2_7 
REMARK    3  A    between atoms: C5_6  and  C6_11 
ROOT
HETATM    1  N1  UNL     1       1.379  23.203 -23.549  1.00  0.00    -0.197 NA
HETATM    2  C1  UNL     1       1.969  22.341 -23.066  1.00  0.00     0.064 C 
HETATM    3  C2  UNL     1       2.718  21.262 -22.484  1.00  0.00     0.093 C 
HETATM    4  C3  UNL     1       3.012  21.412 -20.983  1.00  0.00     0.026 C 
HETATM    5  C4  UNL     1       2.801  19.911 -20.896  1.00  0.00     0.019 C 
HETATM    6  C7  UNL     1       1.882  20.037 -22.087  1.00  0.00     0.026 C 
ENDROOT
BRANCH   5   7
HETATM    7  C5  UNL     1       2.163  19.439 -19.624  1.00  0.00     0.197 C 
BRANCH   7   8
HETATM    8  N2  UNL     1       2.585  20.143 -18.454  1.00  0.00    -0.074 N 
ATOM      9  H23 UNL     1       2.190  21.083 -18.444  1.00  0.00     0.274 HD
ATOM     10  H22 UNL     1       2.135  19.755 -17.625  1.00  0.00     0.274 HD
ATOM     11  H21 UNL     1       3.596  20.180 -18.326  1.00  0.00     0.274 HD
ENDBRANCH   7   8
BRANCH   7  12
HETATM   12  C6  UNL     1       2.446  17.959 -19.478  1.00  0.00     0.119 C 
HETATM   13  S1  UNL     1       1.147  16.941 -20.188  1.00  0.00    -0.096 SA
ENDBRANCH   7  12
ENDBRANCH   5   7
TORSDOF 3
ENDMDL
MODEL 5
REMARK VINA RESULT: -3.963243006      1.089      1.129
REMARK  3 active torsions:
REMARK  status: ('A' for Active; 'I' for Inactive)
REMARK    1  A    between atoms: C4_5  and  C5_6 
REMARK    2  A    between atoms: C5_6  and  N2_7 
REMARK    3  A    between atoms: C5_6  and  C6_11 
ROOT
HETATM    1  N1  UNL     1       0.107  16.011 -19.843  1.00  0.00    -0.197 NA
HETATM    2  C1  UNL     1       1.037  16.645 -20.083  1.00  0.00     0.064 C 
HETATM    3  C2  UNL     1       2.213  17.418 -20.375  1.00  0.00     0.093 C 
HETATM    4  C3  UNL     1       2.095  18.338 -21.600  1.00  0.00     0.026 C 
HETATM    5  C4  UNL     1       2.928  19.330 -20.807  1.00  0.00     0.019 C 
HETATM    6  C7  UNL     1       2.356  18.707 -19.555  1.00  0.00     0.026 C 
ENDROOT
BRANCH   5   7
HETATM    7  C5  UNL     1       2.581  20.769 -21.039  1.00  0.00     0.197 C 
BRANCH   7   8
HETATM    8  N2  UNL     1       1.246  20.989 -21.500  1.00  0.00    -0.074 N 
ATOM      9  H23 UNL     1       0.892  20.157 -21.972  1.00  0.00     0.274 HD
ATOM     10  H22 UNL     1       0.600  21.030 -20.712  1.00  0.00     0.274 HD
ATOM     11  H21 UNL     1       1.135  21.810 -22.095  1.00  0.00     0.274 HD
ENDBRANCH   7   8
BRANCH   7  12
HETATM   12  C6  UNL     1       3.579  21.340 -22.023  1.00  0.00     0.119 C 
HETATM   13  S1  UNL     1       2.791  21.955 -23.516  1.00  0.00    -0.096 SA
ENDBRANCH   7  12
ENDBRANCH   5   7
TORSDOF 3
ENDMDL
