MODEL 1
REMARK VINA RESULT: -4.715029971      0.000      0.000
REMARK  3 active torsions:
REMARK  status: ('A' for Active; 'I' for Inactive)
REMARK    1  A    between atoms: O1_2  and  C2_3 
REMARK    2  A    between atoms: C7_8  and  N1_9 
REMARK    3  A    between atoms: C8_13  and  N2_14 
ROOT
HETATM    1  C2  UNL     1       1.678  19.750 -21.260  1.00  0.00     0.090 C 
HETATM    2  C3  UNL     1       1.433  20.203 -19.825  1.00  0.00     0.041 C 
HETATM    3  C4  UNL     1       2.636  19.766 -19.023  1.00  0.00     0.008 C 
HETATM    4  C5  UNL     1       3.100  18.564 -19.862  1.00  0.00    -0.010 C 
HETATM    5  C6  UNL     1       2.107  17.483 -19.718  1.00  0.00     0.039 C 
HETATM    6  C7  UNL     1       1.054  17.370 -20.742  1.00  0.00     0.217 C 
HETATM    7  C8  UNL     1       0.814  18.550 -21.604  1.00  0.00     0.247 C 
HETATM    8  C9  UNL     1       3.095  19.239 -21.228  1.00  0.00     0.044 C 
ENDROOT
BRANCH   6   9
HETATM    9  N1  UNL     1      -0.228  17.031 -20.101  1.00  0.00    -0.073 N 
ATOM     10  H13 UNL     1      -0.122  16.304 -19.392  1.00  0.00     0.274 HD
ATOM     11  H12 UNL     1      -0.565  17.779 -19.495  1.00  0.00     0.274 HD
ATOM     12  H11 UNL     1      -0.912  16.776 -20.814  1.00  0.00     0.274 HD
ENDBRANCH   6   9
BRANCH   7  13
HETATM   13  N2  UNL     1      -0.575  18.970 -21.641  1.00  0.00    -0.070 N 
ATOM     14  H23 UNL     1      -0.823  19.568 -20.852  1.00  0.00     0.274 HD
ATOM     15  H22 UNL     1      -0.761  19.638 -22.389  1.00  0.00     0.274 HD
ATOM     16  H21 UNL     1      -1.167  18.141 -21.703  1.00  0.00     0.274 HD
ENDBRANCH   7  13
BRANCH   1  17
HETATM   17  O1  UNL     1       1.459  20.807 -22.073  1.00  0.00    -0.383 OA
HETATM   18  C1  UNL     1       2.530  21.560 -22.449  1.00  0.00     0.202 C 
ENDBRANCH   1  17
TORSDOF 3
ENDMDL
MODEL 2
REMARK VINA RESULT: -4.579616341      1.253      1.520
REMARK  3 active torsions:
REMARK  status: ('A' for Active; 'I' for Inactive)
REMARK    1  A    between atoms: O1_2  and  C2_3 
REMARK    2  A    between atoms: C7_8  and  N1_9 
REMARK    3  A    between atoms: C8_13  and  N2_14 
ROOT
HETATM    1  C2  UNL     1       2.563  19.347 -20.828  1.00  0.00     0.090 C 
HETATM    2  C3  UNL     1       2.100  19.523 -19.386  1.00  0.00     0.041 C 
HETATM    3  C4  UNL     1       2.451  18.244 -18.661  1.00  0.00     0.008 C 
HETATM    4  C5  UNL     1       2.434  17.254 -19.837  1.00  0.00    -0.010 C 
HETATM    5  C6  UNL     1       1.040  17.090 -20.290  1.00  0.00     0.039 C 
HETATM    6  C7  UNL     1       0.577  17.921 -21.415  1.00  0.00     0.217 C 
HETATM    7  C8  UNL     1       1.378  19.119 -21.751  1.00  0.00     0.247 C 
HETATM    8  C9  UNL     1       3.315  18.043 -20.798  1.00  0.00     0.044 C 
ENDROOT
BRANCH   6   9
HETATM    9  N1  UNL     1      -0.801  18.375 -21.162  1.00  0.00    -0.073 N 
ATOM     10  H13 UNL     1      -1.419  17.605 -20.903  1.00  0.00     0.274 HD
ATOM     11  H12 UNL     1      -0.875  18.918 -20.302  1.00  0.00     0.274 HD
ATOM     12  H11 UNL     1      -1.148  18.889 -21.972  1.00  0.00     0.274 HD
ENDBRANCH   6   9
BRANCH   7  13
HETATM   13  N2  UNL     1       0.597  20.341 -21.819  1.00  0.00    -0.070 N 
ATOM     14  H23 UNL     1       0.577  20.840 -20.929  1.00  0.00     0.274 HD
ATOM     15  H22 UNL     1       1.052  21.064 -22.376  1.00  0.00     0.274 HD
ATOM     16  H21 UNL     1      -0.337  20.115 -22.161  1.00  0.00     0.274 HD
ENDBRANCH   7  13
BRANCH   1  17
HETATM   17  O1  UNL     1       3.293  20.433 -21.167  1.00  0.00    -0.383 OA
HETATM   18  C1  UNL     1       3.274  21.504 -20.327  1.00  0.00     0.202 C 
ENDBRANCH   1  17
TORSDOF 3
ENDMDL
MODEL 3
REMARK VINA RESULT: -3.368879101      2.003      3.190
REMARK  3 active torsions:
REMARK  status: ('A' for Active; 'I' for Inactive)
REMARK    1  A    between atoms: O1_2  and  C2_3 
REMARK    2  A    between atoms: C7_8  and  N1_9 
REMARK    3  A    between atoms: C8_13  and  N2_14 
ROOT
HETATM    1  C2  UNL     1       1.043  18.367 -20.891  1.00  0.00     0.090 C 
HETATM    2  C3  UNL     1       2.342  17.983 -21.591  1.00  0.00     0.041 C 
HETATM    3  C4  UNL     1       3.185  17.258 -20.569  1.00  0.00     0.008 C 
HETATM    4  C5  UNL     1       2.632  17.876 -19.274  1.00  0.00    -0.010 C 
HETATM    5  C6  UNL     1       3.052  19.288 -19.213  1.00  0.00     0.039 C 
HETATM    6  C7  UNL     1       2.115  20.310 -19.710  1.00  0.00     0.217 C 
HETATM    7  C8  UNL     1       1.012  19.854 -20.586  1.00  0.00     0.247 C 
HETATM    8  C9  UNL     1       1.148  17.677 -19.556  1.00  0.00     0.044 C 
ENDROOT
BRANCH   6   9
HETATM    9  N1  UNL     1       2.857  21.348 -20.447  1.00  0.00    -0.073 N 
ATOM     10  H13 UNL     1       2.382  22.251 -20.422  1.00  0.00     0.274 HD
ATOM     11  H12 UNL     1       3.716  21.620 -19.968  1.00  0.00     0.274 HD
ATOM     12  H11 UNL     1       3.033  21.032 -21.401  1.00  0.00     0.274 HD
ENDBRANCH   6   9
BRANCH   7  13
HETATM   13  N2  UNL     1       0.923  20.586 -21.836  1.00  0.00    -0.070 N 
ATOM     14  H23 UNL     1       1.834  20.901 -22.170  1.00  0.00     0.274 HD
ATOM     15  H22 UNL     1       0.685  19.984 -22.624  1.00  0.00     0.274 HD
ATOM     16  H21 UNL     1       0.263  21.355 -21.720  1.00  0.00     0.274 HD
ENDBRANCH   7  13
BRANCH   1  17
HETATM   17  O1  UNL     1       0.015  17.969 -21.673  1.00  0.00    -0.383 OA
HETATM   18  C1  UNL     1      -1.193  17.752 -21.082  1.00  0.00     0.202 C 
ENDBRANCH   1  17
TORSDOF 3
ENDMDL
MODEL 4
REMARK VINA RESULT: -2.965997327      2.320      3.698
REMARK  3 active torsions:
REMARK  status: ('A' for Active; 'I' for Inactive)
REMARK    1  A    between atoms: O1_2  and  C2_3 
REMARK    2  A    between atoms: C7_8  and  N1_9 
REMARK    3  A    between atoms: C8_13  and  N2_14 
ROOT
HETATM    1  C2  UNL     1       2.170  18.422 -20.303  1.00  0.00     0.090 C 
HETATM    2  C3  UNL     1       0.761  18.929 -20.593  1.00  0.00     0.041 C 
HETATM    3  C4  UNL     1       0.858  19.789 -21.831  1.00  0.00     0.008 C 
HETATM    4  C5  UNL     1       2.323  20.244 -21.731  1.00  0.00    -0.010 C 
HETATM    5  C6  UNL     1       2.448  21.168 -20.588  1.00  0.00     0.039 C 
HETATM    6  C7  UNL     1       2.878  20.613 -19.293  1.00  0.00     0.217 C 
HETATM    7  C8  UNL     1       2.771  19.148 -19.112  1.00  0.00     0.247 C 
HETATM    8  C9  UNL     1       2.960  18.878 -21.502  1.00  0.00     0.044 C 
ENDROOT
BRANCH   6   9
HETATM    9  N1  UNL     1       2.113  21.244 -18.204  1.00  0.00    -0.073 N 
ATOM     10  H13 UNL     1       2.720  21.679 -17.509  1.00  0.00     0.274 HD
ATOM     11  H12 UNL     1       1.622  22.083 -18.515  1.00  0.00     0.274 HD
ATOM     12  H11 UNL     1       1.480  20.561 -17.788  1.00  0.00     0.274 HD
ENDBRANCH   6   9
BRANCH   7  13
HETATM   13  N2  UNL     1       2.046  18.761 -17.915  1.00  0.00    -0.070 N 
ATOM     14  H23 UNL     1       1.464  17.935 -18.061  1.00  0.00     0.274 HD
ATOM     15  H22 UNL     1       2.658  18.378 -17.195  1.00  0.00     0.274 HD
ATOM     16  H21 UNL     1       1.509  19.562 -17.584  1.00  0.00     0.274 HD
ENDBRANCH   7  13
BRANCH   1  17
HETATM   17  O1  UNL     1       2.102  17.084 -20.125  1.00  0.00    -0.383 OA
HETATM   18  C1  UNL     1       0.871  16.504 -20.088  1.00  0.00     0.202 C 
ENDBRANCH   1  17
TORSDOF 3
ENDMDL
MODEL 5
REMARK VINA RESULT: -2.952416459      1.433      1.771
REMARK  3 active torsions:
REMARK  status: ('A' for Active; 'I' for Inactive)
REMARK    1  A    between atoms: O1_2  and  C2_3 
REMARK    2  A    between atoms: C7_8  and  N1_9 
REMARK    3  A    between atoms: C8_13  and  N2_14 
ROOT
HETATM    1  C2  UNL     1       2.386  20.030 -21.153  1.00  0.00     0.090 C 
HETATM    2  C3  UNL     1       1.068  20.323 -20.445  1.00  0.00     0.041 C 
HETATM    3  C4  UNL     1       1.419  21.017 -19.150  1.00  0.00     0.008 C 
HETATM    4  C5  UNL     1       2.832  20.458 -18.917  1.00  0.00    -0.010 C 
HETATM    5  C6  UNL     1       2.720  19.025 -18.588  1.00  0.00     0.039 C 
HETATM    6  C7  UNL     1       2.873  18.050 -19.682  1.00  0.00     0.217 C 
HETATM    7  C8  UNL     1       2.730  18.553 -21.066  1.00  0.00     0.247 C 
HETATM    8  C9  UNL     1       3.406  20.738 -20.300  1.00  0.00     0.044 C 
ENDROOT
BRANCH   6   9
HETATM    9  N1  UNL     1       1.901  16.957 -19.512  1.00  0.00    -0.073 N 
ATOM     10  H13 UNL     1       1.519  16.924 -18.566  1.00  0.00     0.274 HD
ATOM     11  H12 UNL     1       1.031  17.134 -20.015  1.00  0.00     0.274 HD
ATOM     12  H11 UNL     1       2.329  16.071 -19.784  1.00  0.00     0.274 HD
ENDBRANCH   6   9
BRANCH   7  13
HETATM   13  N2  UNL     1       1.774  17.803 -21.861  1.00  0.00    -0.070 N 
ATOM     14  H23 UNL     1       0.813  18.110 -21.706  1.00  0.00     0.274 HD
ATOM     15  H22 UNL     1       1.834  18.025 -22.855  1.00  0.00     0.274 HD
ATOM     16  H21 UNL     1       1.900  16.809 -21.675  1.00  0.00     0.274 HD
ENDBRANCH   7  13
BRANCH   1  17
HETATM   17  O1  UNL     1       2.283  20.472 -22.426  1.00  0.00    -0.383 OA
HETATM   18  C1  UNL     1       2.521  21.791 -22.667  1.00  0.00     0.202 C 
ENDBRANCH   1  17
TORSDOF 3
ENDMDL
