MODEL 1
REMARK VINA RESULT: -3.393312790      0.000      0.000
REMARK  3 active torsions:
REMARK  status: ('A' for Active; 'I' for Inactive)
REMARK    1  A    between atoms: C2_2  and  C3_3 
REMARK    2  A    between atoms: C3_3  and  N1_4 
REMARK    3  A    between atoms: C4_5  and  N2_6 
ROOT
HETATM    1  N1  UNL     1       2.007  19.058 -20.257  1.00  0.00    -0.336 N 
HETATM    2  C4  UNL     1       0.951  19.527 -21.043  1.00  0.00     0.485 C 
HETATM    3  N3  UNL     1      -0.297  18.795 -20.861  1.00  0.00    -0.029 N 
ATOM      4  H31 UNL     1      -1.097  19.222 -21.330  1.00  0.00     0.281 HD
ATOM      5  H32 UNL     1      -0.673  18.850 -19.914  1.00  0.00     0.281 HD
HETATM    6  C5  UNL     1      -0.011  17.423 -21.308  1.00  0.00     0.239 C 
HETATM    7  C6  UNL     1       0.945  16.837 -20.332  1.00  0.00     0.058 C 
HETATM    8  C7  UNL     1       2.148  17.674 -20.045  1.00  0.00     0.029 C 
HETATM    9  C8  UNL     1       2.612  17.312 -18.627  1.00  0.00     0.038 C 
HETATM   10  C9  UNL     1       3.276  17.173 -20.954  1.00  0.00     0.038 C 
ENDROOT
BRANCH   2  11
HETATM   11  N2  UNL     1       1.292  19.468 -22.472  1.00  0.00    -0.033 N 
ATOM     12  H23 UNL     1       2.089  18.854 -22.644  1.00  0.00     0.279 HD
ATOM     13  H22 UNL     1       0.588  18.960 -23.007  1.00  0.00     0.279 HD
ATOM     14  H21 UNL     1       1.449  20.403 -22.848  1.00  0.00     0.279 HD
ENDBRANCH   2  11
BRANCH   1  15
HETATM   15  C3  UNL     1       2.663  19.939 -19.380  1.00  0.00     0.062 C 
BRANCH  15  16
HETATM   16  C2  UNL     1       2.608  21.336 -19.967  1.00  0.00     0.040 C 
HETATM   17  C1  UNL     1       3.693  21.545 -21.003  1.00  0.00     0.010 C 
ENDBRANCH  15  16
ENDBRANCH   1  15
TORSDOF 3
ENDMDL
MODEL 2
REMARK VINA RESULT: -3.239620432      0.870      1.186
REMARK  3 active torsions:
REMARK  status: ('A' for Active; 'I' for Inactive)
REMARK    1  A    between atoms: C2_2  and  C3_3 
REMARK    2  A    between atoms: C3_3  and  N1_4 
REMARK    3  A    between atoms: C4_5  and  N2_6 
ROOT
HETATM    1  N1  UNL     1       2.232  19.218 -20.782  1.00  0.00    -0.336 N 
HETATM    2  C4  UNL     1       1.311  19.979 -21.506  1.00  0.00     0.485 C 
HETATM    3  N3  UNL     1      -0.081  19.720 -21.157  1.00  0.00    -0.029 N 
ATOM      4  H31 UNL     1      -0.741  20.369 -21.585  1.00  0.00     0.281 HD
ATOM      5  H32 UNL     1      -0.310  19.940 -20.187  1.00  0.00     0.281 HD
HETATM    6  C5  UNL     1      -0.315  18.312 -21.517  1.00  0.00     0.239 C 
HETATM    7  C6  UNL     1       0.496  17.484 -20.586  1.00  0.00     0.058 C 
HETATM    8  C7  UNL     1       1.931  17.879 -20.474  1.00  0.00     0.029 C 
HETATM    9  C8  UNL     1       2.403  17.446 -19.079  1.00  0.00     0.038 C 
HETATM   10  C9  UNL     1       2.723  16.987 -21.437  1.00  0.00     0.038 C 
ENDROOT
BRANCH   2  11
HETATM   11  N2  UNL     1       1.454  19.745 -22.950  1.00  0.00    -0.033 N 
ATOM     12  H23 UNL     1       1.055  18.848 -23.228  1.00  0.00     0.279 HD
ATOM     13  H22 UNL     1       0.848  20.358 -23.494  1.00  0.00     0.279 HD
ATOM     14  H21 UNL     1       2.430  19.829 -23.238  1.00  0.00     0.279 HD
ENDBRANCH   2  11
BRANCH   1  15
HETATM   15  C3  UNL     1       3.235  19.866 -20.039  1.00  0.00     0.062 C 
BRANCH  15  16
HETATM   16  C2  UNL     1       2.687  21.188 -19.536  1.00  0.00     0.040 C 
HETATM   17  C1  UNL     1       2.089  21.048 -18.151  1.00  0.00     0.010 C 
ENDBRANCH  15  16
ENDBRANCH   1  15
TORSDOF 3
ENDMDL
MODEL 3
REMARK VINA RESULT: -2.530839410      1.794      3.042
REMARK  3 active torsions:
REMARK  status: ('A' for Active; 'I' for Inactive)
REMARK    1  A    between atoms: C2_2  and  C3_3 
REMARK    2  A    between atoms: C3_3  and  N1_4 
REMARK    3  A    between atoms: C4_5  and  N2_6 
ROOT
HETATM    1  N1  UNL     1       2.482  20.155 -20.632  1.00  0.00    -0.336 N 
HETATM    2  C4  UNL     1       2.619  20.928 -19.476  1.00  0.00     0.485 C 
HETATM    3  N3  UNL     1       3.242  20.225 -18.360  1.00  0.00    -0.029 N 
ATOM      4  H31 UNL     1       3.465  20.828 -17.567  1.00  0.00     0.281 HD
ATOM      5  H32 UNL     1       4.197  19.919 -18.548  1.00  0.00     0.281 HD
HETATM    6  C5  UNL     1       2.320  19.127 -18.030  1.00  0.00     0.239 C 
HETATM    7  C6  UNL     1       2.350  18.176 -19.173  1.00  0.00     0.058 C 
HETATM    8  C7  UNL     1       2.145  18.794 -20.516  1.00  0.00     0.029 C 
HETATM    9  C8  UNL     1       2.859  17.893 -21.533  1.00  0.00     0.038 C 
HETATM   10  C9  UNL     1       0.657  18.649 -20.858  1.00  0.00     0.038 C 
ENDROOT
BRANCH   2  11
HETATM   11  N2  UNL     1       1.313  21.419 -19.013  1.00  0.00    -0.033 N 
ATOM     12  H23 UNL     1       1.338  22.417 -18.805  1.00  0.00     0.279 HD
ATOM     13  H22 UNL     1       0.628  21.436 -19.769  1.00  0.00     0.279 HD
ATOM     14  H21 UNL     1       0.980  20.876 -18.217  1.00  0.00     0.279 HD
ENDBRANCH   2  11
BRANCH   1  15
HETATM   15  C3  UNL     1       3.051  20.602 -21.836  1.00  0.00     0.062 C 
BRANCH  15  16
HETATM   16  C2  UNL     1       2.212  21.746 -22.373  1.00  0.00     0.040 C 
HETATM   17  C1  UNL     1       2.573  22.073 -23.807  1.00  0.00     0.010 C 
ENDBRANCH  15  16
ENDBRANCH   1  15
TORSDOF 3
ENDMDL
MODEL 4
REMARK VINA RESULT: -2.342629285      1.357      2.867
REMARK  3 active torsions:
REMARK  status: ('A' for Active; 'I' for Inactive)
REMARK    1  A    between atoms: C2_2  and  C3_3 
REMARK    2  A    between atoms: C3_3  and  N1_4 
REMARK    3  A    between atoms: C4_5  and  N2_6 
ROOT
HETATM    1  N1  UNL     1       1.739  19.025 -19.915  1.00  0.00    -0.336 N 
HETATM    2  C4  UNL     1       2.811  18.223 -19.514  1.00  0.00     0.485 C 
HETATM    3  N3  UNL     1       3.664  17.777 -20.609  1.00  0.00    -0.029 N 
ATOM      4  H31 UNL     1       4.517  17.309 -20.302  1.00  0.00     0.281 HD
ATOM      5  H32 UNL     1       4.121  18.538 -21.112  1.00  0.00     0.281 HD
HETATM    6  C5  UNL     1       2.801  16.939 -21.456  1.00  0.00     0.239 C 
HETATM    7  C6  UNL     1       1.790  17.839 -22.073  1.00  0.00     0.058 C 
HETATM    8  C7  UNL     1       1.068  18.729 -21.116  1.00  0.00     0.029 C 
HETATM    9  C8  UNL     1       0.639  19.974 -21.906  1.00  0.00     0.038 C 
HETATM   10  C9  UNL     1      -0.250  18.033 -20.757  1.00  0.00     0.038 C 
ENDROOT
BRANCH   2  11
HETATM   11  N2  UNL     1       2.336  17.024 -18.808  1.00  0.00    -0.033 N 
ATOM     12  H23 UNL     1       2.297  17.172 -17.799  1.00  0.00     0.279 HD
ATOM     13  H22 UNL     1       1.345  16.855 -18.978  1.00  0.00     0.279 HD
ATOM     14  H21 UNL     1       2.903  16.211 -19.048  1.00  0.00     0.279 HD
ENDBRANCH   2  11
BRANCH   1  15
HETATM   15  C3  UNL     1       1.589  20.309 -19.365  1.00  0.00     0.062 C 
BRANCH  15  16
HETATM   16  C2  UNL     1       2.958  20.956 -19.265  1.00  0.00     0.040 C 
HETATM   17  C1  UNL     1       3.339  21.648 -20.557  1.00  0.00     0.010 C 
ENDBRANCH  15  16
ENDBRANCH   1  15
TORSDOF 3
ENDMDL
MODEL 5
REMARK VINA RESULT: -2.085120902      1.196      3.518
REMARK  3 active torsions:
REMARK  status: ('A' for Active; 'I' for Inactive)
REMARK    1  A    between atoms: C2_2  and  C3_3 
REMARK    2  A    between atoms: C3_3  and  N1_4 
REMARK    3  A    between atoms: C4_5  and  N2_6 
ROOT
HETATM    1  N1  UNL     1       1.619  19.485 -20.278  1.00  0.00    -0.336 N 
HETATM    2  C4  UNL     1       1.290  19.608 -21.630  1.00  0.00     0.485 C 
HETATM    3  N3  UNL     1       2.333  20.223 -22.443  1.00  0.00    -0.029 N 
ATOM      4  H31 UNL     1       2.148  20.188 -23.446  1.00  0.00     0.281 HD
ATOM      5  H32 UNL     1       3.205  19.693 -22.464  1.00  0.00     0.281 HD
HETATM    6  C5  UNL     1       2.481  21.589 -21.915  1.00  0.00     0.239 C 
HETATM    7  C6  UNL     1       3.054  21.467 -20.548  1.00  0.00     0.058 C 
HETATM    8  C7  UNL     1       2.343  20.513 -19.647  1.00  0.00     0.029 C 
HETATM    9  C8  UNL     1       3.377  20.006 -18.633  1.00  0.00     0.038 C 
HETATM   10  C9  UNL     1       1.357  21.333 -18.807  1.00  0.00     0.038 C 
ENDROOT
BRANCH   2  11
HETATM   11  N2  UNL     1       0.068  20.407 -21.804  1.00  0.00    -0.033 N 
ATOM     12  H23 UNL     1      -0.648  20.153 -21.122  1.00  0.00     0.279 HD
ATOM     13  H22 UNL     1       0.209  21.377 -21.525  1.00  0.00     0.279 HD
ATOM     14  H21 UNL     1      -0.281  20.336 -22.760  1.00  0.00     0.279 HD
ENDBRANCH   2  11
BRANCH   1  15
HETATM   15  C3  UNL     1       1.589  18.218 -19.670  1.00  0.00     0.062 C 
BRANCH  15  16
HETATM   16  C2  UNL     1       1.977  17.177 -20.702  1.00  0.00     0.040 C 
HETATM   17  C1  UNL     1       3.475  17.145 -20.921  1.00  0.00     0.010 C 
ENDBRANCH  15  16
ENDBRANCH   1  15
TORSDOF 3
ENDMDL
