MODEL 1
REMARK VINA RESULT: -7.979805382      0.000      0.000
REMARK  7 active torsions:
REMARK  status: ('A' for Active; 'I' for Inactive)
REMARK    1  A    between atoms: C4_7  and  N3_8 
REMARK    2  A    between atoms: N3_8  and  S1_10 
REMARK    3  A    between atoms: S1_10  and  N4_11 
REMARK    4  A    between atoms: C6_20  and  C7_21 
REMARK    5  A    between atoms: C8_25  and  C9_26 
REMARK    6  A    between atoms: C9_26  and  O5_27 
REMARK    7  A    between atoms: C9_26  and  C10_29 
ROOT
HETATM    1  C1  UNL     1      -3.072 -37.227  41.752  1.00  0.00     0.018 C 
HETATM    2  C2  UNL     1      -2.684 -35.756  41.670  1.00  0.00     0.046 C 
HETATM    3  C3  UNL     1      -3.372 -35.018  40.621  1.00  0.00     0.082 C 
HETATM    4  N1  UNL     1      -4.707 -35.122  40.260  1.00  0.00    -0.315 N 
ATOM      5  H1  UNL     1      -5.008 -34.602  39.436  1.00  0.00     0.181 HD
HETATM    6  N2  UNL     1      -5.653 -35.857  40.911  1.00  0.00    -0.094 NA
HETATM    7  C4  UNL     1      -6.897 -35.193  40.951  1.00  0.00     0.313 C 
HETATM    8  N5  UNL     1      -7.073 -34.448  42.247  1.00  0.00    -0.323 N 
ATOM      9  H5  UNL     1      -7.915 -33.878  42.319  1.00  0.00     0.166 HD
HETATM   10  C5  UNL     1      -6.243 -34.433  43.353  1.00  0.00     0.249 C 
HETATM   11  O3  UNL     1      -6.596 -34.921  44.490  1.00  0.00    -0.271 OA
HETATM   12  C6  UNL     1      -4.838 -33.844  43.404  1.00  0.00     0.232 C 
HETATM   13  N6  UNL     1      -3.942 -34.865  43.540  1.00  0.00    -0.396 N 
ATOM     14  H6  UNL     1      -4.294 -35.628  44.118  1.00  0.00     0.154 HD
HETATM   15  C8  UNL     1      -2.660 -35.094  43.065  1.00  0.00     0.124 C 
ENDROOT
BRANCH   7  16
HETATM   16  N3  UNL     1      -6.922 -34.171  39.908  1.00  0.00    -0.265 N 
ATOM     17  H3  UNL     1      -7.054 -34.392  38.921  1.00  0.00     0.177 HD
BRANCH  16  18
HETATM   18  S1  UNL     1      -6.711 -32.565  40.482  1.00  0.00     0.315 S 
HETATM   19  O1  UNL     1      -5.410 -32.459  41.198  1.00  0.00    -0.183 OA
HETATM   20  O2  UNL     1      -7.828 -32.223  41.400  1.00  0.00    -0.183 OA
BRANCH  18  21
HETATM   21  N4  UNL     1      -6.718 -31.529  39.061  1.00  0.00    -0.311 N 
ATOM     22  H42 UNL     1      -6.855 -31.832  38.097  1.00  0.00     0.170 HD
ATOM     23  H41 UNL     1      -6.559 -30.580  39.398  1.00  0.00     0.170 HD
ENDBRANCH  18  21
ENDBRANCH  16  18
ENDBRANCH   7  16
BRANCH  12  24
HETATM   24  C7  UNL     1      -4.878 -32.821  44.446  1.00  0.00     0.265 C 
HETATM   25  O4  UNL     1      -4.236 -33.047  45.539  1.00  0.00    -0.304 OA
ENDBRANCH  12  24
BRANCH  15  26
HETATM   26  C9  UNL     1      -1.732 -33.933  43.010  1.00  0.00     0.230 C 
BRANCH  26  27
HETATM   27  O5  UNL     1      -1.556 -33.302  44.296  1.00  0.00    -0.384 OA
ATOM     28  H5  UNL     1      -2.336 -32.845  44.588  1.00  0.00     0.210 HD
ENDBRANCH  26  27
BRANCH  26  29
HETATM   29  C10 UNL     1      -0.321 -34.385  42.803  1.00  0.00     0.262 C 
HETATM   30  N7  UNL     1       0.228 -35.268  43.763  1.00  0.00    -0.060 NA
HETATM   31  O6  UNL     1       0.395 -34.016  41.868  1.00  0.00    -0.274 OA
ENDBRANCH  26  29
ENDBRANCH  15  26
TORSDOF 7
ENDMDL
MODEL 2
REMARK VINA RESULT: -7.519374903      3.309      5.929
REMARK  7 active torsions:
REMARK  status: ('A' for Active; 'I' for Inactive)
REMARK    1  A    between atoms: C4_7  and  N3_8 
REMARK    2  A    between atoms: N3_8  and  S1_10 
REMARK    3  A    between atoms: S1_10  and  N4_11 
REMARK    4  A    between atoms: C6_20  and  C7_21 
REMARK    5  A    between atoms: C8_25  and  C9_26 
REMARK    6  A    between atoms: C9_26  and  O5_27 
REMARK    7  A    between atoms: C9_26  and  C10_29 
ROOT
HETATM    1  C1  UNL     1      -0.281 -33.341  41.988  1.00  0.00     0.018 C 
HETATM    2  C2  UNL     1      -0.870 -34.721  42.251  1.00  0.00     0.046 C 
HETATM    3  C3  UNL     1      -0.745 -35.167  43.631  1.00  0.00     0.082 C 
HETATM    4  N1  UNL     1      -0.925 -34.408  44.778  1.00  0.00    -0.315 N 
ATOM      5  H1  UNL     1      -0.703 -34.851  45.669  1.00  0.00     0.181 HD
HETATM    6  N2  UNL     1      -1.373 -33.120  44.817  1.00  0.00    -0.094 NA
HETATM    7  C4  UNL     1      -2.235 -32.899  45.912  1.00  0.00     0.313 C 
HETATM    8  N5  UNL     1      -3.677 -33.029  45.501  1.00  0.00    -0.323 N 
ATOM      9  H5  UNL     1      -4.360 -32.960  46.256  1.00  0.00     0.166 HD
HETATM   10  C5  UNL     1      -4.199 -33.230  44.238  1.00  0.00     0.249 C 
HETATM   11  O3  UNL     1      -4.920 -32.349  43.637  1.00  0.00    -0.271 OA
HETATM   12  C6  UNL     1      -4.024 -34.486  43.391  1.00  0.00     0.232 C 
HETATM   13  N6  UNL     1      -3.232 -34.183  42.321  1.00  0.00    -0.396 N 
ATOM     14  H6  UNL     1      -3.385 -33.239  41.968  1.00  0.00     0.154 HD
HETATM   15  C8  UNL     1      -2.266 -34.877  41.609  1.00  0.00     0.124 C 
ENDROOT
BRANCH   7  16
HETATM   16  N3  UNL     1      -2.017 -33.947  46.906  1.00  0.00    -0.265 N 
ATOM     17  H3  UNL     1      -2.567 -34.806  46.933  1.00  0.00     0.177 HD
BRANCH  16  18
HETATM   18  S1  UNL     1      -0.758 -33.613  48.026  1.00  0.00     0.315 S 
HETATM   19  O1  UNL     1      -0.416 -32.164  47.974  1.00  0.00    -0.183 OA
HETATM   20  O2  UNL     1       0.433 -34.430  47.682  1.00  0.00    -0.183 OA
BRANCH  18  21
HETATM   21  N4  UNL     1      -1.385 -34.040  49.613  1.00  0.00    -0.311 N 
ATOM     22  H42 UNL     1      -2.296 -34.455  49.808  1.00  0.00     0.170 HD
ATOM     23  H41 UNL     1      -0.658 -33.791  50.284  1.00  0.00     0.170 HD
ENDBRANCH  18  21
ENDBRANCH  16  18
ENDBRANCH   7  16
BRANCH  12  24
HETATM   24  C7  UNL     1      -5.375 -34.976  43.130  1.00  0.00     0.265 C 
HETATM   25  O4  UNL     1      -6.222 -34.960  44.100  1.00  0.00    -0.304 OA
ENDBRANCH  12  24
BRANCH  15  26
HETATM   26  C9  UNL     1      -2.503 -36.324  41.363  1.00  0.00     0.230 C 
BRANCH  26  27
HETATM   27  O5  UNL     1      -2.524 -37.097  42.582  1.00  0.00    -0.384 OA
ATOM     28  H5  UNL     1      -1.658 -37.377  42.851  1.00  0.00     0.210 HD
ENDBRANCH  26  27
BRANCH  26  29
HETATM   29  C10 UNL     1      -3.915 -36.570  40.934  1.00  0.00     0.262 C 
HETATM   30  N7  UNL     1      -4.623 -37.609  41.584  1.00  0.00    -0.060 NA
HETATM   31  O6  UNL     1      -4.485 -35.943  40.036  1.00  0.00    -0.274 OA
ENDBRANCH  26  29
ENDBRANCH  15  26
TORSDOF 7
ENDMDL
MODEL 3
REMARK VINA RESULT: -7.334977303      3.214      5.912
REMARK  7 active torsions:
REMARK  status: ('A' for Active; 'I' for Inactive)
REMARK    1  A    between atoms: C4_7  and  N3_8 
REMARK    2  A    between atoms: N3_8  and  S1_10 
REMARK    3  A    between atoms: S1_10  and  N4_11 
REMARK    4  A    between atoms: C6_20  and  C7_21 
REMARK    5  A    between atoms: C8_25  and  C9_26 
REMARK    6  A    between atoms: C9_26  and  O5_27 
REMARK    7  A    between atoms: C9_26  and  C10_29 
ROOT
HETATM    1  C1  UNL     1      -0.710 -33.475  41.545  1.00  0.00     0.018 C 
HETATM    2  C2  UNL     1      -1.327 -34.822  41.897  1.00  0.00     0.046 C 
HETATM    3  C3  UNL     1      -1.015 -35.285  43.242  1.00  0.00     0.082 C 
HETATM    4  N1  UNL     1      -0.974 -34.526  44.402  1.00  0.00    -0.315 N 
ATOM      5  H1  UNL     1      -0.642 -34.987  45.248  1.00  0.00     0.181 HD
HETATM    6  N2  UNL     1      -1.338 -33.216  44.509  1.00  0.00    -0.094 NA
HETATM    7  C4  UNL     1      -2.007 -32.956  45.723  1.00  0.00     0.313 C 
HETATM    8  N5  UNL     1      -3.501 -33.003  45.541  1.00  0.00    -0.323 N 
ATOM      9  H5  UNL     1      -4.054 -32.902  46.391  1.00  0.00     0.166 HD
HETATM   10  C5  UNL     1      -4.222 -33.165  44.373  1.00  0.00     0.249 C 
HETATM   11  O3  UNL     1      -4.977 -32.242  43.890  1.00  0.00    -0.271 OA
HETATM   12  C6  UNL     1      -4.250 -34.423  43.511  1.00  0.00     0.232 C 
HETATM   13  N6  UNL     1      -3.617 -34.156  42.331  1.00  0.00    -0.396 N 
ATOM     14  H6  UNL     1      -3.770 -33.202  42.004  1.00  0.00     0.154 HD
HETATM   15  C8  UNL     1      -2.812 -34.896  41.479  1.00  0.00     0.124 C 
ENDROOT
BRANCH   7  16
HETATM   16  N3  UNL     1      -1.698 -34.022  46.673  1.00  0.00    -0.265 N 
ATOM     17  H3  UNL     1      -2.157 -34.933  46.650  1.00  0.00     0.177 HD
BRANCH  16  18
HETATM   18  S1  UNL     1      -0.495 -33.614  47.830  1.00  0.00     0.315 S 
HETATM   19  O1  UNL     1       0.062 -34.858  48.431  1.00  0.00    -0.183 OA
HETATM   20  O2  UNL     1      -1.101 -32.765  48.887  1.00  0.00    -0.183 OA
BRANCH  18  21
HETATM   21  N4  UNL     1       0.755 -32.741  46.954  1.00  0.00    -0.311 N 
ATOM     22  H42 UNL     1       1.218 -33.051  46.100  1.00  0.00     0.170 HD
ATOM     23  H41 UNL     1       0.915 -31.876  47.471  1.00  0.00     0.170 HD
ENDBRANCH  18  21
ENDBRANCH  16  18
ENDBRANCH   7  16
BRANCH  12  24
HETATM   24  C7  UNL     1      -5.650 -34.836  43.462  1.00  0.00     0.265 C 
HETATM   25  O4  UNL     1      -6.306 -34.881  44.569  1.00  0.00    -0.304 OA
ENDBRANCH  12  24
BRANCH  15  26
HETATM   26  C9  UNL     1      -3.164 -36.326  41.274  1.00  0.00     0.230 C 
BRANCH  26  27
HETATM   27  O5  UNL     1      -3.043 -37.106  42.483  1.00  0.00    -0.384 OA
ATOM     28  H5  UNL     1      -2.533 -37.897  42.357  1.00  0.00     0.210 HD
ENDBRANCH  26  27
BRANCH  26  29
HETATM   29  C10 UNL     1      -4.636 -36.490  41.065  1.00  0.00     0.262 C 
HETATM   30  N7  UNL     1      -5.264 -35.625  40.137  1.00  0.00    -0.060 NA
HETATM   31  O6  UNL     1      -5.335 -37.310  41.668  1.00  0.00    -0.274 OA
ENDBRANCH  26  29
ENDBRANCH  15  26
TORSDOF 7
ENDMDL
MODEL 4
REMARK VINA RESULT: -7.311553694      1.713      2.207
REMARK  7 active torsions:
REMARK  status: ('A' for Active; 'I' for Inactive)
REMARK    1  A    between atoms: C4_7  and  N3_8 
REMARK    2  A    between atoms: N3_8  and  S1_10 
REMARK    3  A    between atoms: S1_10  and  N4_11 
REMARK    4  A    between atoms: C6_20  and  C7_21 
REMARK    5  A    between atoms: C8_25  and  C9_26 
REMARK    6  A    between atoms: C9_26  and  O5_27 
REMARK    7  A    between atoms: C9_26  and  C10_29 
ROOT
HETATM    1  C1  UNL     1      -2.942 -36.575  41.634  1.00  0.00     0.018 C 
HETATM    2  C2  UNL     1      -2.085 -35.319  41.527  1.00  0.00     0.046 C 
HETATM    3  C3  UNL     1      -2.754 -34.197  40.885  1.00  0.00     0.082 C 
HETATM    4  N1  UNL     1      -4.069 -33.794  41.057  1.00  0.00    -0.315 N 
ATOM      5  H1  UNL     1      -4.409 -33.044  40.456  1.00  0.00     0.181 HD
HETATM    6  N2  UNL     1      -4.949 -34.314  41.960  1.00  0.00    -0.094 NA
HETATM    7  C4  UNL     1      -5.769 -33.316  42.527  1.00  0.00     0.313 C 
HETATM    8  N5  UNL     1      -5.217 -32.846  43.847  1.00  0.00    -0.323 N 
ATOM      9  H5  UNL     1      -5.713 -32.068  44.282  1.00  0.00     0.166 HD
HETATM   10  C5  UNL     1      -4.128 -33.329  44.547  1.00  0.00     0.249 C 
HETATM   11  O3  UNL     1      -4.240 -33.911  45.689  1.00  0.00    -0.271 OA
HETATM   12  C6  UNL     1      -2.672 -33.239  44.102  1.00  0.00     0.232 C 
HETATM   13  N6  UNL     1      -2.230 -34.496  43.802  1.00  0.00    -0.396 N 
ATOM     14  H6  UNL     1      -2.628 -35.213  44.407  1.00  0.00     0.154 HD
HETATM   15  C8  UNL     1      -1.359 -35.011  42.855  1.00  0.00     0.124 C 
ENDROOT
BRANCH   7  16
HETATM   16  N3  UNL     1      -5.754 -32.141  41.659  1.00  0.00    -0.265 N 
ATOM     17  H3  UNL     1      -5.067 -31.393  41.754  1.00  0.00     0.177 HD
BRANCH  16  18
HETATM   18  S1  UNL     1      -6.990 -32.124  40.466  1.00  0.00     0.315 S 
HETATM   19  O1  UNL     1      -6.507 -31.401  39.257  1.00  0.00    -0.183 OA
HETATM   20  O2  UNL     1      -8.193 -31.450  41.017  1.00  0.00    -0.183 OA
BRANCH  18  21
HETATM   21  N4  UNL     1      -7.325 -33.808  40.083  1.00  0.00    -0.311 N 
ATOM     22  H42 UNL     1      -8.224 -34.279  40.181  1.00  0.00     0.170 HD
ATOM     23  H41 UNL     1      -6.447 -34.205  39.748  1.00  0.00     0.170 HD
ENDBRANCH  18  21
ENDBRANCH  16  18
ENDBRANCH   7  16
BRANCH  12  24
HETATM   24  C7  UNL     1      -1.983 -32.502  45.158  1.00  0.00     0.265 C 
HETATM   25  O4  UNL     1      -1.414 -33.178  46.095  1.00  0.00    -0.304 OA
ENDBRANCH  12  24
BRANCH  15  26
HETATM   26  C9  UNL     1      -0.140 -34.218  42.541  1.00  0.00     0.230 C 
BRANCH  26  27
HETATM   27  O5  UNL     1      -0.438 -32.838  42.241  1.00  0.00    -0.384 OA
ATOM     28  H5  UNL     1      -0.721 -32.713  41.342  1.00  0.00     0.210 HD
ENDBRANCH  26  27
BRANCH  26  29
HETATM   29  C10 UNL     1       0.682 -33.992  43.771  1.00  0.00     0.262 C 
HETATM   30  N7  UNL     1       1.282 -32.720  43.930  1.00  0.00    -0.060 NA
HETATM   31  O6  UNL     1       0.888 -34.850  44.634  1.00  0.00    -0.274 OA
ENDBRANCH  26  29
ENDBRANCH  15  26
TORSDOF 7
ENDMDL
MODEL 5
REMARK VINA RESULT: -7.285457103      1.365      1.435
REMARK  7 active torsions:
REMARK  status: ('A' for Active; 'I' for Inactive)
REMARK    1  A    between atoms: C4_7  and  N3_8 
REMARK    2  A    between atoms: N3_8  and  S1_10 
REMARK    3  A    between atoms: S1_10  and  N4_11 
REMARK    4  A    between atoms: C6_20  and  C7_21 
REMARK    5  A    between atoms: C8_25  and  C9_26 
REMARK    6  A    between atoms: C9_26  and  O5_27 
REMARK    7  A    between atoms: C9_26  and  C10_29 
ROOT
HETATM    1  C1  UNL     1      -1.683 -36.454  42.102  1.00  0.00     0.018 C 
HETATM    2  C2  UNL     1      -1.528 -34.965  42.385  1.00  0.00     0.046 C 
HETATM    3  C3  UNL     1      -2.065 -34.103  41.342  1.00  0.00     0.082 C 
HETATM    4  N1  UNL     1      -3.247 -34.276  40.638  1.00  0.00    -0.315 N 
ATOM      5  H1  UNL     1      -3.430 -33.630  39.870  1.00  0.00     0.181 HD
HETATM    6  N2  UNL     1      -4.187 -35.233  40.883  1.00  0.00    -0.094 NA
HETATM    7  C4  UNL     1      -5.497 -34.736  40.719  1.00  0.00     0.313 C 
HETATM    8  N5  UNL     1      -6.083 -34.306  42.038  1.00  0.00    -0.323 N 
ATOM      9  H5  UNL     1      -7.000 -33.862  41.991  1.00  0.00     0.166 HD
HETATM   10  C5  UNL     1      -5.543 -34.434  43.303  1.00  0.00     0.249 C 
HETATM   11  O3  UNL     1      -6.064 -35.188  44.206  1.00  0.00    -0.271 OA
HETATM   12  C6  UNL     1      -4.300 -33.716  43.818  1.00  0.00     0.232 C 
HETATM   13  N6  UNL     1      -3.308 -34.637  43.996  1.00  0.00    -0.396 N 
ATOM     14  H6  UNL     1      -3.656 -35.539  44.319  1.00  0.00     0.154 HD
HETATM   15  C8  UNL     1      -1.931 -34.615  43.834  1.00  0.00     0.124 C 
ENDROOT
BRANCH   7  16
HETATM   16  N3  UNL     1      -5.445 -33.525  39.903  1.00  0.00    -0.265 N 
ATOM     17  H3  UNL     1      -4.779 -33.400  39.141  1.00  0.00     0.177 HD
BRANCH  16  18
HETATM   18  S1  UNL     1      -6.601 -32.329  40.335  1.00  0.00     0.315 S 
HETATM   19  O1  UNL     1      -6.149 -31.619  41.563  1.00  0.00    -0.183 OA
HETATM   20  O2  UNL     1      -7.913 -32.981  40.576  1.00  0.00    -0.183 OA
BRANCH  18  21
HETATM   21  N4  UNL     1      -6.686 -31.214  38.977  1.00  0.00    -0.311 N 
ATOM     22  H42 UNL     1      -5.914 -30.952  38.366  1.00  0.00     0.170 HD
ATOM     23  H41 UNL     1      -7.653 -30.893  38.931  1.00  0.00     0.170 HD
ENDBRANCH  18  21
ENDBRANCH  16  18
ENDBRANCH   7  16
BRANCH  12  24
HETATM   24  C7  UNL     1      -4.742 -32.948  44.980  1.00  0.00     0.265 C 
HETATM   25  O4  UNL     1      -4.235 -33.242  46.126  1.00  0.00    -0.304 OA
ENDBRANCH  12  24
BRANCH  15  26
HETATM   26  C9  UNL     1      -1.214 -33.373  44.226  1.00  0.00     0.230 C 
BRANCH  26  27
HETATM   27  O5  UNL     1      -1.322 -33.094  45.639  1.00  0.00    -0.384 OA
ATOM     28  H5  UNL     1      -1.154 -32.181  45.843  1.00  0.00     0.210 HD
ENDBRANCH  26  27
BRANCH  26  29
HETATM   29  C10 UNL     1       0.267 -33.568  44.163  1.00  0.00     0.262 C 
HETATM   30  N7  UNL     1       1.030 -32.570  43.511  1.00  0.00    -0.060 NA
HETATM   31  O6  UNL     1       0.857 -34.553  44.619  1.00  0.00    -0.274 OA
ENDBRANCH  26  29
ENDBRANCH  15  26
TORSDOF 7
ENDMDL
