MODEL 1
REMARK VINA RESULT: -9.055879768      0.000      0.000
REMARK  11 active torsions:
REMARK  status: ('A' for Active; 'I' for Inactive)
REMARK    1  A    between atoms: C3_5  and  N2_6 
REMARK    2  A    between atoms: N2_6  and  C4_8 
REMARK    3  A    between atoms: C5_12  and  N5_13 
REMARK    4  A    between atoms: C5_12  and  C6_17 
REMARK    5  A    between atoms: N7_20  and  C7_21 
REMARK    6  A    between atoms: C7_21  and  O2_22 
REMARK    7  A    between atoms: C7_21  and  C8_24 
REMARK    8  A    between atoms: C8_24  and  O3_25 
REMARK    9  A    between atoms: C8_24  and  C9_27 
REMARK   10  A    between atoms: C9_27  and  O4_28 
REMARK   11  A    between atoms: C11_34  and  N9_35 
ROOT
HETATM    1  C4  UNL     1      -3.349 -34.276  42.700  1.00  0.00     0.304 C 
HETATM    2  N3  UNL     1      -3.551 -34.512  41.315  1.00  0.00    -0.303 N 
ATOM      3  H3  UNL     1      -2.800 -34.321  40.653  1.00  0.00     0.178 HD
HETATM    4  N4  UNL     1      -4.739 -34.990  40.866  1.00  0.00    -0.073 NA
HETATM    5  C5  UNL     1      -5.796 -35.018  41.861  1.00  0.00     0.375 C 
HETATM    6  N7  UNL     1      -5.777 -33.745  42.493  1.00  0.00    -0.238 N 
HETATM    7  C10 UNL     1      -4.535 -33.556  43.279  1.00  0.00     0.273 C 
HETATM    8  O5  UNL     1      -4.517 -32.860  44.307  1.00  0.00    -0.268 OA
ENDROOT
BRANCH   1   9
HETATM    9  N2  UNL     1      -2.176 -33.394  42.764  1.00  0.00    -0.195 N 
ATOM     10  H2  UNL     1      -2.023 -32.774  41.969  1.00  0.00     0.180 HD
BRANCH   9  11
HETATM   11  C3  UNL     1      -1.343 -33.330  43.701  1.00  0.00     0.696 A 
HETATM   12  N1  UNL     1      -1.730 -33.629  44.948  1.00  0.00    -0.180 N 
HETATM   13  C2  UNL     1      -0.907 -33.586  46.006  1.00  0.00     0.109 A 
ATOM     14  H1  UNL     1      -2.700 -33.904  45.102  1.00  0.00     0.185 HD
HETATM   15  C1  UNL     1      -1.382 -33.929  47.375  1.00  0.00     0.090 C 
HETATM   16  N10 UNL     1       0.367 -33.220  45.781  1.00  0.00    -0.180 N 
HETATM   17  C11 UNL     1       0.785 -32.913  44.544  1.00  0.00     0.691 A 
ATOM     18  H10 UNL     1       1.024 -33.175  46.560  1.00  0.00     0.185 HD
HETATM   19  N8  UNL     1      -0.075 -32.967  43.493  1.00  0.00    -0.023 N 
ATOM     20  H8  UNL     1       0.246 -32.733  42.554  1.00  0.00     0.203 HD
BRANCH  17  21
HETATM   21  N9  UNL     1       2.023 -32.567  44.388  1.00  0.00    -0.234 N 
ATOM     22  H92 UNL     1       2.388 -32.505  43.438  1.00  0.00     0.174 HD
ATOM     23  H91 UNL     1       2.623 -32.360  45.187  1.00  0.00     0.174 HD
ENDBRANCH  17  21
ENDBRANCH   9  11
ENDBRANCH   1   9
BRANCH   6  24
HETATM   24  C7  UNL     1      -6.632 -32.640  42.434  1.00  0.00     0.155 C 
BRANCH  24  25
HETATM   25  O2  UNL     1      -6.867 -32.035  43.582  1.00  0.00    -0.347 OA
ATOM     26  H2  UNL     1      -6.711 -31.097  43.593  1.00  0.00     0.219 HD
ENDBRANCH  24  25
BRANCH  24  27
HETATM   27  C8  UNL     1      -7.332 -32.002  41.329  1.00  0.00     0.216 C 
BRANCH  27  28
HETATM   28  O3  UNL     1      -7.712 -30.656  41.698  1.00  0.00    -0.385 OA
ATOM     29  H3  UNL     1      -8.534 -30.670  42.174  1.00  0.00     0.210 HD
ENDBRANCH  27  28
BRANCH  27  30
HETATM   30  C9  UNL     1      -6.371 -31.707  40.162  1.00  0.00     0.204 C 
BRANCH  30  31
HETATM   31  O4  UNL     1      -6.278 -32.696  39.242  1.00  0.00    -0.398 OA
ATOM     32  H4  UNL     1      -5.904 -32.430  38.410  1.00  0.00     0.209 HD
ENDBRANCH  30  31
ENDBRANCH  27  30
ENDBRANCH  24  27
ENDBRANCH   6  24
BRANCH   5  33
HETATM   33  N5  UNL     1      -5.351 -36.083  42.812  1.00  0.00    -0.026 N 
ATOM     34  H53 UNL     1      -6.098 -36.697  43.140  1.00  0.00     0.279 HD
ATOM     35  H52 UNL     1      -4.787 -36.819  42.388  1.00  0.00     0.279 HD
ATOM     36  H51 UNL     1      -4.878 -35.560  43.550  1.00  0.00     0.279 HD
ENDBRANCH   5  33
BRANCH   5  37
HETATM   37  C6  UNL     1      -7.043 -35.493  41.259  1.00  0.00     0.308 C 
HETATM   38  N6  UNL     1      -7.236 -35.529  39.825  1.00  0.00    -0.057 NA
HETATM   39  O1  UNL     1      -8.043 -35.894  41.910  1.00  0.00    -0.270 OA
ENDBRANCH   5  37
TORSDOF 11
ENDMDL
MODEL 2
REMARK VINA RESULT: -9.036278595      1.045      1.662
REMARK  11 active torsions:
REMARK  status: ('A' for Active; 'I' for Inactive)
REMARK    1  A    between atoms: C3_5  and  N2_6 
REMARK    2  A    between atoms: N2_6  and  C4_8 
REMARK    3  A    between atoms: C5_12  and  N5_13 
REMARK    4  A    between atoms: C5_12  and  C6_17 
REMARK    5  A    between atoms: N7_20  and  C7_21 
REMARK    6  A    between atoms: C7_21  and  O2_22 
REMARK    7  A    between atoms: C7_21  and  C8_24 
REMARK    8  A    between atoms: C8_24  and  O3_25 
REMARK    9  A    between atoms: C8_24  and  C9_27 
REMARK   10  A    between atoms: C9_27  and  O4_28 
REMARK   11  A    between atoms: C11_34  and  N9_35 
ROOT
HETATM    1  C4  UNL     1      -3.176 -34.752  42.625  1.00  0.00     0.304 C 
HETATM    2  N3  UNL     1      -3.278 -35.586  41.481  1.00  0.00    -0.303 N 
ATOM      3  H3  UNL     1      -2.432 -35.928  41.026  1.00  0.00     0.178 HD
HETATM    4  N4  UNL     1      -4.495 -35.930  40.989  1.00  0.00    -0.073 NA
HETATM    5  C5  UNL     1      -5.611 -35.214  41.580  1.00  0.00     0.375 C 
HETATM    6  N7  UNL     1      -5.246 -33.841  41.577  1.00  0.00    -0.238 N 
HETATM    7  C10 UNL     1      -4.114 -33.586  42.499  1.00  0.00     0.273 C 
HETATM    8  O5  UNL     1      -3.990 -32.499  43.088  1.00  0.00    -0.268 OA
ENDROOT
BRANCH   1   9
HETATM    9  N2  UNL     1      -1.792 -34.257  42.607  1.00  0.00    -0.195 N 
ATOM     10  H2  UNL     1      -1.318 -34.249  41.703  1.00  0.00     0.180 HD
BRANCH   9  11
HETATM   11  C3  UNL     1      -1.136 -33.843  43.593  1.00  0.00     0.696 A 
HETATM   12  N1  UNL     1      -1.695 -33.860  44.811  1.00  0.00    -0.180 N 
HETATM   13  C2  UNL     1      -1.067 -33.437  45.917  1.00  0.00     0.109 A 
ATOM     14  H1  UNL     1      -2.648 -34.213  44.901  1.00  0.00     0.185 HD
HETATM   15  C1  UNL     1      -1.729 -33.476  47.251  1.00  0.00     0.090 C 
HETATM   16  N10 UNL     1       0.187 -32.975  45.775  1.00  0.00    -0.180 N 
HETATM   17  C11 UNL     1       0.775 -32.944  44.569  1.00  0.00     0.691 A 
ATOM     18  H10 UNL     1       0.699 -32.643  46.593  1.00  0.00     0.185 HD
HETATM   19  N8  UNL     1       0.110 -33.381  43.468  1.00  0.00    -0.023 N 
ATOM     20  H8  UNL     1       0.560 -33.355  42.552  1.00  0.00     0.203 HD
BRANCH  17  21
HETATM   21  N9  UNL     1       1.985 -32.488  44.493  1.00  0.00    -0.234 N 
ATOM     22  H92 UNL     1       2.572 -32.546  45.325  1.00  0.00     0.174 HD
ATOM     23  H91 UNL     1       2.347 -32.080  43.631  1.00  0.00     0.174 HD
ENDBRANCH  17  21
ENDBRANCH   9  11
ENDBRANCH   1   9
BRANCH   6  24
HETATM   24  C7  UNL     1      -5.673 -32.744  40.822  1.00  0.00     0.155 C 
BRANCH  24  25
HETATM   25  O2  UNL     1      -5.025 -32.539  39.691  1.00  0.00    -0.347 OA
ATOM     26  H2  UNL     1      -5.525 -32.126  38.997  1.00  0.00     0.219 HD
ENDBRANCH  24  25
BRANCH  24  27
HETATM   27  C8  UNL     1      -6.722 -31.758  41.034  1.00  0.00     0.216 C 
BRANCH  27  28
HETATM   28  O3  UNL     1      -7.811 -31.988  40.110  1.00  0.00    -0.385 OA
ATOM     29  H3  UNL     1      -8.531 -32.415  40.558  1.00  0.00     0.210 HD
ENDBRANCH  27  28
BRANCH  27  30
HETATM   30  C9  UNL     1      -7.443 -31.996  42.374  1.00  0.00     0.204 C 
BRANCH  30  31
HETATM   31  O4  UNL     1      -6.779 -31.540  43.462  1.00  0.00    -0.398 OA
ATOM     32  H4  UNL     1      -7.036 -30.670  43.747  1.00  0.00     0.209 HD
ENDBRANCH  30  31
ENDBRANCH  27  30
ENDBRANCH  24  27
ENDBRANCH   6  24
BRANCH   5  33
HETATM   33  N5  UNL     1      -5.661 -35.742  42.979  1.00  0.00    -0.026 N 
ATOM     34  H53 UNL     1      -4.765 -35.737  43.465  1.00  0.00     0.279 HD
ATOM     35  H52 UNL     1      -6.145 -35.136  43.641  1.00  0.00     0.279 HD
ATOM     36  H51 UNL     1      -6.078 -36.666  42.868  1.00  0.00     0.279 HD
ENDBRANCH   5  33
BRANCH   5  37
HETATM   37  C6  UNL     1      -6.865 -35.617  40.938  1.00  0.00     0.308 C 
HETATM   38  N6  UNL     1      -8.060 -35.898  41.704  1.00  0.00    -0.057 NA
HETATM   39  O1  UNL     1      -7.017 -35.765  39.698  1.00  0.00    -0.270 OA
ENDBRANCH   5  37
TORSDOF 11
ENDMDL
MODEL 3
REMARK VINA RESULT: -8.636760410      4.052      7.894
REMARK  11 active torsions:
REMARK  status: ('A' for Active; 'I' for Inactive)
REMARK    1  A    between atoms: C3_5  and  N2_6 
REMARK    2  A    between atoms: N2_6  and  C4_8 
REMARK    3  A    between atoms: C5_12  and  N5_13 
REMARK    4  A    between atoms: C5_12  and  C6_17 
REMARK    5  A    between atoms: N7_20  and  C7_21 
REMARK    6  A    between atoms: C7_21  and  O2_22 
REMARK    7  A    between atoms: C7_21  and  C8_24 
REMARK    8  A    between atoms: C8_24  and  O3_25 
REMARK    9  A    between atoms: C8_24  and  C9_27 
REMARK   10  A    between atoms: C9_27  and  O4_28 
REMARK   11  A    between atoms: C11_34  and  N9_35 
ROOT
HETATM    1  C4  UNL     1      -1.799 -34.207  45.037  1.00  0.00     0.304 C 
HETATM    2  N3  UNL     1      -2.727 -33.343  45.675  1.00  0.00    -0.303 N 
ATOM      3  H3  UNL     1      -3.482 -32.921  45.135  1.00  0.00     0.178 HD
HETATM    4  N4  UNL     1      -2.614 -33.073  47.001  1.00  0.00    -0.073 NA
HETATM    5  C5  UNL     1      -1.387 -33.549  47.613  1.00  0.00     0.375 C 
HETATM    6  N7  UNL     1      -0.332 -33.145  46.751  1.00  0.00    -0.238 N 
HETATM    7  C10 UNL     1      -0.398 -33.858  45.453  1.00  0.00     0.273 C 
HETATM    8  O5  UNL     1       0.628 -34.120  44.804  1.00  0.00    -0.268 OA
ENDROOT
BRANCH   1   9
HETATM    9  N2  UNL     1      -1.955 -33.931  43.602  1.00  0.00    -0.195 N 
ATOM     10  H2  UNL     1      -1.383 -33.181  43.213  1.00  0.00     0.180 HD
BRANCH   9  11
HETATM   11  C3  UNL     1      -2.722 -34.527  42.808  1.00  0.00     0.696 A 
HETATM   12  N1  UNL     1      -3.568 -33.817  42.050  1.00  0.00    -0.180 N 
HETATM   13  C2  UNL     1      -4.421 -34.373  41.178  1.00  0.00     0.109 A 
ATOM     14  H1  UNL     1      -3.564 -32.802  42.142  1.00  0.00     0.185 HD
HETATM   15  C1  UNL     1      -5.343 -33.542  40.355  1.00  0.00     0.090 C 
HETATM   16  N10 UNL     1      -4.410 -35.714  41.074  1.00  0.00    -0.180 N 
HETATM   17  C11 UNL     1      -3.576 -36.453  41.819  1.00  0.00     0.691 A 
ATOM     18  H10 UNL     1      -5.045 -36.174  40.422  1.00  0.00     0.185 HD
HETATM   19  N8  UNL     1      -2.723 -35.858  42.695  1.00  0.00    -0.023 N 
ATOM     20  H8  UNL     1      -2.090 -36.424  43.260  1.00  0.00     0.203 HD
BRANCH  17  21
HETATM   21  N9  UNL     1      -3.611 -37.740  41.677  1.00  0.00    -0.234 N 
ATOM     22  H92 UNL     1      -4.298 -38.133  41.034  1.00  0.00     0.174 HD
ATOM     23  H91 UNL     1      -2.973 -38.350  42.189  1.00  0.00     0.174 HD
ENDBRANCH  17  21
ENDBRANCH   9  11
ENDBRANCH   1   9
BRANCH   6  24
HETATM   24  C7  UNL     1       0.660 -32.165  46.855  1.00  0.00     0.155 C 
BRANCH  24  25
HETATM   25  O2  UNL     1       1.001 -31.572  45.727  1.00  0.00    -0.347 OA
ATOM     26  H2  UNL     1       1.230 -32.151  45.010  1.00  0.00     0.219 HD
ENDBRANCH  24  25
BRANCH  24  27
HETATM   27  C8  UNL     1       1.410 -31.648  47.990  1.00  0.00     0.216 C 
BRANCH  27  28
HETATM   28  O3  UNL     1       2.163 -32.716  48.612  1.00  0.00    -0.385 OA
ATOM     29  H3  UNL     1       3.088 -32.504  48.610  1.00  0.00     0.210 HD
ENDBRANCH  27  28
BRANCH  27  30
HETATM   30  C9  UNL     1       2.561 -30.736  47.524  1.00  0.00     0.204 C 
BRANCH  30  31
HETATM   31  O4  UNL     1       3.647 -31.392  47.052  1.00  0.00    -0.398 OA
ATOM     32  H4  UNL     1       3.455 -32.066  46.410  1.00  0.00     0.209 HD
ENDBRANCH  30  31
ENDBRANCH  27  30
ENDBRANCH  24  27
ENDBRANCH   6  24
BRANCH   5  33
HETATM   33  N5  UNL     1      -1.542 -35.037  47.592  1.00  0.00    -0.026 N 
ATOM     34  H53 UNL     1      -1.889 -35.439  48.463  1.00  0.00     0.279 HD
ATOM     35  H52 UNL     1      -2.307 -35.374  47.008  1.00  0.00     0.279 HD
ATOM     36  H51 UNL     1      -0.618 -35.367  47.312  1.00  0.00     0.279 HD
ENDBRANCH   5  33
BRANCH   5  37
HETATM   37  C6  UNL     1      -1.342 -33.156  49.023  1.00  0.00     0.308 C 
HETATM   38  N6  UNL     1      -0.534 -33.867  49.990  1.00  0.00    -0.057 NA
HETATM   39  O1  UNL     1      -1.990 -32.198  49.518  1.00  0.00    -0.270 OA
ENDBRANCH   5  37
TORSDOF 11
ENDMDL
MODEL 4
REMARK VINA RESULT: -8.520520935      1.863      2.304
REMARK  11 active torsions:
REMARK  status: ('A' for Active; 'I' for Inactive)
REMARK    1  A    between atoms: C3_5  and  N2_6 
REMARK    2  A    between atoms: N2_6  and  C4_8 
REMARK    3  A    between atoms: C5_12  and  N5_13 
REMARK    4  A    between atoms: C5_12  and  C6_17 
REMARK    5  A    between atoms: N7_20  and  C7_21 
REMARK    6  A    between atoms: C7_21  and  O2_22 
REMARK    7  A    between atoms: C7_21  and  C8_24 
REMARK    8  A    between atoms: C8_24  and  O3_25 
REMARK    9  A    between atoms: C8_24  and  C9_27 
REMARK   10  A    between atoms: C9_27  and  O4_28 
REMARK   11  A    between atoms: C11_34  and  N9_35 
ROOT
HETATM    1  C4  UNL     1      -4.539 -33.939  44.713  1.00  0.00     0.304 C 
HETATM    2  N3  UNL     1      -3.686 -34.257  43.623  1.00  0.00    -0.303 N 
ATOM      3  H3  UNL     1      -2.684 -34.081  43.695  1.00  0.00     0.178 HD
HETATM    4  N4  UNL     1      -4.197 -34.792  42.485  1.00  0.00    -0.073 NA
HETATM    5  C5  UNL     1      -5.646 -34.794  42.415  1.00  0.00     0.375 C 
HETATM    6  N7  UNL     1      -6.062 -33.489  42.791  1.00  0.00    -0.238 N 
HETATM    7  C10 UNL     1      -5.763 -33.221  44.217  1.00  0.00     0.273 C 
HETATM    8  O5  UNL     1      -6.477 -32.469  44.901  1.00  0.00    -0.268 OA
ENDROOT
BRANCH   1   9
HETATM    9  N2  UNL     1      -3.753 -33.022  45.550  1.00  0.00    -0.195 N 
ATOM     10  H2  UNL     1      -3.855 -32.025  45.361  1.00  0.00     0.180 HD
BRANCH   9  11
HETATM   11  C3  UNL     1      -2.968 -33.346  46.474  1.00  0.00     0.696 A 
HETATM   12  N1  UNL     1      -3.453 -33.579  47.700  1.00  0.00    -0.180 N 
HETATM   13  C2  UNL     1      -2.686 -33.929  48.743  1.00  0.00     0.109 A 
ATOM     14  H1  UNL     1      -4.458 -33.486  47.849  1.00  0.00     0.185 HD
HETATM   15  C1  UNL     1      -3.272 -34.179  50.089  1.00  0.00     0.090 C 
HETATM   16  N10 UNL     1      -1.365 -34.046  48.525  1.00  0.00    -0.180 N 
HETATM   17  C11 UNL     1      -0.848 -33.818  47.308  1.00  0.00     0.691 A 
ATOM     18  H10 UNL     1      -0.748 -34.310  49.293  1.00  0.00     0.185 HD
HETATM   19  N8  UNL     1      -1.653 -33.465  46.272  1.00  0.00    -0.023 N 
ATOM     20  H8  UNL     1      -1.256 -33.293  45.348  1.00  0.00     0.203 HD
BRANCH  17  21
HETATM   21  N9  UNL     1       0.432 -33.945  47.158  1.00  0.00    -0.234 N 
ATOM     22  H92 UNL     1       0.850 -33.600  46.294  1.00  0.00     0.174 HD
ATOM     23  H91 UNL     1       1.014 -34.376  47.877  1.00  0.00     0.174 HD
ENDBRANCH  17  21
ENDBRANCH   9  11
ENDBRANCH   1   9
BRANCH   6  24
HETATM   24  C7  UNL     1      -6.591 -32.413  42.070  1.00  0.00     0.155 C 
BRANCH  24  25
HETATM   25  O2  UNL     1      -6.433 -31.223  42.616  1.00  0.00    -0.347 OA
ATOM     26  H2  UNL     1      -5.651 -30.750  42.356  1.00  0.00     0.219 HD
ENDBRANCH  24  25
BRANCH  24  27
HETATM   27  C8  UNL     1      -7.296 -32.339  40.799  1.00  0.00     0.216 C 
BRANCH  27  28
HETATM   28  O3  UNL     1      -8.365 -31.368  40.884  1.00  0.00    -0.385 OA
ATOM     29  H3  UNL     1      -9.185 -31.765  40.613  1.00  0.00     0.210 HD
ENDBRANCH  27  28
BRANCH  27  30
HETATM   30  C9  UNL     1      -6.416 -31.685  39.715  1.00  0.00     0.204 C 
BRANCH  30  31
HETATM   31  O4  UNL     1      -5.999 -32.527  38.742  1.00  0.00    -0.398 OA
ATOM     32  H4  UNL     1      -5.311 -32.180  38.185  1.00  0.00     0.209 HD
ENDBRANCH  30  31
ENDBRANCH  27  30
ENDBRANCH  24  27
ENDBRANCH   6  24
BRANCH   5  33
HETATM   33  N5  UNL     1      -6.044 -35.792  43.455  1.00  0.00    -0.026 N 
ATOM     34  H53 UNL     1      -5.565 -35.686  44.349  1.00  0.00     0.279 HD
ATOM     35  H52 UNL     1      -6.986 -35.665  43.824  1.00  0.00     0.279 HD
ATOM     36  H51 UNL     1      -5.887 -36.690  42.995  1.00  0.00     0.279 HD
ENDBRANCH   5  33
BRANCH   5  37
HETATM   37  C6  UNL     1      -6.088 -35.337  41.128  1.00  0.00     0.308 C 
HETATM   38  N6  UNL     1      -7.368 -35.993  40.972  1.00  0.00    -0.057 NA
HETATM   39  O1  UNL     1      -5.412 -35.297  40.067  1.00  0.00    -0.270 OA
ENDBRANCH   5  37
TORSDOF 11
ENDMDL
MODEL 5
REMARK VINA RESULT: -8.495409968      2.366      7.096
REMARK  11 active torsions:
REMARK  status: ('A' for Active; 'I' for Inactive)
REMARK    1  A    between atoms: C3_5  and  N2_6 
REMARK    2  A    between atoms: N2_6  and  C4_8 
REMARK    3  A    between atoms: C5_12  and  N5_13 
REMARK    4  A    between atoms: C5_12  and  C6_17 
REMARK    5  A    between atoms: N7_20  and  C7_21 
REMARK    6  A    between atoms: C7_21  and  O2_22 
REMARK    7  A    between atoms: C7_21  and  C8_24 
REMARK    8  A    between atoms: C8_24  and  O3_25 
REMARK    9  A    between atoms: C8_24  and  C9_27 
REMARK   10  A    between atoms: C9_27  and  O4_28 
REMARK   11  A    between atoms: C11_34  and  N9_35 
ROOT
HETATM    1  C4  UNL     1      -2.092 -34.308  43.108  1.00  0.00     0.304 C 
HETATM    2  N3  UNL     1      -1.200 -35.227  43.721  1.00  0.00    -0.303 N 
ATOM      3  H3  UNL     1      -1.206 -36.206  43.437  1.00  0.00     0.178 HD
HETATM    4  N4  UNL     1      -0.339 -34.809  44.684  1.00  0.00    -0.073 NA
HETATM    5  C5  UNL     1      -0.570 -33.456  45.156  1.00  0.00     0.375 C 
HETATM    6  N7  UNL     1      -1.964 -33.357  45.410  1.00  0.00    -0.238 N 
HETATM    7  C10 UNL     1      -2.745 -33.448  44.153  1.00  0.00     0.273 C 
HETATM    8  O5  UNL     1      -3.829 -32.856  44.019  1.00  0.00    -0.268 OA
ENDROOT
BRANCH   1   9
HETATM    9  N2  UNL     1      -3.117 -35.148  42.472  1.00  0.00    -0.195 N 
ATOM     10  H2  UNL     1      -2.890 -36.134  42.346  1.00  0.00     0.180 HD
BRANCH   9  11
HETATM   11  C3  UNL     1      -4.244 -34.770  42.068  1.00  0.00     0.696 A 
HETATM   12  N1  UNL     1      -4.322 -33.853  41.094  1.00  0.00    -0.180 N 
HETATM   13  C2  UNL     1      -5.483 -33.394  40.605  1.00  0.00     0.109 A 
ATOM     14  H1  UNL     1      -3.454 -33.486  40.705  1.00  0.00     0.185 HD
HETATM   15  C1  UNL     1      -5.520 -32.375  39.519  1.00  0.00     0.090 C 
HETATM   16  N10 UNL     1      -6.614 -33.891  41.133  1.00  0.00    -0.180 N 
HETATM   17  C11 UNL     1      -6.570 -34.809  42.110  1.00  0.00     0.691 A 
ATOM     18  H10 UNL     1      -7.517 -33.567  40.788  1.00  0.00     0.185 HD
HETATM   19  N8  UNL     1      -5.376 -35.254  42.584  1.00  0.00    -0.023 N 
ATOM     20  H8  UNL     1      -5.346 -35.952  43.327  1.00  0.00     0.203 HD
BRANCH  17  21
HETATM   21  N9  UNL     1      -7.692 -35.252  42.581  1.00  0.00    -0.234 N 
ATOM     22  H92 UNL     1      -8.443 -34.580  42.741  1.00  0.00     0.174 HD
ATOM     23  H91 UNL     1      -7.831 -36.241  42.788  1.00  0.00     0.174 HD
ENDBRANCH  17  21
ENDBRANCH   9  11
ENDBRANCH   1   9
BRANCH   6  24
HETATM   24  C7  UNL     1      -2.715 -33.294  46.588  1.00  0.00     0.155 C 
BRANCH  24  25
HETATM   25  O2  UNL     1      -3.991 -33.608  46.472  1.00  0.00    -0.347 OA
ATOM     26  H2  UNL     1      -4.606 -32.907  46.656  1.00  0.00     0.219 HD
ENDBRANCH  24  25
BRANCH  24  27
HETATM   27  C8  UNL     1      -2.362 -32.947  47.956  1.00  0.00     0.216 C 
BRANCH  27  28
HETATM   28  O3  UNL     1      -3.484 -32.309  48.609  1.00  0.00    -0.385 OA
ATOM     29  H3  UNL     1      -3.562 -32.623  49.502  1.00  0.00     0.210 HD
ENDBRANCH  27  28
BRANCH  27  30
HETATM   30  C9  UNL     1      -2.219 -34.210  48.828  1.00  0.00     0.204 C 
BRANCH  30  31
HETATM   31  O4  UNL     1      -2.039 -35.358  48.134  1.00  0.00    -0.398 OA
ATOM     32  H4  UNL     1      -2.473 -35.383  47.289  1.00  0.00     0.209 HD
ENDBRANCH  30  31
ENDBRANCH  27  30
ENDBRANCH  24  27
ENDBRANCH   6  24
BRANCH   5  33
HETATM   33  N5  UNL     1      -0.188 -32.609  43.984  1.00  0.00    -0.026 N 
ATOM     34  H53 UNL     1       0.484 -33.042  43.349  1.00  0.00     0.279 HD
ATOM     35  H52 UNL     1      -0.927 -32.489  43.291  1.00  0.00     0.279 HD
ATOM     36  H51 UNL     1       0.135 -31.741  44.413  1.00  0.00     0.279 HD
ENDBRANCH   5  33
BRANCH   5  37
HETATM   37  C6  UNL     1       0.372 -33.130  46.229  1.00  0.00     0.308 C 
HETATM   38  N6  UNL     1       1.055 -31.855  46.286  1.00  0.00    -0.057 NA
HETATM   39  O1  UNL     1       0.679 -33.906  47.170  1.00  0.00    -0.270 OA
ENDBRANCH   5  37
TORSDOF 11
ENDMDL
