MODEL 1
REMARK VINA RESULT: -9.265789795      0.000      0.000
REMARK  14 active torsions:
REMARK  status: ('A' for Active; 'I' for Inactive)
REMARK    1  A    between atoms: C2_2  and  C3_3 
REMARK    2  A    between atoms: C3_3  and  C4_4 
REMARK    3  A    between atoms: C4_4  and  O2_6 
REMARK    4  A    between atoms: O2_6  and  C5_7 
REMARK    5  A    between atoms: C5_7  and  C6_8 
REMARK    6  A    between atoms: C6_8  and  C7_10 
REMARK    7  A    between atoms: C7_10  and  C8_11 
REMARK    8  A    between atoms: C8_11  and  C9_12 
REMARK    9  A    between atoms: C21_24  and  O4_25 
REMARK   10  A    between atoms: C22_27  and  C23_28 
REMARK   11  A    between atoms: C23_28  and  O5_29 
REMARK   12  A    between atoms: C23_28  and  C24_31 
REMARK   13  A    between atoms: C24_31  and  O6_32 
REMARK   14  A    between atoms: C25_34  and  O7_36 
ROOT
HETATM    1  C9  UNL     1      14.797  16.388  31.864  1.00  0.00     0.004 C 
HETATM    2  C10 UNL     1      14.409  15.202  32.720  1.00  0.00     0.006 C 
HETATM    3  C11 UNL     1      12.998  14.768  32.682  1.00  0.00     0.039 C 
HETATM    4  C12 UNL     1      12.844  13.518  33.477  1.00  0.00    -0.087 C 
HETATM    5  C13 UNL     1      11.562  12.850  33.030  1.00  0.00     0.043 C 
HETATM    6  C14 UNL     1      13.455  12.827  34.423  1.00  0.00    -0.024 C 
HETATM    7  C15 UNL     1      14.680  12.956  35.224  1.00  0.00     0.028 C 
HETATM    8  C16 UNL     1      15.921  13.296  34.426  1.00  0.00     0.009 C 
HETATM    9  C17 UNL     1      16.152  14.773  34.391  1.00  0.00    -0.000 C 
HETATM   10  C18 UNL     1      14.827  15.474  34.123  1.00  0.00    -0.004 C 
HETATM   11  C19 UNL     1      15.088  16.990  34.177  1.00  0.00     0.014 C 
HETATM   12  C20 UNL     1      15.649  17.199  32.831  1.00  0.00     0.036 C 
HETATM   13  C21 UNL     1      16.791  16.292  32.448  1.00  0.00     0.100 C 
HETATM   14  C22 UNL     1      17.168  15.273  33.429  1.00  0.00     0.059 C 
HETATM   15  C25 UNL     1      16.068  16.048  31.173  1.00  0.00     0.094 C 
HETATM   16  C26 UNL     1      16.491  16.936  30.030  1.00  0.00     0.050 C 
ENDROOT
BRANCH   1  17
HETATM   17  C8  UNL     1      13.658  17.037  31.267  1.00  0.00     0.021 C 
BRANCH  17  18
HETATM   18  C7  UNL     1      13.195  18.388  31.630  1.00  0.00     0.081 C 
BRANCH  18  19
HETATM   19  C6  UNL     1      13.243  19.321  30.427  1.00  0.00     0.150 C 
HETATM   20  O3  UNL     1      13.588  18.956  29.326  1.00  0.00    -0.296 OA
BRANCH  19  21
HETATM   21  C5  UNL     1      12.848  20.734  30.620  1.00  0.00     0.256 C 
BRANCH  21  22
HETATM   22  O2  UNL     1      13.739  21.460  31.424  1.00  0.00    -0.314 OA
BRANCH  22  23
HETATM   23  C4  UNL     1      14.648  22.401  30.988  1.00  0.00     0.259 C 
HETATM   24  O1  UNL     1      14.223  23.448  30.452  1.00  0.00    -0.265 OA
BRANCH  23  25
HETATM   25  C3  UNL     1      16.096  22.142  31.167  1.00  0.00     0.111 C 
BRANCH  25  26
HETATM   26  C2  UNL     1      16.321  20.729  31.693  1.00  0.00     0.005 C 
HETATM   27  C1  UNL     1      17.701  20.587  32.256  1.00  0.00     0.005 C 
ENDBRANCH  25  26
ENDBRANCH  23  25
ENDBRANCH  22  23
ENDBRANCH  21  22
ENDBRANCH  19  21
ENDBRANCH  18  19
ENDBRANCH  17  18
ENDBRANCH   1  17
BRANCH  15  28
HETATM   28  O7  UNL     1      16.037  14.736  30.704  1.00  0.00    -0.386 OA
ATOM     29  H7  UNL     1      16.888  14.325  30.803  1.00  0.00     0.210 HD
ENDBRANCH  15  28
BRANCH  13  30
HETATM   30  O4  UNL     1      17.893  17.162  32.173  1.00  0.00    -0.386 OA
ATOM     31  H4  UNL     1      18.497  16.648  31.649  1.00  0.00     0.210 HD
ENDBRANCH  13  30
BRANCH  14  32
HETATM   32  C23 UNL     1      18.048  14.233  32.821  1.00  0.00     0.149 C 
BRANCH  32  33
HETATM   33  O5  UNL     1      17.337  13.050  32.512  1.00  0.00    -0.393 OA
ATOM     34  H5  UNL     1      17.623  12.666  31.692  1.00  0.00     0.210 HD
ENDBRANCH  32  33
BRANCH  32  35
HETATM   35  C24 UNL     1      19.142  13.689  33.720  1.00  0.00     0.196 C 
BRANCH  35  36
HETATM   36  O6  UNL     1      20.408  14.014  33.165  1.00  0.00    -0.398 OA
ATOM     37  H6  UNL     1      20.934  13.225  33.102  1.00  0.00     0.209 HD
ENDBRANCH  35  36
ENDBRANCH  32  35
ENDBRANCH  14  32
TORSDOF 14
ENDMDL
MODEL 2
REMARK VINA RESULT: -9.080977687      1.359      1.766
REMARK  14 active torsions:
REMARK  status: ('A' for Active; 'I' for Inactive)
REMARK    1  A    between atoms: C2_2  and  C3_3 
REMARK    2  A    between atoms: C3_3  and  C4_4 
REMARK    3  A    between atoms: C4_4  and  O2_6 
REMARK    4  A    between atoms: O2_6  and  C5_7 
REMARK    5  A    between atoms: C5_7  and  C6_8 
REMARK    6  A    between atoms: C6_8  and  C7_10 
REMARK    7  A    between atoms: C7_10  and  C8_11 
REMARK    8  A    between atoms: C8_11  and  C9_12 
REMARK    9  A    between atoms: C21_24  and  O4_25 
REMARK   10  A    between atoms: C22_27  and  C23_28 
REMARK   11  A    between atoms: C23_28  and  O5_29 
REMARK   12  A    between atoms: C23_28  and  C24_31 
REMARK   13  A    between atoms: C24_31  and  O6_32 
REMARK   14  A    between atoms: C25_34  and  O7_36 
ROOT
HETATM    1  C9  UNL     1      14.785  16.191  31.853  1.00  0.00     0.004 C 
HETATM    2  C10 UNL     1      14.432  15.048  32.780  1.00  0.00     0.006 C 
HETATM    3  C11 UNL     1      13.030  14.584  32.783  1.00  0.00     0.039 C 
HETATM    4  C12 UNL     1      12.911  13.378  33.649  1.00  0.00    -0.087 C 
HETATM    5  C13 UNL     1      11.639  12.659  33.256  1.00  0.00     0.043 C 
HETATM    6  C14 UNL     1      13.547  12.755  34.626  1.00  0.00    -0.024 C 
HETATM    7  C15 UNL     1      14.777  12.955  35.404  1.00  0.00     0.028 C 
HETATM    8  C16 UNL     1      16.002  13.275  34.573  1.00  0.00     0.009 C 
HETATM    9  C17 UNL     1      16.201  14.752  34.452  1.00  0.00    -0.000 C 
HETATM   10  C18 UNL     1      14.858  15.408  34.160  1.00  0.00    -0.004 C 
HETATM   11  C19 UNL     1      15.088  16.930  34.124  1.00  0.00     0.014 C 
HETATM   12  C20 UNL     1      15.630  17.074  32.762  1.00  0.00     0.036 C 
HETATM   13  C21 UNL     1      16.787  16.170  32.418  1.00  0.00     0.100 C 
HETATM   14  C22 UNL     1      17.196  15.217  33.451  1.00  0.00     0.059 C 
HETATM   15  C25 UNL     1      16.056  15.839  31.167  1.00  0.00     0.094 C 
HETATM   16  C26 UNL     1      16.448  16.669  29.971  1.00  0.00     0.050 C 
ENDROOT
BRANCH   1  17
HETATM   17  C8  UNL     1      13.627  16.782  31.233  1.00  0.00     0.021 C 
BRANCH  17  18
HETATM   18  C7  UNL     1      13.283  18.212  31.322  1.00  0.00     0.081 C 
BRANCH  18  19
HETATM   19  C6  UNL     1      13.537  18.916  29.995  1.00  0.00     0.150 C 
HETATM   20  O3  UNL     1      12.830  18.764  29.025  1.00  0.00    -0.296 OA
BRANCH  19  21
HETATM   21  C5  UNL     1      14.701  19.824  29.896  1.00  0.00     0.256 C 
BRANCH  21  22
HETATM   22  O2  UNL     1      14.394  21.162  30.184  1.00  0.00    -0.314 OA
BRANCH  22  23
HETATM   23  C4  UNL     1      14.094  22.145  29.264  1.00  0.00     0.259 C 
HETATM   24  O1  UNL     1      12.893  22.400  29.022  1.00  0.00    -0.265 OA
BRANCH  23  25
HETATM   25  C3  UNL     1      15.201  22.864  28.591  1.00  0.00     0.111 C 
BRANCH  25  26
HETATM   26  C2  UNL     1      15.250  22.501  27.112  1.00  0.00     0.005 C 
HETATM   27  C1  UNL     1      15.100  23.723  26.260  1.00  0.00     0.005 C 
ENDBRANCH  25  26
ENDBRANCH  23  25
ENDBRANCH  22  23
ENDBRANCH  21  22
ENDBRANCH  19  21
ENDBRANCH  18  19
ENDBRANCH  17  18
ENDBRANCH   1  17
BRANCH  15  28
HETATM   28  O7  UNL     1      16.049  14.502  30.774  1.00  0.00    -0.386 OA
ATOM     29  H7  UNL     1      16.918  14.226  30.507  1.00  0.00     0.210 HD
ENDBRANCH  15  28
BRANCH  13  30
HETATM   30  O4  UNL     1      17.867  17.046  32.081  1.00  0.00    -0.386 OA
ATOM     31  H4  UNL     1      17.493  17.919  32.074  1.00  0.00     0.210 HD
ENDBRANCH  13  30
BRANCH  14  32
HETATM   32  C23 UNL     1      18.091  14.162  32.893  1.00  0.00     0.149 C 
BRANCH  32  33
HETATM   33  O5  UNL     1      17.399  12.955  32.642  1.00  0.00    -0.393 OA
ATOM     34  H5  UNL     1      17.288  12.794  31.712  1.00  0.00     0.210 HD
ENDBRANCH  32  33
BRANCH  32  35
HETATM   35  C24 UNL     1      19.194  13.679  33.816  1.00  0.00     0.196 C 
BRANCH  35  36
HETATM   36  O6  UNL     1      20.455  13.978  33.235  1.00  0.00    -0.398 OA
ATOM     37  H6  UNL     1      21.079  13.304  33.478  1.00  0.00     0.209 HD
ENDBRANCH  35  36
ENDBRANCH  32  35
ENDBRANCH  14  32
TORSDOF 14
ENDMDL
MODEL 3
REMARK VINA RESULT: -8.975817232      1.715      4.111
REMARK  14 active torsions:
REMARK  status: ('A' for Active; 'I' for Inactive)
REMARK    1  A    between atoms: C2_2  and  C3_3 
REMARK    2  A    between atoms: C3_3  and  C4_4 
REMARK    3  A    between atoms: C4_4  and  O2_6 
REMARK    4  A    between atoms: O2_6  and  C5_7 
REMARK    5  A    between atoms: C5_7  and  C6_8 
REMARK    6  A    between atoms: C6_8  and  C7_10 
REMARK    7  A    between atoms: C7_10  and  C8_11 
REMARK    8  A    between atoms: C8_11  and  C9_12 
REMARK    9  A    between atoms: C21_24  and  O4_25 
REMARK   10  A    between atoms: C22_27  and  C23_28 
REMARK   11  A    between atoms: C23_28  and  O5_29 
REMARK   12  A    between atoms: C23_28  and  C24_31 
REMARK   13  A    between atoms: C24_31  and  O6_32 
REMARK   14  A    between atoms: C25_34  and  O7_36 
ROOT
HETATM    1  C9  UNL     1      14.675  16.739  31.976  1.00  0.00     0.004 C 
HETATM    2  C10 UNL     1      16.094  17.262  31.926  1.00  0.00     0.006 C 
HETATM    3  C11 UNL     1      16.280  18.727  31.960  1.00  0.00     0.039 C 
HETATM    4  C12 UNL     1      17.734  19.037  32.038  1.00  0.00    -0.087 C 
HETATM    5  C13 UNL     1      17.870  20.453  32.555  1.00  0.00     0.043 C 
HETATM    6  C14 UNL     1      18.912  18.484  31.805  1.00  0.00    -0.024 C 
HETATM    7  C15 UNL     1      19.412  17.193  31.314  1.00  0.00     0.028 C 
HETATM    8  C16 UNL     1      18.775  15.983  31.966  1.00  0.00     0.009 C 
HETATM    9  C17 UNL     1      17.611  15.491  31.168  1.00  0.00    -0.000 C 
HETATM   10  C18 UNL     1      16.771  16.684  30.733  1.00  0.00    -0.004 C 
HETATM   11  C19 UNL     1      15.631  16.146  29.847  1.00  0.00     0.014 C 
HETATM   12  C20 UNL     1      14.702  15.674  30.887  1.00  0.00     0.036 C 
HETATM   13  C21 UNL     1      15.292  14.753  31.926  1.00  0.00     0.100 C 
HETATM   14  C22 UNL     1      16.728  14.486  31.816  1.00  0.00     0.059 C 
HETATM   15  C25 UNL     1      14.643  15.615  32.947  1.00  0.00     0.094 C 
HETATM   16  C26 UNL     1      13.288  15.135  33.404  1.00  0.00     0.050 C 
ENDROOT
BRANCH   1  17
HETATM   17  C8  UNL     1      13.693  17.787  31.864  1.00  0.00     0.021 C 
BRANCH  17  18
HETATM   18  C7  UNL     1      12.914  18.060  30.643  1.00  0.00     0.081 C 
BRANCH  18  19
HETATM   19  C6  UNL     1      12.863  19.555  30.355  1.00  0.00     0.150 C 
HETATM   20  O3  UNL     1      12.624  20.004  29.257  1.00  0.00    -0.296 OA
BRANCH  19  21
HETATM   21  C5  UNL     1      13.117  20.493  31.471  1.00  0.00     0.256 C 
BRANCH  21  22
HETATM   22  O2  UNL     1      13.522  21.768  31.050  1.00  0.00    -0.314 OA
BRANCH  22  23
HETATM   23  C4  UNL     1      14.821  22.223  30.961  1.00  0.00     0.259 C 
HETATM   24  O1  UNL     1      15.272  22.947  31.876  1.00  0.00    -0.265 OA
BRANCH  23  25
HETATM   25  C3  UNL     1      15.639  21.839  29.787  1.00  0.00     0.111 C 
BRANCH  25  26
HETATM   26  C2  UNL     1      15.153  22.568  28.540  1.00  0.00     0.005 C 
HETATM   27  C1  UNL     1      15.295  21.700  27.328  1.00  0.00     0.005 C 
ENDBRANCH  25  26
ENDBRANCH  23  25
ENDBRANCH  22  23
ENDBRANCH  21  22
ENDBRANCH  19  21
ENDBRANCH  18  19
ENDBRANCH  17  18
ENDBRANCH   1  17
BRANCH  15  28
HETATM   28  O7  UNL     1      15.390  15.924  34.082  1.00  0.00    -0.386 OA
ATOM     29  H7  UNL     1      15.715  15.132  34.495  1.00  0.00     0.210 HD
ENDBRANCH  15  28
BRANCH  13  30
HETATM   30  O4  UNL     1      14.543  13.539  31.829  1.00  0.00    -0.386 OA
ATOM     31  H4  UNL     1      15.125  12.913  31.414  1.00  0.00     0.210 HD
ENDBRANCH  13  30
BRANCH  14  32
HETATM   32  C23 UNL     1      17.262  13.866  33.062  1.00  0.00     0.149 C 
BRANCH  32  33
HETATM   33  O5  UNL     1      18.409  13.078  32.815  1.00  0.00    -0.393 OA
ATOM     34  H5  UNL     1      18.757  12.693  33.610  1.00  0.00     0.210 HD
ENDBRANCH  32  33
BRANCH  32  35
HETATM   35  C24 UNL     1      16.353  12.855  33.737  1.00  0.00     0.196 C 
BRANCH  35  36
HETATM   36  O6  UNL     1      16.141  13.245  35.086  1.00  0.00    -0.398 OA
ATOM     37  H6  UNL     1      15.395  13.831  35.129  1.00  0.00     0.209 HD
ENDBRANCH  35  36
ENDBRANCH  32  35
ENDBRANCH  14  32
TORSDOF 14
ENDMDL
MODEL 4
REMARK VINA RESULT: -8.809966699      2.968      6.609
REMARK  14 active torsions:
REMARK  status: ('A' for Active; 'I' for Inactive)
REMARK    1  A    between atoms: C2_2  and  C3_3 
REMARK    2  A    between atoms: C3_3  and  C4_4 
REMARK    3  A    between atoms: C4_4  and  O2_6 
REMARK    4  A    between atoms: O2_6  and  C5_7 
REMARK    5  A    between atoms: C5_7  and  C6_8 
REMARK    6  A    between atoms: C6_8  and  C7_10 
REMARK    7  A    between atoms: C7_10  and  C8_11 
REMARK    8  A    between atoms: C8_11  and  C9_12 
REMARK    9  A    between atoms: C21_24  and  O4_25 
REMARK   10  A    between atoms: C22_27  and  C23_28 
REMARK   11  A    between atoms: C23_28  and  O5_29 
REMARK   12  A    between atoms: C23_28  and  C24_31 
REMARK   13  A    between atoms: C24_31  and  O6_32 
REMARK   14  A    between atoms: C25_34  and  O7_36 
ROOT
HETATM    1  C9  UNL     1      14.905  14.329  32.572  1.00  0.00     0.004 C 
HETATM    2  C10 UNL     1      14.940  15.767  32.102  1.00  0.00     0.006 C 
HETATM    3  C11 UNL     1      13.698  16.556  32.233  1.00  0.00     0.039 C 
HETATM    4  C12 UNL     1      13.968  17.968  31.847  1.00  0.00    -0.087 C 
HETATM    5  C13 UNL     1      12.868  18.820  32.442  1.00  0.00     0.043 C 
HETATM    6  C14 UNL     1      14.840  18.695  31.168  1.00  0.00    -0.024 C 
HETATM    7  C15 UNL     1      16.066  18.453  30.397  1.00  0.00     0.028 C 
HETATM    8  C16 UNL     1      17.078  17.563  31.087  1.00  0.00     0.009 C 
HETATM    9  C17 UNL     1      16.905  16.134  30.682  1.00  0.00    -0.000 C 
HETATM   10  C18 UNL     1      15.421  15.794  30.693  1.00  0.00    -0.004 C 
HETATM   11  C19 UNL     1      15.277  14.345  30.193  1.00  0.00     0.014 C 
HETATM   12  C20 UNL     1      15.613  13.615  31.427  1.00  0.00     0.036 C 
HETATM   13  C21 UNL     1      16.905  14.013  32.094  1.00  0.00     0.100 C 
HETATM   14  C22 UNL     1      17.643  15.116  31.475  1.00  0.00     0.059 C 
HETATM   15  C25 UNL     1      16.138  14.084  33.365  1.00  0.00     0.094 C 
HETATM   16  C26 UNL     1      16.185  12.828  34.198  1.00  0.00     0.050 C 
ENDROOT
BRANCH   1  17
HETATM   17  C8  UNL     1      13.578  13.890  32.917  1.00  0.00     0.021 C 
BRANCH  17  18
HETATM   18  C7  UNL     1      13.035  13.904  34.287  1.00  0.00     0.081 C 
BRANCH  18  19
HETATM   19  C6  UNL     1      12.019  12.785  34.480  1.00  0.00     0.150 C 
HETATM   20  O3  UNL     1      12.171  11.674  34.025  1.00  0.00    -0.296 OA
BRANCH  19  21
HETATM   21  C5  UNL     1      10.796  13.076  35.261  1.00  0.00     0.256 C 
BRANCH  21  22
HETATM   22  O2  UNL     1      11.034  13.239  36.634  1.00  0.00    -0.314 OA
BRANCH  22  23
HETATM   23  C4  UNL     1      11.631  12.321  37.472  1.00  0.00     0.259 C 
HETATM   24  O1  UNL     1      11.177  11.156  37.513  1.00  0.00    -0.265 OA
BRANCH  23  25
HETATM   25  C3  UNL     1      12.789  12.743  38.294  1.00  0.00     0.111 C 
BRANCH  25  26
HETATM   26  C2  UNL     1      14.093  12.488  37.547  1.00  0.00     0.005 C 
HETATM   27  C1  UNL     1      14.920  13.735  37.483  1.00  0.00     0.005 C 
ENDBRANCH  25  26
ENDBRANCH  23  25
ENDBRANCH  22  23
ENDBRANCH  21  22
ENDBRANCH  19  21
ENDBRANCH  18  19
ENDBRANCH  17  18
ENDBRANCH   1  17
BRANCH  15  28
HETATM   28  O7  UNL     1      16.404  15.163  34.206  1.00  0.00    -0.386 OA
ATOM     29  H7  UNL     1      16.170  14.956  35.103  1.00  0.00     0.210 HD
ENDBRANCH  15  28
BRANCH  13  30
HETATM   30  O4  UNL     1      17.701  12.825  32.123  1.00  0.00    -0.386 OA
ATOM     31  H4  UNL     1      18.335  12.927  31.422  1.00  0.00     0.210 HD
ENDBRANCH  13  30
BRANCH  14  32
HETATM   32  C23 UNL     1      18.694  15.648  32.389  1.00  0.00     0.149 C 
BRANCH  32  33
HETATM   33  O5  UNL     1      19.750  16.267  31.682  1.00  0.00    -0.393 OA
ATOM     34  H5  UNL     1      20.368  15.634  31.335  1.00  0.00     0.210 HD
ENDBRANCH  32  33
BRANCH  32  35
HETATM   35  C24 UNL     1      19.452  14.609  33.195  1.00  0.00     0.196 C 
BRANCH  35  36
HETATM   36  O6  UNL     1      20.591  14.186  32.459  1.00  0.00    -0.398 OA
ATOM     37  H6  UNL     1      20.686  14.733  31.688  1.00  0.00     0.209 HD
ENDBRANCH  35  36
ENDBRANCH  32  35
ENDBRANCH  14  32
TORSDOF 14
ENDMDL
MODEL 5
REMARK VINA RESULT: -8.739232184      2.864      6.651
REMARK  14 active torsions:
REMARK  status: ('A' for Active; 'I' for Inactive)
REMARK    1  A    between atoms: C2_2  and  C3_3 
REMARK    2  A    between atoms: C3_3  and  C4_4 
REMARK    3  A    between atoms: C4_4  and  O2_6 
REMARK    4  A    between atoms: O2_6  and  C5_7 
REMARK    5  A    between atoms: C5_7  and  C6_8 
REMARK    6  A    between atoms: C6_8  and  C7_10 
REMARK    7  A    between atoms: C7_10  and  C8_11 
REMARK    8  A    between atoms: C8_11  and  C9_12 
REMARK    9  A    between atoms: C21_24  and  O4_25 
REMARK   10  A    between atoms: C22_27  and  C23_28 
REMARK   11  A    between atoms: C23_28  and  O5_29 
REMARK   12  A    between atoms: C23_28  and  C24_31 
REMARK   13  A    between atoms: C24_31  and  O6_32 
REMARK   14  A    between atoms: C25_34  and  O7_36 
ROOT
HETATM    1  C9  UNL     1      14.564  14.627  33.053  1.00  0.00     0.004 C 
HETATM    2  C10 UNL     1      14.763  15.908  32.273  1.00  0.00     0.006 C 
HETATM    3  C11 UNL     1      13.594  16.797  32.115  1.00  0.00     0.039 C 
HETATM    4  C12 UNL     1      14.018  18.055  31.442  1.00  0.00    -0.087 C 
HETATM    5  C13 UNL     1      12.965  19.103  31.732  1.00  0.00     0.043 C 
HETATM    6  C14 UNL     1      14.996  18.535  30.692  1.00  0.00    -0.024 C 
HETATM    7  C15 UNL     1      16.242  18.028  30.103  1.00  0.00     0.028 C 
HETATM    8  C16 UNL     1      17.120  17.251  31.061  1.00  0.00     0.009 C 
HETATM    9  C17 UNL     1      16.842  15.784  30.978  1.00  0.00    -0.000 C 
HETATM   10  C18 UNL     1      15.335  15.569  30.941  1.00  0.00    -0.004 C 
HETATM   11  C19 UNL     1      15.090  14.058  30.773  1.00  0.00     0.014 C 
HETATM   12  C20 UNL     1      15.276  13.614  32.165  1.00  0.00     0.036 C 
HETATM   13  C21 UNL     1      16.553  14.059  32.831  1.00  0.00     0.100 C 
HETATM   14  C22 UNL     1      17.428  14.927  32.042  1.00  0.00     0.059 C 
HETATM   15  C25 UNL     1      15.714  14.482  33.982  1.00  0.00     0.094 C 
HETATM   16  C26 UNL     1      15.590  13.456  35.080  1.00  0.00     0.050 C 
ENDROOT
BRANCH   1  17
HETATM   17  C8  UNL     1      13.182  14.382  33.374  1.00  0.00     0.021 C 
BRANCH  17  18
HETATM   18  C7  UNL     1      12.431  13.193  32.934  1.00  0.00     0.081 C 
BRANCH  18  19
HETATM   19  C6  UNL     1      11.980  12.362  34.128  1.00  0.00     0.150 C 
HETATM   20  O3  UNL     1      11.633  11.207  34.031  1.00  0.00    -0.296 OA
BRANCH  19  21
HETATM   21  C5  UNL     1      11.970  13.001  35.463  1.00  0.00     0.256 C 
BRANCH  21  22
HETATM   22  O2  UNL     1      12.358  12.139  36.500  1.00  0.00    -0.314 OA
BRANCH  22  23
HETATM   23  C4  UNL     1      12.534  12.485  37.823  1.00  0.00     0.259 C 
HETATM   24  O1  UNL     1      11.540  12.853  38.489  1.00  0.00    -0.265 OA
BRANCH  23  25
HETATM   25  C3  UNL     1      13.891  12.411  38.413  1.00  0.00     0.111 C 
BRANCH  25  26
HETATM   26  C2  UNL     1      14.495  13.805  38.534  1.00  0.00     0.005 C 
HETATM   27  C1  UNL     1      14.557  14.233  39.967  1.00  0.00     0.005 C 
ENDBRANCH  25  26
ENDBRANCH  23  25
ENDBRANCH  22  23
ENDBRANCH  21  22
ENDBRANCH  19  21
ENDBRANCH  18  19
ENDBRANCH  17  18
ENDBRANCH   1  17
BRANCH  15  28
HETATM   28  O7  UNL     1      16.024  15.705  34.575  1.00  0.00    -0.386 OA
ATOM     29  H7  UNL     1      15.314  15.996  35.135  1.00  0.00     0.210 HD
ENDBRANCH  15  28
BRANCH  13  30
HETATM   30  O4  UNL     1      17.232  12.854  33.197  1.00  0.00    -0.386 OA
ATOM     31  H4  UNL     1      17.954  12.773  32.585  1.00  0.00     0.210 HD
ENDBRANCH  13  30
BRANCH  14  32
HETATM   32  C23 UNL     1      18.463  15.577  32.897  1.00  0.00     0.149 C 
BRANCH  32  33
HETATM   33  O5  UNL     1      19.571  16.026  32.143  1.00  0.00    -0.393 OA
ATOM     34  H5  UNL     1      19.427  16.890  31.776  1.00  0.00     0.210 HD
ENDBRANCH  32  33
BRANCH  32  35
HETATM   35  C24 UNL     1      19.144  14.674  33.908  1.00  0.00     0.196 C 
BRANCH  35  36
HETATM   36  O6  UNL     1      20.164  13.930  33.258  1.00  0.00    -0.398 OA
ATOM     37  H6  UNL     1      19.866  13.037  33.129  1.00  0.00     0.209 HD
ENDBRANCH  35  36
ENDBRANCH  32  35
ENDBRANCH  14  32
TORSDOF 14
ENDMDL
