MODEL 1
REMARK VINA RESULT: -8.880022027      0.000      0.000
REMARK  12 active torsions:
REMARK  status: ('A' for Active; 'I' for Inactive)
REMARK    1  A    between atoms: C4_4  and  C5_5 
REMARK    2  A    between atoms: C5_5  and  O1_6 
REMARK    3  A    between atoms: O1_6  and  C6_7 
REMARK    4  A    between atoms: C6_7  and  C7_8 
REMARK    5  A    between atoms: C7_8  and  C8_9 
REMARK    6  A    between atoms: N1_10  and  C9_12 
REMARK    7  A    between atoms: C9_12  and  C10_13 
REMARK    8  A    between atoms: C9_12  and  C13_16 
REMARK    9  A    between atoms: C18_21  and  N2_22 
REMARK   10  A    between atoms: C24_29  and  O3_30 
REMARK   11  A    between atoms: C25_32  and  O4_33 
REMARK   12  A    between atoms: C26_35  and  O5_36 
ROOT
HETATM    1  C13 UNL     1      16.138  16.797  30.845  1.00  0.00     0.033 A 
HETATM    2  C14 UNL     1      15.789  15.944  29.690  1.00  0.00     0.018 A 
HETATM    3  C15 UNL     1      15.169  14.664  30.146  1.00  0.00     0.002 A 
HETATM    4  C16 UNL     1      15.058  14.754  31.625  1.00  0.00     0.008 A 
HETATM    5  C17 UNL     1      15.644  16.073  32.066  1.00  0.00     0.028 A 
HETATM    6  C18 UNL     1      16.535  15.995  33.245  1.00  0.00     0.129 C 
HETATM    7  C24 UNL     1      17.990  16.204  32.991  1.00  0.00     0.173 C 
HETATM    8  C25 UNL     1      18.409  15.938  31.584  1.00  0.00     0.178 C 
HETATM    9  C26 UNL     1      17.644  17.003  30.798  1.00  0.00     0.164 C 
ENDROOT
BRANCH   1  10
HETATM   10  C9  UNL     1      15.555  18.198  30.824  1.00  0.00     0.001 C 
BRANCH  10  11
HETATM   11  N1  UNL     1      16.392  19.267  31.131  1.00  0.00    -0.375 N 
HETATM   12  C8  UNL     1      16.902  19.629  32.338  1.00  0.00     0.062 C 
ATOM     13  H1  UNL     1      16.658  19.859  30.344  1.00  0.00     0.164 HD
BRANCH  12  14
HETATM   14  C7  UNL     1      17.385  21.066  32.348  1.00  0.00     0.071 C 
BRANCH  14  15
HETATM   15  C6  UNL     1      16.981  21.914  31.215  1.00  0.00     0.173 C 
BRANCH  15  16
HETATM   16  O1  UNL     1      15.907  22.739  31.633  1.00  0.00    -0.387 OA
BRANCH  16  17
HETATM   17  C5  UNL     1      14.783  22.606  30.852  1.00  0.00     0.195 C 
BRANCH  17  18
HETATM   18  C4  UNL     1      14.974  23.152  29.478  1.00  0.00     0.001 C 
HETATM   19  C2  UNL     1      14.977  22.445  28.368  1.00  0.00    -0.089 C 
HETATM   20  C1  UNL     1      14.793  20.971  28.286  1.00  0.00     0.042 C 
HETATM   21  C3  UNL     1      15.170  23.160  27.073  1.00  0.00     0.042 C 
ENDBRANCH  17  18
ENDBRANCH  16  17
ENDBRANCH  15  16
ENDBRANCH  14  15
ENDBRANCH  12  14
ENDBRANCH  10  11
BRANCH  10  22
HETATM   22  C10 UNL     1      14.175  18.308  31.403  1.00  0.00     0.024 C 
HETATM   23  C11 UNL     1      13.721  19.564  32.012  1.00  0.00     0.016 C 
HETATM   24  C12 UNL     1      13.263  18.159  30.143  1.00  0.00     0.016 C 
ENDBRANCH  10  22
ENDBRANCH   1  10
BRANCH   9  25
HETATM   25  O5  UNL     1      18.151  16.982  29.514  1.00  0.00    -0.392 OA
ATOM     26  H5  UNL     1      18.158  16.112  29.132  1.00  0.00     0.210 HD
ENDBRANCH   9  25
BRANCH   6  27
HETATM   27  N2  UNL     1      16.200  14.851  34.063  1.00  0.00    -0.317 N 
HETATM   28  C19 UNL     1      16.735  13.642  33.990  1.00  0.00     0.095 A 
HETATM   29  C20 UNL     1      16.369  12.612  34.826  1.00  0.00     0.017 A 
HETATM   30  C21 UNL     1      15.400  12.785  35.809  1.00  0.00     0.007 A 
HETATM   31  C22 UNL     1      14.841  14.044  35.885  1.00  0.00     0.074 A 
HETATM   32  C23 UNL     1      15.241  15.026  35.034  1.00  0.00     0.247 A 
HETATM   33  O2  UNL     1      14.710  16.165  35.131  1.00  0.00    -0.268 OA
ENDBRANCH   6  27
BRANCH   8  34
HETATM   34  O4  UNL     1      18.333  14.707  31.076  1.00  0.00    -0.390 OA
ATOM     35  H4  UNL     1      18.733  13.974  31.528  1.00  0.00     0.210 HD
ENDBRANCH   8  34
BRANCH   7  36
HETATM   36  O3  UNL     1      18.851  15.725  33.966  1.00  0.00    -0.391 OA
ATOM     37  H3  UNL     1      19.588  15.212  33.654  1.00  0.00     0.210 HD
ENDBRANCH   7  36
TORSDOF 12
ENDMDL
MODEL 2
REMARK VINA RESULT: -8.788682265      2.001      7.444
REMARK  12 active torsions:
REMARK  status: ('A' for Active; 'I' for Inactive)
REMARK    1  A    between atoms: C4_4  and  C5_5 
REMARK    2  A    between atoms: C5_5  and  O1_6 
REMARK    3  A    between atoms: O1_6  and  C6_7 
REMARK    4  A    between atoms: C6_7  and  C7_8 
REMARK    5  A    between atoms: C7_8  and  C8_9 
REMARK    6  A    between atoms: N1_10  and  C9_12 
REMARK    7  A    between atoms: C9_12  and  C10_13 
REMARK    8  A    between atoms: C9_12  and  C13_16 
REMARK    9  A    between atoms: C18_21  and  N2_22 
REMARK   10  A    between atoms: C24_29  and  O3_30 
REMARK   11  A    between atoms: C25_32  and  O4_33 
REMARK   12  A    between atoms: C26_35  and  O5_36 
ROOT
HETATM    1  C13 UNL     1      16.082  16.041  31.166  1.00  0.00     0.033 A 
HETATM    2  C14 UNL     1      15.307  15.436  30.062  1.00  0.00     0.018 A 
HETATM    3  C15 UNL     1      14.641  16.493  29.243  1.00  0.00     0.002 A 
HETATM    4  C16 UNL     1      15.075  17.798  29.806  1.00  0.00     0.008 A 
HETATM    5  C17 UNL     1      15.975  17.530  30.989  1.00  0.00     0.028 A 
HETATM    6  C18 UNL     1      15.701  18.361  32.181  1.00  0.00     0.129 C 
HETATM    7  C24 UNL     1      15.088  17.664  33.349  1.00  0.00     0.173 C 
HETATM    8  C25 UNL     1      14.365  16.407  32.999  1.00  0.00     0.178 C 
HETATM    9  C26 UNL     1      15.483  15.514  32.460  1.00  0.00     0.164 C 
ENDROOT
BRANCH   1  10
HETATM   10  C9  UNL     1      17.547  15.648  31.229  1.00  0.00     0.001 C 
BRANCH  10  11
HETATM   11  N1  UNL     1      17.980  14.881  32.306  1.00  0.00    -0.375 N 
HETATM   12  C8  UNL     1      18.343  13.570  32.325  1.00  0.00     0.062 C 
ATOM     13  H1  UNL     1      18.031  15.366  33.202  1.00  0.00     0.164 HD
BRANCH  12  14
HETATM   14  C7  UNL     1      18.319  12.990  33.725  1.00  0.00     0.071 C 
BRANCH  14  15
HETATM   15  C6  UNL     1      17.041  13.053  34.452  1.00  0.00     0.173 C 
BRANCH  15  16
HETATM   16  O1  UNL     1      17.011  14.254  35.203  1.00  0.00    -0.387 OA
BRANCH  16  17
HETATM   17  C5  UNL     1      15.838  14.432  35.899  1.00  0.00     0.195 C 
BRANCH  17  18
HETATM   18  C4  UNL     1      15.127  13.147  36.159  1.00  0.00     0.001 C 
HETATM   19  C2  UNL     1      14.504  12.830  37.273  1.00  0.00    -0.089 C 
HETATM   20  C1  UNL     1      14.400  13.697  38.478  1.00  0.00     0.042 C 
HETATM   21  C3  UNL     1      13.832  11.501  37.356  1.00  0.00     0.042 C 
ENDBRANCH  17  18
ENDBRANCH  16  17
ENDBRANCH  15  16
ENDBRANCH  14  15
ENDBRANCH  12  14
ENDBRANCH  10  11
BRANCH  10  22
HETATM   22  C10 UNL     1      18.501  16.732  30.820  1.00  0.00     0.024 C 
HETATM   23  C11 UNL     1      19.130  17.590  31.831  1.00  0.00     0.016 C 
HETATM   24  C12 UNL     1      19.700  15.924  30.226  1.00  0.00     0.016 C 
ENDBRANCH  10  22
ENDBRANCH   1  10
BRANCH   9  25
HETATM   25  O5  UNL     1      14.946  14.248  32.331  1.00  0.00    -0.392 OA
ATOM     26  H5  UNL     1      14.440  13.980  33.089  1.00  0.00     0.210 HD
ENDBRANCH   9  25
BRANCH   6  27
HETATM   27  N2  UNL     1      15.079  19.610  31.800  1.00  0.00    -0.317 N 
HETATM   28  C19 UNL     1      13.788  19.819  31.590  1.00  0.00     0.095 A 
HETATM   29  C20 UNL     1      13.278  21.051  31.248  1.00  0.00     0.017 A 
HETATM   30  C21 UNL     1      14.102  22.162  31.101  1.00  0.00     0.007 A 
HETATM   31  C22 UNL     1      15.447  21.945  31.319  1.00  0.00     0.074 A 
HETATM   32  C23 UNL     1      15.897  20.706  31.655  1.00  0.00     0.247 A 
HETATM   33  O2  UNL     1      17.132  20.542  31.848  1.00  0.00    -0.268 OA
ENDBRANCH   6  27
BRANCH   8  34
HETATM   34  O4  UNL     1      13.268  16.445  32.242  1.00  0.00    -0.390 OA
ATOM     35  H4  UNL     1      12.407  16.455  32.642  1.00  0.00     0.210 HD
ENDBRANCH   8  34
BRANCH   7  36
HETATM   36  O3  UNL     1      14.450  18.475  34.274  1.00  0.00    -0.391 OA
ATOM     37  H3  UNL     1      14.331  18.104  35.141  1.00  0.00     0.210 HD
ENDBRANCH   7  36
TORSDOF 12
ENDMDL
MODEL 3
REMARK VINA RESULT: -8.428222713      1.777      3.227
REMARK  12 active torsions:
REMARK  status: ('A' for Active; 'I' for Inactive)
REMARK    1  A    between atoms: C4_4  and  C5_5 
REMARK    2  A    between atoms: C5_5  and  O1_6 
REMARK    3  A    between atoms: O1_6  and  C6_7 
REMARK    4  A    between atoms: C6_7  and  C7_8 
REMARK    5  A    between atoms: C7_8  and  C8_9 
REMARK    6  A    between atoms: N1_10  and  C9_12 
REMARK    7  A    between atoms: C9_12  and  C10_13 
REMARK    8  A    between atoms: C9_12  and  C13_16 
REMARK    9  A    between atoms: C18_21  and  N2_22 
REMARK   10  A    between atoms: C24_29  and  O3_30 
REMARK   11  A    between atoms: C25_32  and  O4_33 
REMARK   12  A    between atoms: C26_35  and  O5_36 
ROOT
HETATM    1  C13 UNL     1      16.083  16.868  32.097  1.00  0.00     0.033 A 
HETATM    2  C14 UNL     1      15.060  17.930  32.003  1.00  0.00     0.018 A 
HETATM    3  C15 UNL     1      14.147  17.891  33.184  1.00  0.00     0.002 A 
HETATM    4  C16 UNL     1      14.662  16.821  34.079  1.00  0.00     0.008 A 
HETATM    5  C17 UNL     1      15.865  16.190  33.421  1.00  0.00     0.028 A 
HETATM    6  C18 UNL     1      15.895  14.712  33.467  1.00  0.00     0.129 C 
HETATM    7  C24 UNL     1      15.661  14.004  32.175  1.00  0.00     0.173 C 
HETATM    8  C25 UNL     1      14.927  14.813  31.159  1.00  0.00     0.178 C 
HETATM    9  C26 UNL     1      15.891  15.967  30.887  1.00  0.00     0.164 C 
ENDROOT
BRANCH   1  10
HETATM   10  C9  UNL     1      17.524  17.336  32.006  1.00  0.00     0.001 C 
BRANCH  10  11
HETATM   11  N1  UNL     1      17.769  18.699  31.868  1.00  0.00    -0.375 N 
HETATM   12  C8  UNL     1      17.862  19.648  32.837  1.00  0.00     0.062 C 
ATOM     13  H1  UNL     1      17.896  19.030  30.912  1.00  0.00     0.164 HD
BRANCH  12  14
HETATM   14  C7  UNL     1      17.689  21.049  32.283  1.00  0.00     0.071 C 
BRANCH  14  15
HETATM   15  C6  UNL     1      16.621  21.248  31.291  1.00  0.00     0.173 C 
BRANCH  15  16
HETATM   16  O1  UNL     1      15.917  22.433  31.623  1.00  0.00    -0.387 OA
BRANCH  16  17
HETATM   17  C5  UNL     1      14.567  22.353  31.368  1.00  0.00     0.195 C 
BRANCH  17  18
HETATM   18  C4  UNL     1      14.236  21.299  30.367  1.00  0.00     0.001 C 
HETATM   19  C2  UNL     1      13.179  20.517  30.401  1.00  0.00    -0.089 C 
HETATM   20  C1  UNL     1      12.123  20.543  31.449  1.00  0.00     0.042 C 
HETATM   21  C3  UNL     1      12.997  19.520  29.306  1.00  0.00     0.042 C 
ENDBRANCH  17  18
ENDBRANCH  16  17
ENDBRANCH  15  16
ENDBRANCH  14  15
ENDBRANCH  12  14
ENDBRANCH  10  11
BRANCH  10  22
HETATM   22  C10 UNL     1      18.413  16.461  31.170  1.00  0.00     0.024 C 
HETATM   23  C11 UNL     1      19.477  17.049  30.349  1.00  0.00     0.016 C 
HETATM   24  C12 UNL     1      19.191  15.639  32.247  1.00  0.00     0.016 C 
ENDBRANCH  10  22
ENDBRANCH   1  10
BRANCH   9  25
HETATM   25  O5  UNL     1      15.396  16.640  29.787  1.00  0.00    -0.392 OA
ATOM     26  H5  UNL     1      15.629  16.228  28.964  1.00  0.00     0.210 HD
ENDBRANCH   9  25
BRANCH   6  27
HETATM   27  N2  UNL     1      15.137  14.220  34.596  1.00  0.00    -0.317 N 
HETATM   28  C19 UNL     1      13.874  13.822  34.588  1.00  0.00     0.095 A 
HETATM   29  C20 UNL     1      13.234  13.348  35.709  1.00  0.00     0.017 A 
HETATM   30  C21 UNL     1      13.888  13.260  36.935  1.00  0.00     0.007 A 
HETATM   31  C22 UNL     1      15.203  13.676  36.945  1.00  0.00     0.074 A 
HETATM   32  C23 UNL     1      15.786  14.135  35.805  1.00  0.00     0.247 A 
HETATM   33  O2  UNL     1      16.990  14.507  35.849  1.00  0.00    -0.268 OA
ENDBRANCH   6  27
BRANCH   8  34
HETATM   34  O4  UNL     1      13.663  15.179  31.371  1.00  0.00    -0.390 OA
ATOM     35  H4  UNL     1      13.156  15.586  30.677  1.00  0.00     0.210 HD
ENDBRANCH   8  34
BRANCH   7  36
HETATM   36  O3  UNL     1      15.270  12.678  32.271  1.00  0.00    -0.391 OA
ATOM     37  H3  UNL     1      14.937  12.283  31.473  1.00  0.00     0.210 HD
ENDBRANCH   7  36
TORSDOF 12
ENDMDL
MODEL 4
REMARK VINA RESULT: -8.400327829      2.267      7.667
REMARK  12 active torsions:
REMARK  status: ('A' for Active; 'I' for Inactive)
REMARK    1  A    between atoms: C4_4  and  C5_5 
REMARK    2  A    between atoms: C5_5  and  O1_6 
REMARK    3  A    between atoms: O1_6  and  C6_7 
REMARK    4  A    between atoms: C6_7  and  C7_8 
REMARK    5  A    between atoms: C7_8  and  C8_9 
REMARK    6  A    between atoms: N1_10  and  C9_12 
REMARK    7  A    between atoms: C9_12  and  C10_13 
REMARK    8  A    between atoms: C9_12  and  C13_16 
REMARK    9  A    between atoms: C18_21  and  N2_22 
REMARK   10  A    between atoms: C24_29  and  O3_30 
REMARK   11  A    between atoms: C25_32  and  O4_33 
REMARK   12  A    between atoms: C26_35  and  O5_36 
ROOT
HETATM    1  C13 UNL     1      15.913  15.441  32.095  1.00  0.00     0.033 A 
HETATM    2  C14 UNL     1      15.674  14.960  30.718  1.00  0.00     0.018 A 
HETATM    3  C15 UNL     1      15.953  16.040  29.725  1.00  0.00     0.002 A 
HETATM    4  C16 UNL     1      16.454  17.205  30.499  1.00  0.00     0.008 A 
HETATM    5  C17 UNL     1      16.443  16.842  31.965  1.00  0.00     0.028 A 
HETATM    6  C18 UNL     1      15.899  17.885  32.861  1.00  0.00     0.129 C 
HETATM    7  C24 UNL     1      14.569  17.604  33.475  1.00  0.00     0.173 C 
HETATM    8  C25 UNL     1      13.749  16.607  32.727  1.00  0.00     0.178 C 
HETATM    9  C26 UNL     1      14.588  15.333  32.833  1.00  0.00     0.164 C 
ENDROOT
BRANCH   1  10
HETATM   10  C9  UNL     1      16.883  14.613  32.919  1.00  0.00     0.001 C 
BRANCH  10  11
HETATM   11  N1  UNL     1      16.440  14.088  34.129  1.00  0.00    -0.375 N 
HETATM   12  C8  UNL     1      16.276  12.784  34.481  1.00  0.00     0.062 C 
ATOM     13  H1  UNL     1      16.208  14.772  34.849  1.00  0.00     0.164 HD
BRANCH  12  14
HETATM   14  C7  UNL     1      15.372  12.627  35.688  1.00  0.00     0.071 C 
BRANCH  14  15
HETATM   15  C6  UNL     1      15.267  13.779  36.598  1.00  0.00     0.173 C 
BRANCH  15  16
HETATM   16  O1  UNL     1      14.369  13.444  37.642  1.00  0.00    -0.387 OA
BRANCH  16  17
HETATM   17  C5  UNL     1      13.530  12.401  37.325  1.00  0.00     0.195 C 
BRANCH  17  18
HETATM   18  C4  UNL     1      12.090  12.781  37.408  1.00  0.00     0.001 C 
HETATM   19  C2  UNL     1      11.311  13.055  36.384  1.00  0.00    -0.089 C 
HETATM   20  C1  UNL     1      11.729  13.038  34.956  1.00  0.00     0.042 C 
HETATM   21  C3  UNL     1       9.886  13.406  36.651  1.00  0.00     0.042 C 
ENDBRANCH  17  18
ENDBRANCH  16  17
ENDBRANCH  15  16
ENDBRANCH  14  15
ENDBRANCH  12  14
ENDBRANCH  10  11
BRANCH  10  22
HETATM   22  C10 UNL     1      18.285  15.147  32.953  1.00  0.00     0.024 C 
HETATM   23  C11 UNL     1      19.056  15.135  34.202  1.00  0.00     0.016 C 
HETATM   24  C12 UNL     1      19.054  14.142  32.036  1.00  0.00     0.016 C 
ENDBRANCH  10  22
ENDBRANCH   1  10
BRANCH   9  25
HETATM   25  O5  UNL     1      13.794  14.303  32.369  1.00  0.00    -0.392 OA
ATOM     26  H5  UNL     1      12.881  14.399  32.611  1.00  0.00     0.210 HD
ENDBRANCH   9  25
BRANCH   6  27
HETATM   27  N2  UNL     1      16.050  19.196  32.269  1.00  0.00    -0.317 N 
HETATM   28  C19 UNL     1      15.162  19.835  31.523  1.00  0.00     0.095 A 
HETATM   29  C20 UNL     1      15.382  21.094  31.014  1.00  0.00     0.017 A 
HETATM   30  C21 UNL     1      16.569  21.777  31.259  1.00  0.00     0.007 A 
HETATM   31  C22 UNL     1      17.496  21.113  32.036  1.00  0.00     0.074 A 
HETATM   32  C23 UNL     1      17.225  19.869  32.513  1.00  0.00     0.247 A 
HETATM   33  O2  UNL     1      18.093  19.289  33.220  1.00  0.00    -0.268 OA
ENDBRANCH   6  27
BRANCH   8  34
HETATM   34  O4  UNL     1      13.304  16.881  31.500  1.00  0.00    -0.390 OA
ATOM     35  H4  UNL     1      13.783  16.584  30.736  1.00  0.00     0.210 HD
ENDBRANCH   8  34
BRANCH   7  36
HETATM   36  O3  UNL     1      13.874  18.705  33.950  1.00  0.00    -0.391 OA
ATOM     37  H3  UNL     1      12.926  18.643  33.921  1.00  0.00     0.210 HD
ENDBRANCH   7  36
TORSDOF 12
ENDMDL
MODEL 5
REMARK VINA RESULT: -8.261604902      2.493      8.207
REMARK  12 active torsions:
REMARK  status: ('A' for Active; 'I' for Inactive)
REMARK    1  A    between atoms: C4_4  and  C5_5 
REMARK    2  A    between atoms: C5_5  and  O1_6 
REMARK    3  A    between atoms: O1_6  and  C6_7 
REMARK    4  A    between atoms: C6_7  and  C7_8 
REMARK    5  A    between atoms: C7_8  and  C8_9 
REMARK    6  A    between atoms: N1_10  and  C9_12 
REMARK    7  A    between atoms: C9_12  and  C10_13 
REMARK    8  A    between atoms: C9_12  and  C13_16 
REMARK    9  A    between atoms: C18_21  and  N2_22 
REMARK   10  A    between atoms: C24_29  and  O3_30 
REMARK   11  A    between atoms: C25_32  and  O4_33 
REMARK   12  A    between atoms: C26_35  and  O5_36 
ROOT
HETATM    1  C13 UNL     1      15.710  15.299  32.173  1.00  0.00     0.033 A 
HETATM    2  C14 UNL     1      15.379  14.851  30.804  1.00  0.00     0.018 A 
HETATM    3  C15 UNL     1      15.701  15.915  29.807  1.00  0.00     0.002 A 
HETATM    4  C16 UNL     1      16.320  17.031  30.567  1.00  0.00     0.008 A 
HETATM    5  C17 UNL     1      16.341  16.656  32.029  1.00  0.00     0.028 A 
HETATM    6  C18 UNL     1      15.915  17.730  32.953  1.00  0.00     0.129 C 
HETATM    7  C24 UNL     1      14.593  17.546  33.619  1.00  0.00     0.173 C 
HETATM    8  C25 UNL     1      13.669  16.622  32.899  1.00  0.00     0.178 C 
HETATM    9  C26 UNL     1      14.411  15.287  32.963  1.00  0.00     0.164 C 
ENDROOT
BRANCH   1  10
HETATM   10  C9  UNL     1      16.645  14.392  32.951  1.00  0.00     0.001 C 
BRANCH  10  11
HETATM   11  N1  UNL     1      16.265  13.989  34.228  1.00  0.00    -0.375 N 
HETATM   12  C8  UNL     1      16.050  12.730  34.693  1.00  0.00     0.062 C 
ATOM     13  H1  UNL     1      16.128  14.739  34.905  1.00  0.00     0.164 HD
BRANCH  12  14
HETATM   14  C7  UNL     1      15.231  12.723  35.970  1.00  0.00     0.071 C 
BRANCH  14  15
HETATM   15  C6  UNL     1      13.776  12.891  35.831  1.00  0.00     0.173 C 
BRANCH  15  16
HETATM   16  O1  UNL     1      13.220  13.063  37.123  1.00  0.00    -0.387 OA
BRANCH  16  17
HETATM   17  C5  UNL     1      13.762  12.220  38.065  1.00  0.00     0.195 C 
BRANCH  17  18
HETATM   18  C4  UNL     1      13.226  12.473  39.434  1.00  0.00     0.001 C 
HETATM   19  C2  UNL     1      13.641  13.412  40.256  1.00  0.00    -0.089 C 
HETATM   20  C1  UNL     1      14.722  14.392  39.967  1.00  0.00     0.042 C 
HETATM   21  C3  UNL     1      12.981  13.530  41.589  1.00  0.00     0.042 C 
ENDBRANCH  17  18
ENDBRANCH  16  17
ENDBRANCH  15  16
ENDBRANCH  14  15
ENDBRANCH  12  14
ENDBRANCH  10  11
BRANCH  10  22
HETATM   22  C10 UNL     1      18.100  14.737  32.821  1.00  0.00     0.024 C 
HETATM   23  C11 UNL     1      18.933  14.917  34.016  1.00  0.00     0.016 C 
HETATM   24  C12 UNL     1      18.694  13.458  32.148  1.00  0.00     0.016 C 
ENDBRANCH  10  22
ENDBRANCH   1  10
BRANCH   9  25
HETATM   25  O5  UNL     1      13.522  14.324  32.525  1.00  0.00    -0.392 OA
ATOM     26  H5  UNL     1      13.753  13.448  32.812  1.00  0.00     0.210 HD
ENDBRANCH   9  25
BRANCH   6  27
HETATM   27  N2  UNL     1      16.143  19.031  32.364  1.00  0.00    -0.317 N 
HETATM   28  C19 UNL     1      15.287  19.730  31.633  1.00  0.00     0.095 A 
HETATM   29  C20 UNL     1      15.582  20.974  31.126  1.00  0.00     0.017 A 
HETATM   30  C21 UNL     1      16.815  21.578  31.356  1.00  0.00     0.007 A 
HETATM   31  C22 UNL     1      17.707  20.851  32.116  1.00  0.00     0.074 A 
HETATM   32  C23 UNL     1      17.362  19.624  32.593  1.00  0.00     0.247 A 
HETATM   33  O2  UNL     1      18.201  18.987  33.285  1.00  0.00    -0.268 OA
ENDBRANCH   6  27
BRANCH   8  34
HETATM   34  O4  UNL     1      13.197  16.941  31.693  1.00  0.00    -0.390 OA
ATOM     35  H4  UNL     1      12.321  16.682  31.435  1.00  0.00     0.210 HD
ENDBRANCH   8  34
BRANCH   7  36
HETATM   36  O3  UNL     1      14.004  18.693  34.129  1.00  0.00    -0.391 OA
ATOM     37  H3  UNL     1      14.410  19.515  33.879  1.00  0.00     0.210 HD
ENDBRANCH   7  36
TORSDOF 12
ENDMDL
