MODEL 1
REMARK VINA RESULT: -9.503068498      0.000      0.000
REMARK  12 active torsions:
REMARK  status: ('A' for Active; 'I' for Inactive)
REMARK    1  A    between atoms: C2_2  and  C3_4 
REMARK    2  A    between atoms: C3_4  and  O2_5 
REMARK    3  A    between atoms: C3_4  and  C4_7 
REMARK    4  A    between atoms: C4_7  and  N1_8 
REMARK    5  A    between atoms: N1_8  and  C5_11 
REMARK    6  A    between atoms: C5_11  and  O3_12 
REMARK    7  A    between atoms: C5_11  and  C6_14 
REMARK    8  A    between atoms: C6_14  and  C7_15 
REMARK    9  A    between atoms: C6_14  and  N2_19 
REMARK   10  A    between atoms: C7_15  and  C8_16 
REMARK       I    between atoms: N2_19  and  C11_21 
REMARK   11  A    between atoms: C11_21  and  O5_23 
REMARK   12  A    between atoms: O5_23  and  C12_24 
ROOT
HETATM    1  N2  UNL     1      17.262  18.490  31.579  1.00  0.00    -0.328 N 
ATOM      2  H2  UNL     1      16.595  17.928  31.050  1.00  0.00     0.165 HD
HETATM    3  C11 UNL     1      18.598  18.053  31.568  1.00  0.00     0.361 C 
HETATM    4  O4  UNL     1      19.458  18.694  32.200  1.00  0.00    -0.238 OA
ENDROOT
BRANCH   1   5
HETATM    5  C6  UNL     1      16.737  19.640  32.254  1.00  0.00     0.143 C 
BRANCH   5   6
HETATM    6  C5  UNL     1      17.380  20.923  31.727  1.00  0.00     0.341 C 
BRANCH   6   7
HETATM    7  N1  UNL     1      16.435  21.980  31.542  1.00  0.00    -0.044 N 
ATOM      8  H12 UNL     1      16.682  22.784  32.120  1.00  0.00     0.280 HD
ATOM      9  H11 UNL     1      15.538  21.734  31.960  1.00  0.00     0.280 HD
BRANCH   7  10
HETATM   10  C4  UNL     1      16.256  22.383  30.174  1.00  0.00     0.274 C 
BRANCH  10  11
HETATM   11  C3  UNL     1      14.847  22.970  30.022  1.00  0.00     0.212 C 
BRANCH  11  12
HETATM   12  C2  UNL     1      13.994  22.048  29.231  1.00  0.00     0.153 C 
HETATM   13  C1  UNL     1      14.563  20.845  28.606  1.00  0.00     0.093 C 
HETATM   14  O1  UNL     1      12.800  22.270  29.083  1.00  0.00    -0.296 OA
ENDBRANCH  11  12
BRANCH  11  15
HETATM   15  O2  UNL     1      14.291  23.114  31.290  1.00  0.00    -0.386 OA
ATOM     16  H2  UNL     1      14.417  24.011  31.578  1.00  0.00     0.210 HD
ENDBRANCH  11  15
ENDBRANCH  10  11
ENDBRANCH   7  10
ENDBRANCH   6   7
BRANCH   6  17
HETATM   17  O3  UNL     1      18.406  21.333  32.548  1.00  0.00    -0.368 OA
ATOM     18  H3  UNL     1      18.370  20.874  33.379  1.00  0.00     0.212 HD
ENDBRANCH   6  17
ENDBRANCH   5   6
BRANCH   5  19
HETATM   19  C7  UNL     1      15.250  19.676  32.084  1.00  0.00     0.033 C 
BRANCH  19  20
HETATM   20  C8  UNL     1      14.581  18.345  32.183  1.00  0.00    -0.021 C 
HETATM   21  C9  UNL     1      14.352  17.940  33.611  1.00  0.00     0.009 C 
HETATM   22  C10 UNL     1      13.222  18.390  31.502  1.00  0.00     0.009 C 
ENDBRANCH  19  20
ENDBRANCH   5  19
ENDBRANCH   1   5
BRANCH   3  23
HETATM   23  O5  UNL     1      19.049  16.942  30.897  1.00  0.00    -0.296 OA
BRANCH  23  24
HETATM   24  C12 UNL     1      18.840  15.639  31.326  1.00  0.00     0.166 C 
HETATM   25  C13 UNL     1      20.099  14.989  31.868  1.00  0.00     0.204 C 
HETATM   26  O6  UNL     1      19.762  14.490  33.137  1.00  0.00    -0.358 OA
HETATM   27  C14 UNL     1      18.411  14.145  33.029  1.00  0.00     0.267 C 
HETATM   28  O7  UNL     1      17.842  13.987  34.279  1.00  0.00    -0.350 OA
HETATM   29  C24 UNL     1      17.878  15.420  32.404  1.00  0.00     0.077 C 
HETATM   30  C15 UNL     1      16.463  13.900  34.219  1.00  0.00     0.061 C 
HETATM   31  C16 UNL     1      15.896  14.959  35.126  1.00  0.00     0.046 C 
HETATM   32  C17 UNL     1      16.083  12.545  34.802  1.00  0.00     0.046 C 
HETATM   33  C18 UNL     1      16.014  13.943  32.835  1.00  0.00     0.025 C 
HETATM   34  C19 UNL     1      14.557  14.073  32.535  1.00  0.00     0.013 C 
HETATM   35  C23 UNL     1      16.468  15.218  32.094  1.00  0.00     0.008 C 
HETATM   36  C20 UNL     1      14.645  14.152  30.999  1.00  0.00    -0.009 A 
HETATM   37  C21 UNL     1      14.701  15.438  30.304  1.00  0.00     0.010 A 
HETATM   38  C22 UNL     1      16.028  14.843  30.741  1.00  0.00    -0.005 A 
ENDBRANCH  23  24
ENDBRANCH   3  23
TORSDOF 12
ENDMDL
MODEL 2
REMARK VINA RESULT: -9.423685728      2.184      3.180
REMARK  12 active torsions:
REMARK  status: ('A' for Active; 'I' for Inactive)
REMARK    1  A    between atoms: C2_2  and  C3_4 
REMARK    2  A    between atoms: C3_4  and  O2_5 
REMARK    3  A    between atoms: C3_4  and  C4_7 
REMARK    4  A    between atoms: C4_7  and  N1_8 
REMARK    5  A    between atoms: N1_8  and  C5_11 
REMARK    6  A    between atoms: C5_11  and  O3_12 
REMARK    7  A    between atoms: C5_11  and  C6_14 
REMARK    8  A    between atoms: C6_14  and  C7_15 
REMARK    9  A    between atoms: C6_14  and  N2_19 
REMARK   10  A    between atoms: C7_15  and  C8_16 
REMARK       I    between atoms: N2_19  and  C11_21 
REMARK   11  A    between atoms: C11_21  and  O5_23 
REMARK   12  A    between atoms: O5_23  and  C12_24 
ROOT
HETATM    1  N2  UNL     1      15.599  20.365  31.156  1.00  0.00    -0.328 N 
ATOM      2  H2  UNL     1      15.256  19.474  30.799  1.00  0.00     0.165 HD
HETATM    3  C11 UNL     1      16.866  20.353  31.765  1.00  0.00     0.361 C 
HETATM    4  O4  UNL     1      17.336  21.410  32.225  1.00  0.00    -0.238 OA
ENDROOT
BRANCH   1   5
HETATM    5  C6  UNL     1      14.737  21.497  30.985  1.00  0.00     0.143 C 
BRANCH   5   6
HETATM    6  C5  UNL     1      15.251  22.410  29.872  1.00  0.00     0.341 C 
BRANCH   6   7
HETATM    7  N1  UNL     1      14.639  22.140  28.607  1.00  0.00    -0.044 N 
ATOM      8  H12 UNL     1      14.052  22.924  28.322  1.00  0.00     0.280 HD
ATOM      9  H11 UNL     1      13.928  21.416  28.703  1.00  0.00     0.280 HD
BRANCH   7  10
HETATM   10  C4  UNL     1      15.564  21.799  27.562  1.00  0.00     0.274 C 
BRANCH  10  11
HETATM   11  C3  UNL     1      15.126  22.512  26.275  1.00  0.00     0.212 C 
BRANCH  11  12
HETATM   12  C2  UNL     1      15.286  23.980  26.427  1.00  0.00     0.153 C 
HETATM   13  C1  UNL     1      14.661  24.909  25.475  1.00  0.00     0.093 C 
HETATM   14  O1  UNL     1      15.941  24.446  27.350  1.00  0.00    -0.296 OA
ENDBRANCH  11  12
BRANCH  11  15
HETATM   15  O2  UNL     1      15.941  22.079  25.233  1.00  0.00    -0.386 OA
ATOM     16  H2  UNL     1      15.995  22.769  24.582  1.00  0.00     0.210 HD
ENDBRANCH  11  15
ENDBRANCH  10  11
ENDBRANCH   7  10
ENDBRANCH   6   7
BRANCH   6  17
HETATM   17  O3  UNL     1      15.094  23.736  30.209  1.00  0.00    -0.368 OA
ATOM     18  H3  UNL     1      15.934  24.127  30.419  1.00  0.00     0.212 HD
ENDBRANCH   6  17
ENDBRANCH   5   6
BRANCH   5  19
HETATM   19  C7  UNL     1      13.349  21.020  30.690  1.00  0.00     0.033 C 
BRANCH  19  20
HETATM   20  C8  UNL     1      12.998  19.710  31.312  1.00  0.00    -0.021 C 
HETATM   21  C9  UNL     1      11.810  19.826  32.226  1.00  0.00     0.009 C 
HETATM   22  C10 UNL     1      12.642  18.697  30.234  1.00  0.00     0.009 C 
ENDBRANCH  19  20
ENDBRANCH   5  19
ENDBRANCH   1   5
BRANCH   3  23
HETATM   23  O5  UNL     1      17.655  19.236  31.899  1.00  0.00    -0.296 OA
BRANCH  23  24
HETATM   24  C12 UNL     1      17.362  18.006  31.326  1.00  0.00     0.166 C 
HETATM   25  C13 UNL     1      18.315  17.640  30.204  1.00  0.00     0.204 C 
HETATM   26  O6  UNL     1      18.795  16.354  30.508  1.00  0.00    -0.358 OA
HETATM   27  C14 UNL     1      17.735  15.736  31.179  1.00  0.00     0.267 C 
HETATM   28  O7  UNL     1      18.171  14.614  31.859  1.00  0.00    -0.350 OA
HETATM   29  C24 UNL     1      17.408  16.824  32.183  1.00  0.00     0.077 C 
HETATM   30  C15 UNL     1      17.216  14.128  32.734  1.00  0.00     0.061 C 
HETATM   31  C16 UNL     1      17.841  14.052  34.101  1.00  0.00     0.046 C 
HETATM   32  C17 UNL     1      16.902  12.704  32.293  1.00  0.00     0.046 C 
HETATM   33  C18 UNL     1      15.996  14.915  32.638  1.00  0.00     0.025 C 
HETATM   34  C19 UNL     1      14.903  14.707  33.632  1.00  0.00     0.013 C 
HETATM   35  C23 UNL     1      16.223  16.414  32.926  1.00  0.00     0.008 C 
HETATM   36  C20 UNL     1      13.934  15.801  33.142  1.00  0.00    -0.009 A 
HETATM   37  C21 UNL     1      13.940  17.142  33.725  1.00  0.00     0.010 A 
HETATM   38  C22 UNL     1      14.883  16.903  32.560  1.00  0.00    -0.005 A 
ENDBRANCH  23  24
ENDBRANCH   3  23
TORSDOF 12
ENDMDL
MODEL 3
REMARK VINA RESULT: -9.182909744      1.987      2.723
REMARK  12 active torsions:
REMARK  status: ('A' for Active; 'I' for Inactive)
REMARK    1  A    between atoms: C2_2  and  C3_4 
REMARK    2  A    between atoms: C3_4  and  O2_5 
REMARK    3  A    between atoms: C3_4  and  C4_7 
REMARK    4  A    between atoms: C4_7  and  N1_8 
REMARK    5  A    between atoms: N1_8  and  C5_11 
REMARK    6  A    between atoms: C5_11  and  O3_12 
REMARK    7  A    between atoms: C5_11  and  C6_14 
REMARK    8  A    between atoms: C6_14  and  C7_15 
REMARK    9  A    between atoms: C6_14  and  N2_19 
REMARK   10  A    between atoms: C7_15  and  C8_16 
REMARK       I    between atoms: N2_19  and  C11_21 
REMARK   11  A    between atoms: C11_21  and  O5_23 
REMARK   12  A    between atoms: O5_23  and  C12_24 
ROOT
HETATM    1  N2  UNL     1      16.146  20.146  31.478  1.00  0.00    -0.328 N 
ATOM      2  H2  UNL     1      15.868  19.320  30.948  1.00  0.00     0.165 HD
HETATM    3  C11 UNL     1      17.329  20.040  32.230  1.00  0.00     0.361 C 
HETATM    4  O4  UNL     1      17.719  21.014  32.901  1.00  0.00    -0.238 OA
ENDROOT
BRANCH   1   5
HETATM    5  C6  UNL     1      15.290  21.291  31.375  1.00  0.00     0.143 C 
BRANCH   5   6
HETATM    6  C5  UNL     1      16.039  22.480  30.774  1.00  0.00     0.341 C 
BRANCH   6   7
HETATM    7  N1  UNL     1      15.310  23.121  29.724  1.00  0.00    -0.044 N 
ATOM      8  H12 UNL     1      15.177  24.110  29.936  1.00  0.00     0.280 HD
ATOM      9  H11 UNL     1      14.339  22.810  29.724  1.00  0.00     0.280 HD
BRANCH   7  10
HETATM   10  C4  UNL     1      15.887  22.961  28.418  1.00  0.00     0.274 C 
BRANCH  10  11
HETATM   11  C3  UNL     1      14.750  22.891  27.390  1.00  0.00     0.212 C 
BRANCH  11  12
HETATM   12  C2  UNL     1      15.192  23.478  26.101  1.00  0.00     0.153 C 
HETATM   13  C1  UNL     1      14.868  24.870  25.756  1.00  0.00     0.093 C 
HETATM   14  O1  UNL     1      15.837  22.815  25.299  1.00  0.00    -0.296 OA
ENDBRANCH  11  12
BRANCH  11  15
HETATM   15  O2  UNL     1      14.426  21.553  27.184  1.00  0.00    -0.386 OA
ATOM     16  H2  UNL     1      13.536  21.405  27.483  1.00  0.00     0.210 HD
ENDBRANCH  11  15
ENDBRANCH  10  11
ENDBRANCH   7  10
ENDBRANCH   6   7
BRANCH   6  17
HETATM   17  O3  UNL     1      16.381  23.391  31.748  1.00  0.00    -0.368 OA
ATOM     18  H3  UNL     1      15.928  24.215  31.606  1.00  0.00     0.212 HD
ENDBRANCH   6  17
ENDBRANCH   5   6
BRANCH   5  19
HETATM   19  C7  UNL     1      14.092  20.938  30.549  1.00  0.00     0.033 C 
BRANCH  19  20
HETATM   20  C8  UNL     1      13.241  19.854  31.121  1.00  0.00    -0.021 C 
HETATM   21  C9  UNL     1      11.960  20.392  31.692  1.00  0.00     0.009 C 
HETATM   22  C10 UNL     1      12.869  18.854  30.037  1.00  0.00     0.009 C 
ENDBRANCH  19  20
ENDBRANCH   5  19
ENDBRANCH   1   5
BRANCH   3  23
HETATM   23  O5  UNL     1      18.117  18.916  32.289  1.00  0.00    -0.296 OA
BRANCH  23  24
HETATM   24  C12 UNL     1      17.854  17.747  31.590  1.00  0.00     0.166 C 
HETATM   25  C13 UNL     1      18.998  17.335  30.683  1.00  0.00     0.204 C 
HETATM   26  O6  UNL     1      19.283  15.996  31.003  1.00  0.00    -0.358 OA
HETATM   27  C14 UNL     1      18.050  15.459  31.385  1.00  0.00     0.267 C 
HETATM   28  O7  UNL     1      18.222  14.271  32.073  1.00  0.00    -0.350 OA
HETATM   29  C24 UNL     1      17.602  16.531  32.359  1.00  0.00     0.077 C 
HETATM   30  C15 UNL     1      17.057  13.847  32.684  1.00  0.00     0.061 C 
HETATM   31  C16 UNL     1      17.350  13.652  34.147  1.00  0.00     0.046 C 
HETATM   32  C17 UNL     1      16.725  12.481  32.096  1.00  0.00     0.046 C 
HETATM   33  C18 UNL     1      15.963  14.755  32.372  1.00  0.00     0.025 C 
HETATM   34  C19 UNL     1      14.660  14.615  33.088  1.00  0.00     0.013 C 
HETATM   35  C23 UNL     1      16.250  16.211  32.797  1.00  0.00     0.008 C 
HETATM   36  C20 UNL     1      13.926  15.819  32.467  1.00  0.00    -0.009 A 
HETATM   37  C21 UNL     1      13.919  17.128  33.121  1.00  0.00     0.010 A 
HETATM   38  C22 UNL     1      15.075  16.845  32.177  1.00  0.00    -0.005 A 
ENDBRANCH  23  24
ENDBRANCH   3  23
TORSDOF 12
ENDMDL
MODEL 4
REMARK VINA RESULT: -9.163079017      1.074      1.163
REMARK  12 active torsions:
REMARK  status: ('A' for Active; 'I' for Inactive)
REMARK    1  A    between atoms: C2_2  and  C3_4 
REMARK    2  A    between atoms: C3_4  and  O2_5 
REMARK    3  A    between atoms: C3_4  and  C4_7 
REMARK    4  A    between atoms: C4_7  and  N1_8 
REMARK    5  A    between atoms: N1_8  and  C5_11 
REMARK    6  A    between atoms: C5_11  and  O3_12 
REMARK    7  A    between atoms: C5_11  and  C6_14 
REMARK    8  A    between atoms: C6_14  and  C7_15 
REMARK    9  A    between atoms: C6_14  and  N2_19 
REMARK   10  A    between atoms: C7_15  and  C8_16 
REMARK       I    between atoms: N2_19  and  C11_21 
REMARK   11  A    between atoms: C11_21  and  O5_23 
REMARK   12  A    between atoms: O5_23  and  C12_24 
ROOT
HETATM    1  N2  UNL     1      17.154  18.532  31.571  1.00  0.00    -0.328 N 
ATOM      2  H2  UNL     1      16.493  17.949  31.057  1.00  0.00     0.165 HD
HETATM    3  C11 UNL     1      18.493  18.107  31.579  1.00  0.00     0.361 C 
HETATM    4  O4  UNL     1      19.346  18.774  32.194  1.00  0.00    -0.238 OA
ENDROOT
BRANCH   1   5
HETATM    5  C6  UNL     1      16.616  19.698  32.208  1.00  0.00     0.143 C 
BRANCH   5   6
HETATM    6  C5  UNL     1      16.765  20.927  31.311  1.00  0.00     0.341 C 
BRANCH   6   7
HETATM    7  N1  UNL     1      15.508  21.445  30.868  1.00  0.00    -0.044 N 
ATOM      8  H12 UNL     1      15.373  22.395  31.215  1.00  0.00     0.280 HD
ATOM      9  H11 UNL     1      14.741  20.974  31.346  1.00  0.00     0.280 HD
BRANCH   7  10
HETATM   10  C4  UNL     1      15.316  21.399  29.444  1.00  0.00     0.274 C 
BRANCH  10  11
HETATM   11  C3  UNL     1      14.871  22.789  28.970  1.00  0.00     0.212 C 
BRANCH  11  12
HETATM   12  C2  UNL     1      15.427  23.067  27.622  1.00  0.00     0.153 C 
HETATM   13  C1  UNL     1      15.347  22.063  26.551  1.00  0.00     0.093 C 
HETATM   14  O1  UNL     1      15.963  24.139  27.374  1.00  0.00    -0.296 OA
ENDBRANCH  11  12
BRANCH  11  15
HETATM   15  O2  UNL     1      13.482  22.803  28.891  1.00  0.00    -0.386 OA
ATOM     16  H2  UNL     1      13.225  22.602  27.999  1.00  0.00     0.210 HD
ENDBRANCH  11  15
ENDBRANCH  10  11
ENDBRANCH   7  10
ENDBRANCH   6   7
BRANCH   6  17
HETATM   17  O3  UNL     1      17.497  21.911  31.938  1.00  0.00    -0.368 OA
ATOM     18  H3  UNL     1      18.246  22.157  31.407  1.00  0.00     0.212 HD
ENDBRANCH   6  17
ENDBRANCH   5   6
BRANCH   5  19
HETATM   19  C7  UNL     1      15.180  19.455  32.551  1.00  0.00     0.033 C 
BRANCH  19  20
HETATM   20  C8  UNL     1      14.640  18.148  32.073  1.00  0.00    -0.021 C 
HETATM   21  C9  UNL     1      13.851  17.445  33.141  1.00  0.00     0.009 C 
HETATM   22  C10 UNL     1      13.707  18.368  30.892  1.00  0.00     0.009 C 
ENDBRANCH  19  20
ENDBRANCH   5  19
ENDBRANCH   1   5
BRANCH   3  23
HETATM   23  O5  UNL     1      18.957  16.978  30.945  1.00  0.00    -0.296 OA
BRANCH  23  24
HETATM   24  C12 UNL     1      18.808  15.692  31.444  1.00  0.00     0.166 C 
HETATM   25  C13 UNL     1      20.069  15.170  32.105  1.00  0.00     0.204 C 
HETATM   26  O6  UNL     1      19.683  14.725  33.381  1.00  0.00    -0.358 OA
HETATM   27  C14 UNL     1      18.369  14.277  33.211  1.00  0.00     0.267 C 
HETATM   28  O7  UNL     1      17.729  14.154  34.431  1.00  0.00    -0.350 OA
HETATM   29  C24 UNL     1      17.793  15.470  32.471  1.00  0.00     0.077 C 
HETATM   30  C15 UNL     1      16.366  13.964  34.290  1.00  0.00     0.061 C 
HETATM   31  C16 UNL     1      15.668  15.033  35.087  1.00  0.00     0.046 C 
HETATM   32  C17 UNL     1      16.041  12.624  34.935  1.00  0.00     0.046 C 
HETATM   33  C18 UNL     1      16.009  13.891  32.880  1.00  0.00     0.025 C 
HETATM   34  C19 UNL     1      14.571  13.897  32.481  1.00  0.00     0.013 C 
HETATM   35  C23 UNL     1      16.425  15.148  32.088  1.00  0.00     0.008 C 
HETATM   36  C20 UNL     1      14.756  13.889  30.952  1.00  0.00    -0.009 A 
HETATM   37  C21 UNL     1      14.771  15.130  30.179  1.00  0.00     0.010 A 
HETATM   38  C22 UNL     1      16.103  14.661  30.737  1.00  0.00    -0.005 A 
ENDBRANCH  23  24
ENDBRANCH   3  23
TORSDOF 12
ENDMDL
MODEL 5
REMARK VINA RESULT: -8.880341666      1.590      7.057
REMARK  12 active torsions:
REMARK  status: ('A' for Active; 'I' for Inactive)
REMARK    1  A    between atoms: C2_2  and  C3_4 
REMARK    2  A    between atoms: C3_4  and  O2_5 
REMARK    3  A    between atoms: C3_4  and  C4_7 
REMARK    4  A    between atoms: C4_7  and  N1_8 
REMARK    5  A    between atoms: N1_8  and  C5_11 
REMARK    6  A    between atoms: C5_11  and  O3_12 
REMARK    7  A    between atoms: C5_11  and  C6_14 
REMARK    8  A    between atoms: C6_14  and  C7_15 
REMARK    9  A    between atoms: C6_14  and  N2_19 
REMARK   10  A    between atoms: C7_15  and  C8_16 
REMARK       I    between atoms: N2_19  and  C11_21 
REMARK   11  A    between atoms: C11_21  and  O5_23 
REMARK   12  A    between atoms: O5_23  and  C12_24 
ROOT
HETATM    1  N2  UNL     1      18.057  17.679  30.819  1.00  0.00    -0.328 N 
ATOM      2  H2  UNL     1      17.952  18.096  29.894  1.00  0.00     0.165 HD
HETATM    3  C11 UNL     1      18.124  18.569  31.905  1.00  0.00     0.361 C 
HETATM    4  O4  UNL     1      18.257  18.120  33.059  1.00  0.00    -0.238 OA
ENDROOT
BRANCH   1   5
HETATM    5  C6  UNL     1      18.120  16.248  30.872  1.00  0.00     0.143 C 
BRANCH   5   6
HETATM    6  C5  UNL     1      19.282  15.786  31.751  1.00  0.00     0.341 C 
BRANCH   6   7
HETATM    7  N1  UNL     1      18.860  15.375  33.055  1.00  0.00    -0.044 N 
ATOM      8  H12 UNL     1      17.845  15.286  33.089  1.00  0.00     0.280 HD
ATOM      9  H11 UNL     1      18.992  16.131  33.726  1.00  0.00     0.280 HD
BRANCH   7  10
HETATM   10  C4  UNL     1      19.486  14.171  33.528  1.00  0.00     0.274 C 
BRANCH  10  11
HETATM   11  C3  UNL     1      18.415  13.076  33.630  1.00  0.00     0.212 C 
BRANCH  11  12
HETATM   12  C2  UNL     1      17.223  13.597  34.346  1.00  0.00     0.153 C 
HETATM   13  C1  UNL     1      15.890  13.026  34.104  1.00  0.00     0.093 C 
HETATM   14  O1  UNL     1      17.326  14.510  35.153  1.00  0.00    -0.296 OA
ENDBRANCH  11  12
BRANCH  11  15
HETATM   15  O2  UNL     1      18.038  12.709  32.342  1.00  0.00    -0.386 OA
ATOM     16  H2  UNL     1      18.758  12.244  31.934  1.00  0.00     0.210 HD
ENDBRANCH  11  15
ENDBRANCH  10  11
ENDBRANCH   7  10
ENDBRANCH   6   7
BRANCH   6  17
HETATM   17  O3  UNL     1      19.995  14.781  31.138  1.00  0.00    -0.368 OA
ATOM     18  H3  UNL     1      19.426  14.261  30.582  1.00  0.00     0.212 HD
ENDBRANCH   6  17
ENDBRANCH   5   6
BRANCH   5  19
HETATM   19  C7  UNL     1      16.816  15.716  31.381  1.00  0.00     0.033 C 
BRANCH  19  20
HETATM   20  C8  UNL     1      15.933  15.128  30.331  1.00  0.00    -0.021 C 
HETATM   21  C9  UNL     1      15.217  13.903  30.825  1.00  0.00     0.009 C 
HETATM   22  C10 UNL     1      14.873  16.135  29.916  1.00  0.00     0.009 C 
ENDBRANCH  19  20
ENDBRANCH   5  19
ENDBRANCH   1   5
BRANCH   3  23
HETATM   23  O5  UNL     1      18.053  19.937  31.798  1.00  0.00    -0.296 OA
BRANCH  23  24
HETATM   24  C12 UNL     1      16.870  20.659  31.860  1.00  0.00     0.166 C 
HETATM   25  C13 UNL     1      17.045  22.110  31.453  1.00  0.00     0.204 C 
HETATM   26  O6  UNL     1      16.073  22.356  30.468  1.00  0.00    -0.358 OA
HETATM   27  C14 UNL     1      15.004  21.525  30.818  1.00  0.00     0.267 C 
HETATM   28  O7  UNL     1      14.129  21.376  29.758  1.00  0.00    -0.350 OA
HETATM   29  C24 UNL     1      15.757  20.224  31.020  1.00  0.00     0.077 C 
HETATM   30  C15 UNL     1      13.207  20.369  29.977  1.00  0.00     0.061 C 
HETATM   31  C16 UNL     1      13.296  19.406  28.824  1.00  0.00     0.046 C 
HETATM   32  C17 UNL     1      11.830  21.016  29.930  1.00  0.00     0.046 C 
HETATM   33  C18 UNL     1      13.395  19.792  31.301  1.00  0.00     0.025 C 
HETATM   34  C19 UNL     1      12.653  18.553  31.678  1.00  0.00     0.013 C 
HETATM   35  C23 UNL     1      14.815  19.228  31.515  1.00  0.00     0.008 C 
HETATM   36  C20 UNL     1      13.257  18.341  33.079  1.00  0.00    -0.009 A 
HETATM   37  C21 UNL     1      14.416  17.473  33.287  1.00  0.00     0.010 A 
HETATM   38  C22 UNL     1      14.706  18.925  32.952  1.00  0.00    -0.005 A 
ENDBRANCH  23  24
ENDBRANCH   3  23
TORSDOF 12
ENDMDL
