MODEL 1
REMARK VINA RESULT: -9.805190133      0.000      0.000
REMARK  14 active torsions:
REMARK  status: ('A' for Active; 'I' for Inactive)
REMARK    1  A    between atoms: S1_2  and  C2_3 
REMARK    2  A    between atoms: C3_6  and  N2_7 
REMARK    3  A    between atoms: C5_9  and  C6_10 
REMARK    4  A    between atoms: C6_10  and  O1_11 
REMARK    5  A    between atoms: O1_11  and  C7_12 
REMARK    6  A    between atoms: C7_12  and  C8_13 
REMARK    7  A    between atoms: C8_13  and  N3_14 
REMARK       I    between atoms: N3_14  and  C9_16 
REMARK    8  A    between atoms: C9_16  and  C10_18 
REMARK    9  A    between atoms: C10_18  and  N4_19 
REMARK       I    between atoms: N4_19  and  C11_21 
REMARK   10  A    between atoms: N8_32  and  C14_33 
REMARK   11  A    between atoms: C16_35  and  O5_36 
REMARK   12  A    between atoms: C17_38  and  N9_39 
REMARK   13  A    between atoms: C20_42  and  N10_43 
REMARK   14  A    between atoms: C23_51  and  N12_52 
ROOT
HETATM    1  C2  UNL     1      44.065  34.641 -12.140  1.00  0.00     0.167 A 
HETATM    2  N1  UNL     1      45.096  34.452 -11.265  1.00  0.00    -0.168 N 
ATOM      3  H1  UNL     1      44.978  33.781 -10.506  1.00  0.00     0.186 HD
HETATM    4  C3  UNL     1      46.262  35.117 -11.366  1.00  0.00     0.710 A 
HETATM    5  N7  UNL     1      46.381  35.987 -12.374  1.00  0.00    -0.139 N 
ATOM      6  H7  UNL     1      47.246  36.513 -12.491  1.00  0.00     0.189 HD
HETATM    7  C13 UNL     1      45.361  36.170 -13.235  1.00  0.00     0.345 A 
HETATM    8  O4  UNL     1      45.590  37.024 -14.155  1.00  0.00    -0.246 OA
HETATM    9  N8  UNL     1      44.185  35.514 -13.148  1.00  0.00    -0.250 N 
ENDROOT
BRANCH   9  10
HETATM   10  C14 UNL     1      43.175  35.802 -14.133  1.00  0.00     0.247 C 
HETATM   11  C15 UNL     1      42.796  34.711 -15.058  1.00  0.00     0.093 C 
HETATM   12  C16 UNL     1      41.348  34.865 -15.579  1.00  0.00     0.179 C 
HETATM   13  C17 UNL     1      40.455  34.765 -14.414  1.00  0.00     0.127 C 
HETATM   14  C25 UNL     1      40.841  35.666 -13.277  1.00  0.00     0.311 C 
HETATM   15  O7  UNL     1      40.083  35.745 -12.287  1.00  0.00    -0.258 OA
HETATM   16  O8  UNL     1      42.034  36.338 -13.446  1.00  0.00    -0.290 OA
BRANCH  12  17
HETATM   17  O5  UNL     1      41.154  33.696 -16.356  1.00  0.00    -0.389 OA
ATOM     18  H5  UNL     1      40.620  34.001 -17.081  1.00  0.00     0.210 HD
ENDBRANCH  12  17
BRANCH  13  19
HETATM   19  N9  UNL     1      39.073  34.567 -14.615  1.00  0.00    -0.244 N 
HETATM   20  C18 UNL     1      38.382  35.353 -15.462  1.00  0.00     0.122 A 
HETATM   21  C19 UNL     1      37.024  35.195 -15.699  1.00  0.00     0.032 A 
HETATM   22  N13 UNL     1      39.045  36.396 -16.146  1.00  0.00    -0.373 N 
HETATM   23  C20 UNL     1      36.348  34.176 -15.030  1.00  0.00     0.112 A 
HETATM   24  C22 UNL     1      36.262  36.055 -16.637  1.00  0.00     0.081 C 
HETATM   25  N11 UNL     1      37.041  33.403 -14.192  1.00  0.00    -0.294 N 
HETATM   26  C21 UNL     1      38.333  33.593 -13.999  1.00  0.00     0.334 A 
ATOM     27  H11 UNL     1      36.564  32.653 -13.691  1.00  0.00     0.172 HD
HETATM   28  O6  UNL     1      38.981  32.847 -13.196  1.00  0.00    -0.246 OA
HETATM   29  C23 UNL     1      37.037  37.179 -17.231  1.00  0.00     0.205 C 
HETATM   30  C24 UNL     1      38.498  36.818 -17.446  1.00  0.00     0.154 C 
ATOM     31  H13 UNL     1      39.873  36.841 -15.753  1.00  0.00     0.161 HD
BRANCH  23  32
HETATM   32  N10 UNL     1      35.089  33.981 -15.207  1.00  0.00    -0.385 N 
ATOM     33 2H10 UNL     1      34.732  33.041 -15.379  1.00  0.00     0.157 HD
ATOM     34 1H10 UNL     1      34.423  34.752 -15.179  1.00  0.00     0.157 HD
ENDBRANCH  23  32
BRANCH  29  35
HETATM   35  N12 UNL     1      37.005  38.364 -16.402  1.00  0.00    -0.073 N 
ATOM     36 3H12 UNL     1      37.359  38.169 -15.466  1.00  0.00     0.274 HD
ATOM     37 2H12 UNL     1      37.705  39.042 -16.703  1.00  0.00     0.274 HD
ATOM     38 1H12 UNL     1      36.076  38.785 -16.366  1.00  0.00     0.274 HD
ENDBRANCH  29  35
ENDBRANCH  13  19
ENDBRANCH   9  10
BRANCH   1  39
HETATM   39  S1  UNL     1      42.581  33.683 -11.900  1.00  0.00    -0.097 SA
HETATM   40  C1  UNL     1      41.925  34.003 -10.234  1.00  0.00     0.099 C 
ENDBRANCH   1  39
BRANCH   4  41
HETATM   41  N2  UNL     1      47.328  34.894 -10.425  1.00  0.00    -0.081 N 
HETATM   42  C4  UNL     1      47.228  35.272  -9.136  1.00  0.00     0.165 A 
HETATM   43  C5  UNL     1      48.406  34.933  -8.466  1.00  0.00     0.069 A 
HETATM   44  N5  UNL     1      49.168  34.356  -9.408  1.00  0.00    -0.286 N 
HETATM   45  N6  UNL     1      48.499  34.344 -10.574  1.00  0.00    -0.222 N 
ATOM     46  H5  UNL     1      50.106  33.984  -9.263  1.00  0.00     0.188 HD
ATOM     47  H6  UNL     1      48.857  33.960 -11.448  1.00  0.00     0.209 HD
BRANCH  43  48
HETATM   48  C6  UNL     1      48.758  35.152  -7.041  1.00  0.00     0.227 C 
BRANCH  48  49
HETATM   49  O1  UNL     1      49.526  36.259  -6.800  1.00  0.00    -0.384 OA
BRANCH  49  50
HETATM   50  C7  UNL     1      49.014  37.106  -5.822  1.00  0.00     0.187 C 
BRANCH  50  51
HETATM   51  C8  UNL     1      48.456  38.308  -6.552  1.00  0.00     0.148 C 
BRANCH  51  52
HETATM   52  N3  UNL     1      48.160  39.417  -5.693  1.00  0.00    -0.358 N 
HETATM   53  C9  UNL     1      48.659  40.713  -5.945  1.00  0.00     0.235 C 
HETATM   54  O2  UNL     1      49.390  40.911  -6.946  1.00  0.00    -0.272 OA
ATOM     55  H3  UNL     1      47.570  39.265  -4.875  1.00  0.00     0.162 HD
BRANCH  53  56
HETATM   56  C10 UNL     1      48.324  41.849  -5.032  1.00  0.00     0.225 C 
BRANCH  56  57
HETATM   57  N4  UNL     1      49.242  41.887  -3.941  1.00  0.00    -0.353 N 
HETATM   58  C11 UNL     1      49.020  41.168  -2.746  1.00  0.00     0.213 C 
HETATM   59  C12 UNL     1      50.015  41.226  -1.624  1.00  0.00     0.117 C 
HETATM   60  O3  UNL     1      48.008  40.461  -2.567  1.00  0.00    -0.274 OA
ATOM     61  H4  UNL     1      50.087  42.453  -4.027  1.00  0.00     0.162 HD
ENDBRANCH  56  57
ENDBRANCH  53  56
ENDBRANCH  51  52
ENDBRANCH  50  51
ENDBRANCH  49  50
ENDBRANCH  48  49
ENDBRANCH  43  48
ENDBRANCH   4  41
TORSDOF 14
ENDMDL
MODEL 2
REMARK VINA RESULT: -9.788572802      1.120      1.187
REMARK  14 active torsions:
REMARK  status: ('A' for Active; 'I' for Inactive)
REMARK    1  A    between atoms: S1_2  and  C2_3 
REMARK    2  A    between atoms: C3_6  and  N2_7 
REMARK    3  A    between atoms: C5_9  and  C6_10 
REMARK    4  A    between atoms: C6_10  and  O1_11 
REMARK    5  A    between atoms: O1_11  and  C7_12 
REMARK    6  A    between atoms: C7_12  and  C8_13 
REMARK    7  A    between atoms: C8_13  and  N3_14 
REMARK       I    between atoms: N3_14  and  C9_16 
REMARK    8  A    between atoms: C9_16  and  C10_18 
REMARK    9  A    between atoms: C10_18  and  N4_19 
REMARK       I    between atoms: N4_19  and  C11_21 
REMARK   10  A    between atoms: N8_32  and  C14_33 
REMARK   11  A    between atoms: C16_35  and  O5_36 
REMARK   12  A    between atoms: C17_38  and  N9_39 
REMARK   13  A    between atoms: C20_42  and  N10_43 
REMARK   14  A    between atoms: C23_51  and  N12_52 
ROOT
HETATM    1  C2  UNL     1      43.815  34.471 -12.289  1.00  0.00     0.167 A 
HETATM    2  N1  UNL     1      44.829  34.184 -11.422  1.00  0.00    -0.168 N 
ATOM      3  H1  UNL     1      44.685  33.455 -10.723  1.00  0.00     0.186 HD
HETATM    4  C3  UNL     1      46.013  34.824 -11.454  1.00  0.00     0.710 A 
HETATM    5  N7  UNL     1      46.166  35.772 -12.384  1.00  0.00    -0.139 N 
ATOM      6  H7  UNL     1      47.046  36.283 -12.448  1.00  0.00     0.189 HD
HETATM    7  C13 UNL     1      45.162  36.053 -13.238  1.00  0.00     0.345 A 
HETATM    8  O4  UNL     1      45.424  36.974 -14.081  1.00  0.00    -0.246 OA
HETATM    9  N8  UNL     1      43.970  35.422 -13.219  1.00  0.00    -0.250 N 
ENDROOT
BRANCH   9  10
HETATM   10  C14 UNL     1      42.979  35.817 -14.187  1.00  0.00     0.247 C 
HETATM   11  C15 UNL     1      42.600  34.824 -15.216  1.00  0.00     0.093 C 
HETATM   12  C16 UNL     1      41.163  35.048 -15.742  1.00  0.00     0.179 C 
HETATM   13  C17 UNL     1      40.250  34.854 -14.605  1.00  0.00     0.127 C 
HETATM   14  C25 UNL     1      40.630  35.637 -13.383  1.00  0.00     0.311 C 
HETATM   15  O7  UNL     1      39.857  35.634 -12.401  1.00  0.00    -0.258 OA
HETATM   16  O8  UNL     1      41.835  36.304 -13.470  1.00  0.00    -0.290 OA
BRANCH  12  17
HETATM   17  O5  UNL     1      40.965  33.961 -16.629  1.00  0.00    -0.389 OA
ATOM     18  H5  UNL     1      40.660  33.265 -16.058  1.00  0.00     0.210 HD
ENDBRANCH  12  17
BRANCH  13  19
HETATM   19  N9  UNL     1      38.869  34.697 -14.844  1.00  0.00    -0.244 N 
HETATM   20  C18 UNL     1      38.209  35.550 -15.651  1.00  0.00     0.122 A 
HETATM   21  C19 UNL     1      36.854  35.435 -15.923  1.00  0.00     0.032 A 
HETATM   22  N13 UNL     1      38.905  36.621 -16.253  1.00  0.00    -0.373 N 
HETATM   23  C20 UNL     1      36.145  34.389 -15.335  1.00  0.00     0.112 A 
HETATM   24  C22 UNL     1      36.127  36.369 -16.817  1.00  0.00     0.081 C 
HETATM   25  N11 UNL     1      36.807  33.549 -14.536  1.00  0.00    -0.294 N 
HETATM   26  C21 UNL     1      38.098  33.700 -14.307  1.00  0.00     0.334 A 
ATOM     27  H11 UNL     1      36.306  32.778 -14.094  1.00  0.00     0.172 HD
HETATM   28  O6  UNL     1      38.716  32.890 -13.542  1.00  0.00    -0.246 OA
HETATM   29  C23 UNL     1      36.935  37.513 -17.321  1.00  0.00     0.205 C 
HETATM   30  C24 UNL     1      38.393  37.138 -17.532  1.00  0.00     0.154 C 
ATOM     31  H13 UNL     1      39.734  37.023 -15.816  1.00  0.00     0.161 HD
BRANCH  23  32
HETATM   32  N10 UNL     1      34.887  34.230 -15.548  1.00  0.00    -0.385 N 
ATOM     33 2H10 UNL     1      34.261  33.981 -14.783  1.00  0.00     0.157 HD
ATOM     34 1H10 UNL     1      34.487  34.350 -16.478  1.00  0.00     0.157 HD
ENDBRANCH  23  32
BRANCH  29  35
HETATM   35  N12 UNL     1      36.909  38.643 -16.418  1.00  0.00    -0.073 N 
ATOM     36 3H12 UNL     1      35.976  39.052 -16.366  1.00  0.00     0.274 HD
ATOM     37 2H12 UNL     1      37.008  38.341 -15.449  1.00  0.00     0.274 HD
ATOM     38 1H12 UNL     1      37.607  39.346 -16.659  1.00  0.00     0.274 HD
ENDBRANCH  29  35
ENDBRANCH  13  19
ENDBRANCH   9  10
BRANCH   1  39
HETATM   39  S1  UNL     1      42.304  33.535 -12.145  1.00  0.00    -0.097 SA
HETATM   40  C1  UNL     1      41.709  33.617 -10.429  1.00  0.00     0.099 C 
ENDBRANCH   1  39
BRANCH   4  41
HETATM   41  N2  UNL     1      47.060  34.496 -10.523  1.00  0.00    -0.081 N 
HETATM   42  C4  UNL     1      47.907  35.430 -10.049  1.00  0.00     0.165 A 
HETATM   43  C5  UNL     1      48.813  34.826  -9.174  1.00  0.00     0.069 A 
HETATM   44  N5  UNL     1      48.454  33.532  -9.169  1.00  0.00    -0.286 N 
HETATM   45  N6  UNL     1      47.401  33.360  -9.985  1.00  0.00    -0.222 N 
ATOM     46  H5  UNL     1      48.909  32.795  -8.630  1.00  0.00     0.188 HD
ATOM     47  H6  UNL     1      46.936  32.469 -10.159  1.00  0.00     0.209 HD
BRANCH  43  48
HETATM   48  C6  UNL     1      49.925  35.448  -8.414  1.00  0.00     0.227 C 
BRANCH  48  49
HETATM   49  O1  UNL     1      50.233  36.729  -8.789  1.00  0.00    -0.384 OA
BRANCH  49  50
HETATM   50  C7  UNL     1      51.501  37.147  -8.397  1.00  0.00     0.187 C 
BRANCH  50  51
HETATM   51  C8  UNL     1      51.321  38.513  -7.772  1.00  0.00     0.148 C 
BRANCH  51  52
HETATM   52  N3  UNL     1      50.201  38.597  -6.881  1.00  0.00    -0.358 N 
HETATM   53  C9  UNL     1      49.466  39.790  -6.710  1.00  0.00     0.235 C 
HETATM   54  O2  UNL     1      49.798  40.817  -7.352  1.00  0.00    -0.272 OA
ATOM     55  H3  UNL     1      49.926  37.768  -6.353  1.00  0.00     0.162 HD
BRANCH  53  56
HETATM   56  C10 UNL     1      48.300  39.839  -5.777  1.00  0.00     0.225 C 
BRANCH  56  57
HETATM   57  N4  UNL     1      48.755  39.869  -4.426  1.00  0.00    -0.353 N 
HETATM   58  C11 UNL     1      48.967  41.081  -3.731  1.00  0.00     0.213 C 
HETATM   59  C12 UNL     1      49.438  41.071  -2.306  1.00  0.00     0.117 C 
HETATM   60  O3  UNL     1      48.777  42.197  -4.255  1.00  0.00    -0.274 OA
ATOM     61  H4  UNL     1      48.934  38.987  -3.945  1.00  0.00     0.162 HD
ENDBRANCH  56  57
ENDBRANCH  53  56
ENDBRANCH  51  52
ENDBRANCH  50  51
ENDBRANCH  49  50
ENDBRANCH  48  49
ENDBRANCH  43  48
ENDBRANCH   4  41
TORSDOF 14
ENDMDL
MODEL 3
REMARK VINA RESULT: -9.708210290      1.818      2.344
REMARK  14 active torsions:
REMARK  status: ('A' for Active; 'I' for Inactive)
REMARK    1  A    between atoms: S1_2  and  C2_3 
REMARK    2  A    between atoms: C3_6  and  N2_7 
REMARK    3  A    between atoms: C5_9  and  C6_10 
REMARK    4  A    between atoms: C6_10  and  O1_11 
REMARK    5  A    between atoms: O1_11  and  C7_12 
REMARK    6  A    between atoms: C7_12  and  C8_13 
REMARK    7  A    between atoms: C8_13  and  N3_14 
REMARK       I    between atoms: N3_14  and  C9_16 
REMARK    8  A    between atoms: C9_16  and  C10_18 
REMARK    9  A    between atoms: C10_18  and  N4_19 
REMARK       I    between atoms: N4_19  and  C11_21 
REMARK   10  A    between atoms: N8_32  and  C14_33 
REMARK   11  A    between atoms: C16_35  and  O5_36 
REMARK   12  A    between atoms: C17_38  and  N9_39 
REMARK   13  A    between atoms: C20_42  and  N10_43 
REMARK   14  A    between atoms: C23_51  and  N12_52 
ROOT
HETATM    1  C2  UNL     1      44.049  34.604 -12.211  1.00  0.00     0.167 A 
HETATM    2  N1  UNL     1      45.075  34.417 -11.330  1.00  0.00    -0.168 N 
ATOM      3  H1  UNL     1      44.961  33.730 -10.584  1.00  0.00     0.186 HD
HETATM    4  C3  UNL     1      46.230  35.103 -11.407  1.00  0.00     0.710 A 
HETATM    5  N7  UNL     1      46.344  35.993 -12.398  1.00  0.00    -0.139 N 
ATOM      6  H7  UNL     1      47.201  36.536 -12.498  1.00  0.00     0.189 HD
HETATM    7  C13 UNL     1      45.328  36.175 -13.265  1.00  0.00     0.345 A 
HETATM    8  O4  UNL     1      45.551  37.050 -14.168  1.00  0.00    -0.246 OA
HETATM    9  N8  UNL     1      44.163  35.498 -13.202  1.00  0.00    -0.250 N 
ENDROOT
BRANCH   9  10
HETATM   10  C14 UNL     1      43.157  35.786 -14.191  1.00  0.00     0.247 C 
HETATM   11  C15 UNL     1      42.773  34.692 -15.110  1.00  0.00     0.093 C 
HETATM   12  C16 UNL     1      41.327  34.853 -15.635  1.00  0.00     0.179 C 
HETATM   13  C17 UNL     1      40.431  34.767 -14.472  1.00  0.00     0.127 C 
HETATM   14  C25 UNL     1      40.820  35.672 -13.340  1.00  0.00     0.311 C 
HETATM   15  O7  UNL     1      40.061  35.762 -12.352  1.00  0.00    -0.258 OA
HETATM   16  O8  UNL     1      42.019  36.335 -13.511  1.00  0.00    -0.290 OA
BRANCH  12  17
HETATM   17  O5  UNL     1      41.127  33.681 -16.406  1.00  0.00    -0.389 OA
ATOM     18  H5  UNL     1      40.185  33.558 -16.378  1.00  0.00     0.210 HD
ENDBRANCH  12  17
BRANCH  13  19
HETATM   19  N9  UNL     1      39.048  34.577 -14.676  1.00  0.00    -0.244 N 
HETATM   20  C18 UNL     1      38.361  35.373 -15.517  1.00  0.00     0.122 A 
HETATM   21  C19 UNL     1      37.003  35.224 -15.755  1.00  0.00     0.032 A 
HETATM   22  N13 UNL     1      39.029  36.419 -16.191  1.00  0.00    -0.373 N 
HETATM   23  C20 UNL     1      36.321  34.203 -15.095  1.00  0.00     0.112 A 
HETATM   24  C22 UNL     1      36.245  36.095 -16.686  1.00  0.00     0.081 C 
HETATM   25  N11 UNL     1      37.010  33.419 -14.263  1.00  0.00    -0.294 N 
HETATM   26  C21 UNL     1      38.303  33.601 -14.068  1.00  0.00     0.334 A 
ATOM     27  H11 UNL     1      36.530  32.667 -13.769  1.00  0.00     0.172 HD
HETATM   28  O6  UNL     1      38.948  32.845 -13.271  1.00  0.00    -0.246 OA
HETATM   29  C23 UNL     1      37.026  37.221 -17.269  1.00  0.00     0.205 C 
HETATM   30  C24 UNL     1      38.486  36.855 -17.487  1.00  0.00     0.154 C 
ATOM     31  H13 UNL     1      39.860  36.857 -15.794  1.00  0.00     0.161 HD
BRANCH  23  32
HETATM   32  N10 UNL     1      35.062  34.014 -15.275  1.00  0.00    -0.385 N 
ATOM     33 2H10 UNL     1      34.487  33.626 -14.528  1.00  0.00     0.157 HD
ATOM     34 1H10 UNL     1      34.611  34.248 -16.159  1.00  0.00     0.157 HD
ENDBRANCH  23  32
BRANCH  29  35
HETATM   35  N12 UNL     1      36.999  38.399 -16.431  1.00  0.00    -0.073 N 
ATOM     36 3H12 UNL     1      36.065  38.564 -16.057  1.00  0.00     0.274 HD
ATOM     37 2H12 UNL     1      37.499  38.240 -15.556  1.00  0.00     0.274 HD
ATOM     38 1H12 UNL     1      37.355  39.224 -16.914  1.00  0.00     0.274 HD
ENDBRANCH  29  35
ENDBRANCH  13  19
ENDBRANCH   9  10
BRANCH   1  39
HETATM   39  S1  UNL     1      42.579  33.617 -12.002  1.00  0.00    -0.097 SA
HETATM   40  C1  UNL     1      41.901  33.896 -10.338  1.00  0.00     0.099 C 
ENDBRANCH   1  39
BRANCH   4  41
HETATM   41  N2  UNL     1      47.290  34.881 -10.460  1.00  0.00    -0.081 N 
HETATM   42  C4  UNL     1      47.127  35.115  -9.143  1.00  0.00     0.165 A 
HETATM   43  C5  UNL     1      48.316  34.815  -8.474  1.00  0.00     0.069 A 
HETATM   44  N5  UNL     1      49.149  34.409  -9.445  1.00  0.00    -0.286 N 
HETATM   45  N6  UNL     1      48.510  34.456 -10.626  1.00  0.00    -0.222 N 
ATOM     46  H5  UNL     1      50.114  34.110  -9.308  1.00  0.00     0.188 HD
ATOM     47  H6  UNL     1      48.921  34.198 -11.523  1.00  0.00     0.209 HD
BRANCH  43  48
HETATM   48  C6  UNL     1      48.614  34.917  -7.024  1.00  0.00     0.227 C 
BRANCH  48  49
HETATM   49  O1  UNL     1      49.306  36.040  -6.655  1.00  0.00    -0.384 OA
BRANCH  49  50
HETATM   50  C7  UNL     1      48.517  37.034  -6.086  1.00  0.00     0.187 C 
BRANCH  50  51
HETATM   51  C8  UNL     1      48.767  38.287  -6.896  1.00  0.00     0.148 C 
BRANCH  51  52
HETATM   52  N3  UNL     1      50.010  38.273  -7.611  1.00  0.00    -0.358 N 
HETATM   53  C9  UNL     1      50.676  39.462  -7.978  1.00  0.00     0.235 C 
HETATM   54  O2  UNL     1      50.171  40.572  -7.678  1.00  0.00    -0.272 OA
ATOM     55  H3  UNL     1      50.425  37.376  -7.863  1.00  0.00     0.162 HD
BRANCH  53  56
HETATM   56  C10 UNL     1      51.974  39.410  -8.718  1.00  0.00     0.225 C 
BRANCH  56  57
HETATM   57  N4  UNL     1      53.045  39.159  -7.811  1.00  0.00    -0.353 N 
HETATM   58  C11 UNL     1      53.351  37.859  -7.352  1.00  0.00     0.213 C 
HETATM   59  C12 UNL     1      54.493  37.633  -6.404  1.00  0.00     0.117 C 
HETATM   60  O3  UNL     1      52.702  36.853  -7.703  1.00  0.00    -0.274 OA
ATOM     61  H4  UNL     1      53.609  39.944  -7.483  1.00  0.00     0.162 HD
ENDBRANCH  56  57
ENDBRANCH  53  56
ENDBRANCH  51  52
ENDBRANCH  50  51
ENDBRANCH  49  50
ENDBRANCH  48  49
ENDBRANCH  43  48
ENDBRANCH   4  41
TORSDOF 14
ENDMDL
MODEL 4
REMARK VINA RESULT: -9.447420689      1.408      1.611
REMARK  14 active torsions:
REMARK  status: ('A' for Active; 'I' for Inactive)
REMARK    1  A    between atoms: S1_2  and  C2_3 
REMARK    2  A    between atoms: C3_6  and  N2_7 
REMARK    3  A    between atoms: C5_9  and  C6_10 
REMARK    4  A    between atoms: C6_10  and  O1_11 
REMARK    5  A    between atoms: O1_11  and  C7_12 
REMARK    6  A    between atoms: C7_12  and  C8_13 
REMARK    7  A    between atoms: C8_13  and  N3_14 
REMARK       I    between atoms: N3_14  and  C9_16 
REMARK    8  A    between atoms: C9_16  and  C10_18 
REMARK    9  A    between atoms: C10_18  and  N4_19 
REMARK       I    between atoms: N4_19  and  C11_21 
REMARK   10  A    between atoms: N8_32  and  C14_33 
REMARK   11  A    between atoms: C16_35  and  O5_36 
REMARK   12  A    between atoms: C17_38  and  N9_39 
REMARK   13  A    between atoms: C20_42  and  N10_43 
REMARK   14  A    between atoms: C23_51  and  N12_52 
ROOT
HETATM    1  C2  UNL     1      43.900  34.604 -11.972  1.00  0.00     0.167 A 
HETATM    2  N1  UNL     1      44.864  34.476 -11.015  1.00  0.00    -0.168 N 
ATOM      3  H1  UNL     1      44.707  33.827 -10.244  1.00  0.00     0.186 HD
HETATM    4  C3  UNL     1      46.015  35.174 -11.048  1.00  0.00     0.710 A 
HETATM    5  N7  UNL     1      46.187  36.014 -12.073  1.00  0.00    -0.139 N 
ATOM      6  H7  UNL     1      47.044  36.563 -12.141  1.00  0.00     0.189 HD
HETATM    7  C13 UNL     1      45.233  36.138 -13.016  1.00  0.00     0.345 A 
HETATM    8  O4  UNL     1      45.509  36.968 -13.945  1.00  0.00    -0.246 OA
HETATM    9  N8  UNL     1      44.074  35.448 -12.998  1.00  0.00    -0.250 N 
ENDROOT
BRANCH   9  10
HETATM   10  C14 UNL     1      43.135  35.672 -14.067  1.00  0.00     0.247 C 
HETATM   11  C15 UNL     1      42.762  34.507 -14.899  1.00  0.00     0.093 C 
HETATM   12  C16 UNL     1      41.354  34.663 -15.521  1.00  0.00     0.179 C 
HETATM   13  C17 UNL     1      40.392  34.720 -14.410  1.00  0.00     0.127 C 
HETATM   14  C25 UNL     1      40.752  35.717 -13.348  1.00  0.00     0.311 C 
HETATM   15  O7  UNL     1      39.943  35.927 -12.420  1.00  0.00    -0.258 OA
HETATM   16  O8  UNL     1      41.983  36.321 -13.510  1.00  0.00    -0.290 OA
BRANCH  12  17
HETATM   17  O5  UNL     1      41.152  33.429 -16.188  1.00  0.00    -0.389 OA
ATOM     18  H5  UNL     1      40.412  33.050 -15.728  1.00  0.00     0.210 HD
ENDBRANCH  12  17
BRANCH  13  19
HETATM   19  N9  UNL     1      39.016  34.556 -14.675  1.00  0.00    -0.244 N 
HETATM   20  C18 UNL     1      38.379  35.376 -15.534  1.00  0.00     0.122 A 
HETATM   21  C19 UNL     1      37.030  35.252 -15.833  1.00  0.00     0.032 A 
HETATM   22  N13 UNL     1      39.093  36.418 -16.164  1.00  0.00    -0.373 N 
HETATM   23  C20 UNL     1      36.304  34.235 -15.217  1.00  0.00     0.112 A 
HETATM   24  C22 UNL     1      36.328  36.149 -16.783  1.00  0.00     0.081 C 
HETATM   25  N11 UNL     1      36.944  33.428 -14.367  1.00  0.00    -0.294 N 
HETATM   26  C21 UNL     1      38.229  33.585 -14.114  1.00  0.00     0.334 A 
ATOM     27  H11 UNL     1      36.430  32.678 -13.905  1.00  0.00     0.172 HD
HETATM   28  O6  UNL     1      38.826  32.807 -13.301  1.00  0.00    -0.246 OA
HETATM   29  C23 UNL     1      37.152  37.269 -17.316  1.00  0.00     0.205 C 
HETATM   30  C24 UNL     1      38.613  36.881 -17.476  1.00  0.00     0.154 C 
ATOM     31  H13 UNL     1      39.913  36.837 -15.725  1.00  0.00     0.161 HD
BRANCH  23  32
HETATM   32  N10 UNL     1      35.051  34.070 -15.453  1.00  0.00    -0.385 N 
ATOM     33 2H10 UNL     1      34.383  34.809 -15.235  1.00  0.00     0.157 HD
ATOM     34 1H10 UNL     1      34.696  33.206 -15.862  1.00  0.00     0.157 HD
ENDBRANCH  23  32
BRANCH  29  35
HETATM   35  N12 UNL     1      37.108  38.436 -16.463  1.00  0.00    -0.073 N 
ATOM     36 3H12 UNL     1      36.147  38.721 -16.277  1.00  0.00     0.274 HD
ATOM     37 2H12 UNL     1      37.397  38.208 -15.512  1.00  0.00     0.274 HD
ATOM     38 1H12 UNL     1      37.657  39.210 -16.839  1.00  0.00     0.274 HD
ENDBRANCH  29  35
ENDBRANCH  13  19
ENDBRANCH   9  10
BRANCH   1  39
HETATM   39  S1  UNL     1      42.429  33.608 -11.815  1.00  0.00    -0.097 SA
HETATM   40  C1  UNL     1      41.649  33.943 -10.207  1.00  0.00     0.099 C 
ENDBRANCH   1  39
BRANCH   4  41
HETATM   41  N2  UNL     1      47.009  35.014 -10.020  1.00  0.00    -0.081 N 
HETATM   42  C4  UNL     1      48.291  34.719 -10.311  1.00  0.00     0.165 A 
HETATM   43  C5  UNL     1      49.020  34.623  -9.124  1.00  0.00     0.069 A 
HETATM   44  N5  UNL     1      48.119  34.872  -8.161  1.00  0.00    -0.286 N 
HETATM   45  N6  UNL     1      46.921  35.104  -8.724  1.00  0.00    -0.222 N 
ATOM     46  H5  UNL     1      48.312  34.883  -7.159  1.00  0.00     0.188 HD
ATOM     47  H6  UNL     1      46.066  35.318  -8.210  1.00  0.00     0.209 HD
BRANCH  43  48
HETATM   48  C6  UNL     1      50.461  34.316  -8.942  1.00  0.00     0.227 C 
BRANCH  48  49
HETATM   49  O1  UNL     1      51.301  35.388  -9.081  1.00  0.00    -0.384 OA
BRANCH  49  50
HETATM   50  C7  UNL     1      51.410  36.178  -7.941  1.00  0.00     0.187 C 
BRANCH  50  51
HETATM   51  C8  UNL     1      51.106  37.594  -8.377  1.00  0.00     0.148 C 
BRANCH  51  52
HETATM   52  N3  UNL     1      50.155  38.264  -7.539  1.00  0.00    -0.358 N 
HETATM   53  C9  UNL     1      50.170  39.664  -7.360  1.00  0.00     0.235 C 
HETATM   54  O2  UNL     1      51.041  40.353  -7.945  1.00  0.00    -0.272 OA
ATOM     55  H3  UNL     1      49.446  37.712  -7.056  1.00  0.00     0.162 HD
BRANCH  53  56
HETATM   56  C10 UNL     1      49.160  40.330  -6.483  1.00  0.00     0.225 C 
BRANCH  56  57
HETATM   57  N4  UNL     1      48.610  39.387  -5.565  1.00  0.00    -0.353 N 
HETATM   58  C11 UNL     1      47.475  39.679  -4.777  1.00  0.00     0.213 C 
HETATM   59  C12 UNL     1      46.920  38.656  -3.829  1.00  0.00     0.117 C 
HETATM   60  O3  UNL     1      46.887  40.778  -4.828  1.00  0.00    -0.274 OA
ATOM     61  H4  UNL     1      49.051  38.471  -5.475  1.00  0.00     0.162 HD
ENDBRANCH  56  57
ENDBRANCH  53  56
ENDBRANCH  51  52
ENDBRANCH  50  51
ENDBRANCH  49  50
ENDBRANCH  48  49
ENDBRANCH  43  48
ENDBRANCH   4  41
TORSDOF 14
ENDMDL
MODEL 5
REMARK VINA RESULT: -9.266670072      2.542      3.361
REMARK  14 active torsions:
REMARK  status: ('A' for Active; 'I' for Inactive)
REMARK    1  A    between atoms: S1_2  and  C2_3 
REMARK    2  A    between atoms: C3_6  and  N2_7 
REMARK    3  A    between atoms: C5_9  and  C6_10 
REMARK    4  A    between atoms: C6_10  and  O1_11 
REMARK    5  A    between atoms: O1_11  and  C7_12 
REMARK    6  A    between atoms: C7_12  and  C8_13 
REMARK    7  A    between atoms: C8_13  and  N3_14 
REMARK       I    between atoms: N3_14  and  C9_16 
REMARK    8  A    between atoms: C9_16  and  C10_18 
REMARK    9  A    between atoms: C10_18  and  N4_19 
REMARK       I    between atoms: N4_19  and  C11_21 
REMARK   10  A    between atoms: N8_32  and  C14_33 
REMARK   11  A    between atoms: C16_35  and  O5_36 
REMARK   12  A    between atoms: C17_38  and  N9_39 
REMARK   13  A    between atoms: C20_42  and  N10_43 
REMARK   14  A    between atoms: C23_51  and  N12_52 
ROOT
HETATM    1  C2  UNL     1      42.871  34.932 -13.119  1.00  0.00     0.167 A 
HETATM    2  N1  UNL     1      44.187  34.997 -12.762  1.00  0.00    -0.168 N 
ATOM      3  H1  UNL     1      44.830  35.527 -13.350  1.00  0.00     0.186 HD
HETATM    4  C3  UNL     1      44.670  34.388 -11.662  1.00  0.00     0.710 A 
HETATM    5  N7  UNL     1      43.799  33.704 -10.914  1.00  0.00    -0.139 N 
ATOM      6  H7  UNL     1      44.117  33.227 -10.072  1.00  0.00     0.189 HD
HETATM    7  C13 UNL     1      42.500  33.643 -11.272  1.00  0.00     0.345 A 
HETATM    8  O4  UNL     1      41.764  32.962 -10.481  1.00  0.00    -0.246 OA
HETATM    9  N8  UNL     1      42.000  34.245 -12.369  1.00  0.00    -0.250 N 
ENDROOT
BRANCH   9  10
HETATM   10  C14 UNL     1      40.593  34.102 -12.639  1.00  0.00     0.247 C 
HETATM   11  C15 UNL     1      39.975  35.078 -13.564  1.00  0.00     0.093 C 
HETATM   12  C16 UNL     1      38.736  34.496 -14.283  1.00  0.00     0.179 C 
HETATM   13  C17 UNL     1      39.201  33.367 -15.103  1.00  0.00     0.127 C 
HETATM   14  C25 UNL     1      40.045  32.380 -14.351  1.00  0.00     0.311 C 
HETATM   15  O7  UNL     1      40.394  31.326 -14.924  1.00  0.00    -0.258 OA
HETATM   16  O8  UNL     1      40.362  32.750 -13.059  1.00  0.00    -0.290 OA
BRANCH  12  17
HETATM   17  O5  UNL     1      38.357  35.531 -15.173  1.00  0.00    -0.389 OA
ATOM     18  H5  UNL     1      37.408  35.509 -15.144  1.00  0.00     0.210 HD
ENDBRANCH  12  17
BRANCH  13  19
HETATM   19  N9  UNL     1      38.353  32.836 -16.097  1.00  0.00    -0.244 N 
HETATM   20  C18 UNL     1      38.763  32.751 -17.378  1.00  0.00     0.122 A 
HETATM   21  C19 UNL     1      37.969  32.231 -18.390  1.00  0.00     0.032 A 
HETATM   22  N13 UNL     1      40.051  33.211 -17.731  1.00  0.00    -0.373 N 
HETATM   23  C20 UNL     1      36.692  31.777 -18.066  1.00  0.00     0.112 A 
HETATM   24  C22 UNL     1      38.421  32.130 -19.799  1.00  0.00     0.081 C 
HETATM   25  N11 UNL     1      36.294  31.867 -16.795  1.00  0.00    -0.294 N 
HETATM   26  C21 UNL     1      37.086  32.370 -15.866  1.00  0.00     0.334 A 
ATOM     27  H11 UNL     1      35.363  31.542 -16.538  1.00  0.00     0.172 HD
HETATM   28  O6  UNL     1      36.692  32.448 -14.657  1.00  0.00    -0.246 OA
HETATM   29  C23 UNL     1      39.756  32.729 -20.076  1.00  0.00     0.205 C 
HETATM   30  C24 UNL     1      40.703  32.591 -18.895  1.00  0.00     0.154 C 
ATOM     31  H13 UNL     1      40.512  33.947 -17.198  1.00  0.00     0.161 HD
BRANCH  23  32
HETATM   32  N10 UNL     1      35.910  31.286 -18.960  1.00  0.00    -0.385 N 
ATOM     33 2H10 UNL     1      35.825  30.277 -19.074  1.00  0.00     0.157 HD
ATOM     34 1H10 UNL     1      35.358  31.889 -19.571  1.00  0.00     0.157 HD
ENDBRANCH  23  32
BRANCH  29  35
HETATM   35  N12 UNL     1      39.669  34.138 -20.394  1.00  0.00    -0.073 N 
ATOM     36 3H12 UNL     1      38.700  34.423 -20.540  1.00  0.00     0.274 HD
ATOM     37 2H12 UNL     1      39.888  34.713 -19.581  1.00  0.00     0.274 HD
ATOM     38 1H12 UNL     1      40.252  34.390 -21.192  1.00  0.00     0.274 HD
ENDBRANCH  29  35
ENDBRANCH  13  19
ENDBRANCH   9  10
BRANCH   1  39
HETATM   39  S1  UNL     1      42.363  35.799 -14.593  1.00  0.00    -0.097 SA
HETATM   40  C1  UNL     1      42.458  34.669 -16.014  1.00  0.00     0.099 C 
ENDBRANCH   1  39
BRANCH   4  41
HETATM   41  N2  UNL     1      46.064  34.476 -11.317  1.00  0.00    -0.081 N 
HETATM   42  C4  UNL     1      46.476  35.052 -10.170  1.00  0.00     0.165 A 
HETATM   43  C5  UNL     1      47.871  34.995 -10.105  1.00  0.00     0.069 A 
HETATM   44  N5  UNL     1      48.230  34.375 -11.241  1.00  0.00    -0.286 N 
HETATM   45  N6  UNL     1      47.129  34.074 -11.949  1.00  0.00    -0.222 N 
ATOM     46  H5  UNL     1      49.188  34.166 -11.522  1.00  0.00     0.188 HD
ATOM     47  H6  UNL     1      47.127  33.600 -12.852  1.00  0.00     0.209 HD
BRANCH  43  48
HETATM   48  C6  UNL     1      48.770  35.499  -9.038  1.00  0.00     0.227 C 
BRANCH  48  49
HETATM   49  O1  UNL     1      48.561  34.951  -7.801  1.00  0.00    -0.384 OA
BRANCH  49  50
HETATM   50  C7  UNL     1      49.032  35.727  -6.747  1.00  0.00     0.187 C 
BRANCH  50  51
HETATM   51  C8  UNL     1      48.683  37.159  -7.088  1.00  0.00     0.148 C 
BRANCH  51  52
HETATM   52  N3  UNL     1      47.944  37.833  -6.061  1.00  0.00    -0.358 N 
HETATM   53  C9  UNL     1      48.066  39.221  -5.838  1.00  0.00     0.235 C 
HETATM   54  O2  UNL     1      48.847  39.896  -6.554  1.00  0.00    -0.272 OA
ATOM     55  H3  UNL     1      47.311  37.292  -5.472  1.00  0.00     0.162 HD
BRANCH  53  56
HETATM   56  C10 UNL     1      47.276  39.892  -4.762  1.00  0.00     0.225 C 
BRANCH  56  57
HETATM   57  N4  UNL     1      48.063  40.014  -3.579  1.00  0.00    -0.353 N 
HETATM   58  C11 UNL     1      48.839  41.163  -3.307  1.00  0.00     0.213 C 
HETATM   59  C12 UNL     1      49.647  41.257  -2.046  1.00  0.00     0.117 C 
HETATM   60  O3  UNL     1      48.890  42.137  -4.085  1.00  0.00    -0.274 OA
ATOM     61  H4  UNL     1      48.066  39.246  -2.907  1.00  0.00     0.162 HD
ENDBRANCH  56  57
ENDBRANCH  53  56
ENDBRANCH  51  52
ENDBRANCH  50  51
ENDBRANCH  49  50
ENDBRANCH  48  49
ENDBRANCH  43  48
ENDBRANCH   4  41
TORSDOF 14
ENDMDL
