MODEL 1
REMARK VINA RESULT: -5.618725762      0.000      0.000
REMARK  6 active torsions:
REMARK  status: ('A' for Active; 'I' for Inactive)
REMARK    1  A    between atoms: C1_2  and  N1_3 
REMARK    2  A    between atoms: C1_2  and  N3_13 
REMARK    3  A    between atoms: N1_3  and  C2_5 
REMARK    4  A    between atoms: C2_5  and  C3_6 
REMARK    5  A    between atoms: C3_6  and  N2_7 
REMARK    6  A    between atoms: N3_13  and  C8_15 
ROOT
HETATM    1  N1  UNL     1     -18.022   2.825 -17.021  1.00  0.00    -0.366 N 
ATOM      2  H1  UNL     1     -17.287   3.533 -17.015  1.00  0.00     0.161 HD
ENDROOT
BRANCH   1   3
HETATM    3  C1  UNL     1     -18.770   2.596 -15.844  1.00  0.00     0.167 C 
HETATM    4  S1  UNL     1     -17.986   1.985 -14.533  1.00  0.00    -0.041 SA
BRANCH   3   5
HETATM    5  N3  UNL     1     -20.170   2.869 -15.786  1.00  0.00    -0.363 N 
ATOM      6  H3  UNL     1     -20.508   3.826 -15.680  1.00  0.00     0.162 HD
BRANCH   5   7
HETATM    7  C8  UNL     1     -21.099   1.775 -15.880  1.00  0.00     0.084 A 
HETATM    8  C9  UNL     1     -22.533   2.107 -15.499  1.00  0.00     0.027 A 
HETATM    9  C10 UNL     1     -22.144   1.720 -16.918  1.00  0.00     0.027 A 
ENDBRANCH   5   7
ENDBRANCH   3   5
ENDBRANCH   1   3
BRANCH   1  10
HETATM   10  C2  UNL     1     -18.271   2.092 -18.216  1.00  0.00     0.141 C 
BRANCH  10  11
HETATM   11  C3  UNL     1     -17.982   0.623 -18.154  1.00  0.00     0.136 C 
BRANCH  11  12
HETATM   12  N2  UNL     1     -17.353   0.186 -19.340  1.00  0.00    -0.407 N 
HETATM   13  C4  UNL     1     -16.800  -1.092 -19.408  1.00  0.00     0.143 C 
HETATM   14  C5  UNL     1     -16.404  -1.334 -20.873  1.00  0.00     0.187 C 
HETATM   15  O1  UNL     1     -15.728  -0.225 -21.370  1.00  0.00    -0.388 OA
HETATM   16  C6  UNL     1     -16.512   0.903 -21.442  1.00  0.00     0.187 C 
HETATM   17  C7  UNL     1     -17.753   0.802 -20.552  1.00  0.00     0.143 C 
ENDBRANCH  11  12
ENDBRANCH  10  11
ENDBRANCH   1  10
TORSDOF 6
ENDMDL
MODEL 2
REMARK VINA RESULT: -5.445724056      1.530      1.634
REMARK  6 active torsions:
REMARK  status: ('A' for Active; 'I' for Inactive)
REMARK    1  A    between atoms: C1_2  and  N1_3 
REMARK    2  A    between atoms: C1_2  and  N3_13 
REMARK    3  A    between atoms: N1_3  and  C2_5 
REMARK    4  A    between atoms: C2_5  and  C3_6 
REMARK    5  A    between atoms: C3_6  and  N2_7 
REMARK    6  A    between atoms: N3_13  and  C8_15 
ROOT
HETATM    1  N1  UNL     1     -18.801  -0.534 -16.337  1.00  0.00    -0.366 N 
ATOM      2  H1  UNL     1     -19.085  -1.447 -16.692  1.00  0.00     0.161 HD
ENDROOT
BRANCH   1   3
HETATM    3  C1  UNL     1     -19.455   0.002 -15.203  1.00  0.00     0.167 C 
HETATM    4  S1  UNL     1     -19.154  -0.685 -13.739  1.00  0.00    -0.041 SA
BRANCH   3   5
HETATM    5  N3  UNL     1     -20.364   1.097 -15.316  1.00  0.00    -0.363 N 
ATOM      6  H3  UNL     1     -20.272   1.911 -14.707  1.00  0.00     0.162 HD
BRANCH   5   7
HETATM    7  C8  UNL     1     -21.411   1.036 -16.299  1.00  0.00     0.084 A 
HETATM    8  C9  UNL     1     -22.513   2.072 -16.138  1.00  0.00     0.027 A 
HETATM    9  C10 UNL     1     -21.575   2.071 -17.336  1.00  0.00     0.027 A 
ENDBRANCH   5   7
ENDBRANCH   3   5
ENDBRANCH   1   3
BRANCH   1  10
HETATM   10  C2  UNL     1     -17.754   0.173 -16.995  1.00  0.00     0.141 C 
BRANCH  10  11
HETATM   11  C3  UNL     1     -18.133   0.869 -18.267  1.00  0.00     0.136 C 
BRANCH  11  12
HETATM   12  N2  UNL     1     -17.440   0.317 -19.366  1.00  0.00    -0.407 N 
HETATM   13  C4  UNL     1     -16.859  -0.946 -19.263  1.00  0.00     0.143 C 
HETATM   14  C5  UNL     1     -16.389  -1.342 -20.671  1.00  0.00     0.187 C 
HETATM   15  O1  UNL     1     -15.711  -0.279 -21.260  1.00  0.00    -0.388 OA
HETATM   16  C6  UNL     1     -16.513   0.813 -21.495  1.00  0.00     0.187 C 
HETATM   17  C7  UNL     1     -17.793   0.782 -20.657  1.00  0.00     0.143 C 
ENDBRANCH  11  12
ENDBRANCH  10  11
ENDBRANCH   1  10
TORSDOF 6
ENDMDL
MODEL 3
REMARK VINA RESULT: -5.426220038      0.971      1.244
REMARK  6 active torsions:
REMARK  status: ('A' for Active; 'I' for Inactive)
REMARK    1  A    between atoms: C1_2  and  N1_3 
REMARK    2  A    between atoms: C1_2  and  N3_13 
REMARK    3  A    between atoms: N1_3  and  C2_5 
REMARK    4  A    between atoms: C2_5  and  C3_6 
REMARK    5  A    between atoms: C3_6  and  N2_7 
REMARK    6  A    between atoms: N3_13  and  C8_15 
ROOT
HETATM    1  N1  UNL     1     -18.210   2.740 -17.550  1.00  0.00    -0.366 N 
ATOM      2  H1  UNL     1     -17.552   3.507 -17.686  1.00  0.00     0.161 HD
ENDROOT
BRANCH   1   3
HETATM    3  C1  UNL     1     -18.644   2.427 -16.240  1.00  0.00     0.167 C 
HETATM    4  S1  UNL     1     -17.604   1.627 -15.248  1.00  0.00    -0.041 SA
BRANCH   3   5
HETATM    5  N3  UNL     1     -19.951   2.779 -15.786  1.00  0.00    -0.363 N 
ATOM      6  H3  UNL     1     -20.134   3.706 -15.402  1.00  0.00     0.162 HD
BRANCH   5   7
HETATM    7  C8  UNL     1     -21.006   1.806 -15.876  1.00  0.00     0.084 A 
HETATM    8  C9  UNL     1     -22.383   2.302 -15.463  1.00  0.00     0.027 A 
HETATM    9  C10 UNL     1     -22.068   1.892 -16.894  1.00  0.00     0.027 A 
ENDBRANCH   5   7
ENDBRANCH   3   5
ENDBRANCH   1   3
BRANCH   1  10
HETATM   10  C2  UNL     1     -18.670   2.007 -18.681  1.00  0.00     0.141 C 
BRANCH  10  11
HETATM   11  C3  UNL     1     -17.653   1.749 -19.750  1.00  0.00     0.136 C 
BRANCH  11  12
HETATM   12  N2  UNL     1     -17.290   0.384 -19.775  1.00  0.00    -0.407 N 
HETATM   13  C4  UNL     1     -17.130  -0.318 -18.582  1.00  0.00     0.143 C 
HETATM   14  C5  UNL     1     -16.960  -1.801 -18.952  1.00  0.00     0.187 C 
HETATM   15  O1  UNL     1     -16.048  -1.926 -19.994  1.00  0.00    -0.388 OA
HETATM   16  C6  UNL     1     -16.483  -1.360 -21.170  1.00  0.00     0.187 C 
HETATM   17  C7  UNL     1     -17.611  -0.352 -20.942  1.00  0.00     0.143 C 
ENDBRANCH  11  12
ENDBRANCH  10  11
ENDBRANCH   1  10
TORSDOF 6
ENDMDL
MODEL 4
REMARK VINA RESULT: -5.345279464      1.146      1.667
REMARK  6 active torsions:
REMARK  status: ('A' for Active; 'I' for Inactive)
REMARK    1  A    between atoms: C1_2  and  N1_3 
REMARK    2  A    between atoms: C1_2  and  N3_13 
REMARK    3  A    between atoms: N1_3  and  C2_5 
REMARK    4  A    between atoms: C2_5  and  C3_6 
REMARK    5  A    between atoms: C3_6  and  N2_7 
REMARK    6  A    between atoms: N3_13  and  C8_15 
ROOT
HETATM    1  N1  UNL     1     -18.364   2.761 -17.332  1.00  0.00    -0.366 N 
ATOM      2  H1  UNL     1     -18.650   3.729 -17.190  1.00  0.00     0.161 HD
ENDROOT
BRANCH   1   3
HETATM    3  C1  UNL     1     -18.649   1.803 -16.331  1.00  0.00     0.167 C 
HETATM    4  S1  UNL     1     -17.574   1.627 -15.097  1.00  0.00    -0.041 SA
BRANCH   3   5
HETATM    5  N3  UNL     1     -19.826   0.996 -16.385  1.00  0.00    -0.363 N 
ATOM      6  H3  UNL     1     -19.766   0.011 -16.644  1.00  0.00     0.162 HD
BRANCH   5   7
HETATM    7  C8  UNL     1     -21.096   1.591 -16.071  1.00  0.00     0.084 A 
HETATM    8  C9  UNL     1     -21.884   2.108 -17.264  1.00  0.00     0.027 A 
HETATM    9  C10 UNL     1     -22.374   0.944 -16.417  1.00  0.00     0.027 A 
ENDBRANCH   5   7
ENDBRANCH   3   5
ENDBRANCH   1   3
BRANCH   1  10
HETATM   10  C2  UNL     1     -17.688   2.403 -18.533  1.00  0.00     0.141 C 
BRANCH  10  11
HETATM   11  C3  UNL     1     -18.440   1.500 -19.462  1.00  0.00     0.136 C 
BRANCH  11  12
HETATM   12  N2  UNL     1     -17.656   0.380 -19.816  1.00  0.00    -0.407 N 
HETATM   13  C4  UNL     1     -17.271   0.187 -21.142  1.00  0.00     0.143 C 
HETATM   14  C5  UNL     1     -16.260  -0.971 -21.153  1.00  0.00     0.187 C 
HETATM   15  O1  UNL     1     -16.736  -2.022 -20.376  1.00  0.00    -0.388 OA
HETATM   16  C6  UNL     1     -16.836  -1.709 -19.040  1.00  0.00     0.187 C 
HETATM   17  C7  UNL     1     -16.854  -0.198 -18.801  1.00  0.00     0.143 C 
ENDBRANCH  11  12
ENDBRANCH  10  11
ENDBRANCH   1  10
TORSDOF 6
ENDMDL
MODEL 5
REMARK VINA RESULT: -5.209375923      1.273      1.422
REMARK  6 active torsions:
REMARK  status: ('A' for Active; 'I' for Inactive)
REMARK    1  A    between atoms: C1_2  and  N1_3 
REMARK    2  A    between atoms: C1_2  and  N3_13 
REMARK    3  A    between atoms: N1_3  and  C2_5 
REMARK    4  A    between atoms: C2_5  and  C3_6 
REMARK    5  A    between atoms: C3_6  and  N2_7 
REMARK    6  A    between atoms: N3_13  and  C8_15 
ROOT
HETATM    1  N1  UNL     1     -19.802   2.023 -17.672  1.00  0.00    -0.366 N 
ATOM      2  H1  UNL     1     -20.592   2.312 -18.250  1.00  0.00     0.161 HD
ENDROOT
BRANCH   1   3
HETATM    3  C1  UNL     1     -20.009   1.765 -16.297  1.00  0.00     0.167 C 
HETATM    4  S1  UNL     1     -19.351   2.804 -15.205  1.00  0.00    -0.041 SA
BRANCH   3   5
HETATM    5  N3  UNL     1     -20.755   0.629 -15.857  1.00  0.00    -0.363 N 
ATOM      6  H3  UNL     1     -20.281  -0.246 -15.634  1.00  0.00     0.162 HD
BRANCH   5   7
HETATM    7  C8  UNL     1     -22.183   0.737 -15.734  1.00  0.00     0.084 A 
HETATM    8  C9  UNL     1     -22.834  -0.279 -14.809  1.00  0.00     0.027 A 
HETATM    9  C10 UNL     1     -22.831   1.209 -14.497  1.00  0.00     0.027 A 
ENDBRANCH   5   7
ENDBRANCH   3   5
ENDBRANCH   1   3
BRANCH   1  10
HETATM   10  C2  UNL     1     -18.516   1.888 -18.269  1.00  0.00     0.141 C 
BRANCH  10  11
HETATM   11  C3  UNL     1     -17.856   0.553 -18.107  1.00  0.00     0.136 C 
BRANCH  11  12
HETATM   12  N2  UNL     1     -17.269   0.134 -19.321  1.00  0.00    -0.407 N 
HETATM   13  C4  UNL     1     -16.703  -1.136 -19.421  1.00  0.00     0.143 C 
HETATM   14  C5  UNL     1     -16.362  -1.361 -20.903  1.00  0.00     0.187 C 
HETATM   15  O1  UNL     1     -15.720  -0.238 -21.416  1.00  0.00    -0.388 OA
HETATM   16  C6  UNL     1     -16.521   0.879 -21.447  1.00  0.00     0.187 C 
HETATM   17  C7  UNL     1     -17.724   0.754 -20.510  1.00  0.00     0.143 C 
ENDBRANCH  11  12
ENDBRANCH  10  11
ENDBRANCH   1  10
TORSDOF 6
ENDMDL
