MODEL 1
REMARK VINA RESULT: -5.673703269      0.000      0.000
REMARK  6 active torsions:
REMARK  status: ('A' for Active; 'I' for Inactive)
REMARK    1  A    between atoms: N1_2  and  C2_3 
REMARK    2  A    between atoms: N1_2  and  C9_13 
REMARK    3  A    between atoms: C2_3  and  C3_4 
REMARK    4  A    between atoms: C3_4  and  O1_5 
REMARK    5  A    between atoms: C3_4  and  C4_7 
REMARK    6  A    between atoms: C4_7  and  N2_8 
ROOT
HETATM    1  C2  UNL     1     -18.430   1.038 -16.499  1.00  0.00     0.091 C 
ENDROOT
BRANCH   1   2
HETATM    2  N1  UNL     1     -19.092   2.207 -16.906  1.00  0.00    -0.390 N 
HETATM    3  C1  UNL     1     -18.302   3.136 -17.585  1.00  0.00     0.149 C 
BRANCH   2   4
HETATM    4  C9  UNL     1     -20.280   2.586 -16.262  1.00  0.00     0.084 C 
HETATM    5  C10 UNL     1     -21.550   2.233 -16.949  1.00  0.00     0.035 C 
HETATM    6  C11 UNL     1     -22.400   1.236 -16.146  1.00  0.00     0.076 C 
HETATM    7  S1  UNL     1     -22.875   2.124 -14.621  1.00  0.00    -0.169 SA
HETATM    8  C12 UNL     1     -21.288   2.774 -13.966  1.00  0.00     0.076 C 
HETATM    9  C13 UNL     1     -20.217   2.110 -14.808  1.00  0.00     0.035 C 
ENDBRANCH   2   4
ENDBRANCH   1   2
BRANCH   1  10
HETATM   10  C3  UNL     1     -17.278   0.604 -17.385  1.00  0.00     0.184 C 
BRANCH  10  11
HETATM   11  O1  UNL     1     -16.097   0.530 -16.659  1.00  0.00    -0.389 OA
ATOM     12  H1  UNL     1     -15.359   0.358 -17.231  1.00  0.00     0.210 HD
ENDBRANCH  10  11
BRANCH  10  13
HETATM   13  C4  UNL     1     -17.641  -0.709 -18.004  1.00  0.00     0.309 C 
BRANCH  13  14
HETATM   14  N2  UNL     1     -17.583  -0.739 -19.433  1.00  0.00     0.091 N 
HETATM   15  C5  UNL     1     -16.276  -1.311 -19.787  1.00  0.00     0.272 C 
HETATM   16  C6  UNL     1     -16.346  -1.154 -21.299  1.00  0.00     0.032 C 
HETATM   17  C7  UNL     1     -16.728   0.330 -21.375  1.00  0.00     0.032 C 
HETATM   18  C8  UNL     1     -17.482   0.554 -20.060  1.00  0.00     0.272 C 
ENDBRANCH  13  14
ENDBRANCH  10  13
ENDBRANCH   1  10
TORSDOF 6
ENDMDL
MODEL 2
REMARK VINA RESULT: -5.645683656      1.280      1.644
REMARK  6 active torsions:
REMARK  status: ('A' for Active; 'I' for Inactive)
REMARK    1  A    between atoms: N1_2  and  C2_3 
REMARK    2  A    between atoms: N1_2  and  C9_13 
REMARK    3  A    between atoms: C2_3  and  C3_4 
REMARK    4  A    between atoms: C3_4  and  O1_5 
REMARK    5  A    between atoms: C3_4  and  C4_7 
REMARK    6  A    between atoms: C4_7  and  N2_8 
ROOT
HETATM    1  C2  UNL     1     -17.993   0.862 -15.655  1.00  0.00     0.091 C 
ENDROOT
BRANCH   1   2
HETATM    2  N1  UNL     1     -19.022   1.818 -15.663  1.00  0.00    -0.390 N 
HETATM    3  C1  UNL     1     -18.607   3.140 -15.830  1.00  0.00     0.149 C 
BRANCH   2   4
HETATM    4  C9  UNL     1     -20.258   1.505 -15.079  1.00  0.00     0.084 C 
HETATM    5  C10 UNL     1     -21.468   2.042 -15.754  1.00  0.00     0.035 C 
HETATM    6  C11 UNL     1     -22.379   0.936 -16.308  1.00  0.00     0.076 C 
HETATM    7  S1  UNL     1     -22.977   0.023 -14.841  1.00  0.00    -0.169 SA
HETATM    8  C12 UNL     1     -21.449  -0.373 -13.904  1.00  0.00     0.076 C 
HETATM    9  C13 UNL     1     -20.312  -0.006 -14.837  1.00  0.00     0.035 C 
ENDBRANCH   2   4
ENDBRANCH   1   2
BRANCH   1  10
HETATM   10  C3  UNL     1     -17.047   0.917 -16.838  1.00  0.00     0.184 C 
BRANCH  10  11
HETATM   11  O1  UNL     1     -15.733   0.739 -16.429  1.00  0.00    -0.389 OA
ATOM     12  H1  UNL     1     -15.369   1.551 -16.097  1.00  0.00     0.210 HD
ENDBRANCH  10  11
BRANCH  10  13
HETATM   13  C4  UNL     1     -17.477  -0.124 -17.822  1.00  0.00     0.309 C 
BRANCH  13  14
HETATM   14  N2  UNL     1     -16.740  -0.138 -19.048  1.00  0.00     0.091 N 
HETATM   15  C5  UNL     1     -17.539   0.614 -20.026  1.00  0.00     0.272 C 
HETATM   16  C6  UNL     1     -16.679   0.392 -21.261  1.00  0.00     0.032 C 
HETATM   17  C7  UNL     1     -16.543  -1.135 -21.196  1.00  0.00     0.032 C 
HETATM   18  C8  UNL     1     -16.672  -1.423 -19.697  1.00  0.00     0.272 C 
ENDBRANCH  13  14
ENDBRANCH  10  13
ENDBRANCH   1  10
TORSDOF 6
ENDMDL
MODEL 3
REMARK VINA RESULT: -5.634422269      1.317      1.900
REMARK  6 active torsions:
REMARK  status: ('A' for Active; 'I' for Inactive)
REMARK    1  A    between atoms: N1_2  and  C2_3 
REMARK    2  A    between atoms: N1_2  and  C9_13 
REMARK    3  A    between atoms: C2_3  and  C3_4 
REMARK    4  A    between atoms: C3_4  and  O1_5 
REMARK    5  A    between atoms: C3_4  and  C4_7 
REMARK    6  A    between atoms: C4_7  and  N2_8 
ROOT
HETATM    1  C2  UNL     1     -17.752   0.861 -15.274  1.00  0.00     0.091 C 
ENDROOT
BRANCH   1   2
HETATM    2  N1  UNL     1     -18.543   1.958 -14.893  1.00  0.00    -0.390 N 
HETATM    3  C1  UNL     1     -17.989   2.781 -13.911  1.00  0.00     0.149 C 
BRANCH   2   4
HETATM    4  C9  UNL     1     -19.925   1.926 -15.131  1.00  0.00     0.084 C 
HETATM    5  C10 UNL     1     -20.413   2.668 -16.323  1.00  0.00     0.035 C 
HETATM    6  C11 UNL     1     -21.041   1.746 -17.379  1.00  0.00     0.076 C 
HETATM    7  S1  UNL     1     -22.523   1.036 -16.580  1.00  0.00    -0.169 SA
HETATM    8  C12 UNL     1     -21.902   0.378 -14.982  1.00  0.00     0.076 C 
HETATM    9  C13 UNL     1     -20.392   0.469 -15.084  1.00  0.00     0.035 C 
ENDBRANCH   2   4
ENDBRANCH   1   2
BRANCH   1  10
HETATM   10  C3  UNL     1     -17.029   1.012 -16.598  1.00  0.00     0.184 C 
BRANCH  10  11
HETATM   11  O1  UNL     1     -15.672   0.755 -16.452  1.00  0.00    -0.389 OA
ATOM     12  H1  UNL     1     -15.155   1.504 -16.726  1.00  0.00     0.210 HD
ENDBRANCH  10  11
BRANCH  10  13
HETATM   13  C4  UNL     1     -17.674   0.090 -17.584  1.00  0.00     0.309 C 
BRANCH  13  14
HETATM   14  N2  UNL     1     -16.977  -0.050 -18.825  1.00  0.00     0.091 N 
HETATM   15  C5  UNL     1     -17.658   0.824 -19.790  1.00  0.00     0.272 C 
HETATM   16  C6  UNL     1     -16.875   0.458 -21.042  1.00  0.00     0.032 C 
HETATM   17  C7  UNL     1     -16.997  -1.070 -20.971  1.00  0.00     0.032 C 
HETATM   18  C8  UNL     1     -17.140  -1.329 -19.468  1.00  0.00     0.272 C 
ENDBRANCH  13  14
ENDBRANCH  10  13
ENDBRANCH   1  10
TORSDOF 6
ENDMDL
MODEL 4
REMARK VINA RESULT: -5.558125447      1.248      1.551
REMARK  6 active torsions:
REMARK  status: ('A' for Active; 'I' for Inactive)
REMARK    1  A    between atoms: N1_2  and  C2_3 
REMARK    2  A    between atoms: N1_2  and  C9_13 
REMARK    3  A    between atoms: C2_3  and  C3_4 
REMARK    4  A    between atoms: C3_4  and  O1_5 
REMARK    5  A    between atoms: C3_4  and  C4_7 
REMARK    6  A    between atoms: C4_7  and  N2_8 
ROOT
HETATM    1  C2  UNL     1     -18.814   0.338 -16.241  1.00  0.00     0.091 C 
ENDROOT
BRANCH   1   2
HETATM    2  N1  UNL     1     -20.005   0.984 -16.610  1.00  0.00    -0.390 N 
HETATM    3  C1  UNL     1     -19.854   2.052 -17.497  1.00  0.00     0.149 C 
BRANCH   2   4
HETATM    4  C9  UNL     1     -21.136   0.865 -15.790  1.00  0.00     0.084 C 
HETATM    5  C10 UNL     1     -21.043  -0.099 -14.663  1.00  0.00     0.035 C 
HETATM    6  C11 UNL     1     -21.134   0.584 -13.290  1.00  0.00     0.076 C 
HETATM    7  S1  UNL     1     -22.816   1.293 -13.214  1.00  0.00    -0.169 SA
HETATM    8  C12 UNL     1     -22.972   2.251 -14.772  1.00  0.00     0.076 C 
HETATM    9  C13 UNL     1     -21.575   2.268 -15.361  1.00  0.00     0.035 C 
ENDBRANCH   2   4
ENDBRANCH   1   2
BRANCH   1  10
HETATM   10  C3  UNL     1     -17.696   0.405 -17.263  1.00  0.00     0.184 C 
BRANCH  10  11
HETATM   11  O1  UNL     1     -16.482   0.682 -16.649  1.00  0.00    -0.389 OA
ATOM     12  H1  UNL     1     -15.801   0.102 -16.968  1.00  0.00     0.210 HD
ENDBRANCH  10  11
BRANCH  10  13
HETATM   13  C4  UNL     1     -17.669  -0.894 -18.004  1.00  0.00     0.309 C 
BRANCH  13  14
HETATM   14  N2  UNL     1     -17.616  -0.775 -19.428  1.00  0.00     0.091 N 
HETATM   15  C5  UNL     1     -16.312  -1.311 -19.846  1.00  0.00     0.272 C 
HETATM   16  C6  UNL     1     -16.388  -0.996 -21.333  1.00  0.00     0.032 C 
HETATM   17  C7  UNL     1     -16.766   0.488 -21.252  1.00  0.00     0.032 C 
HETATM   18  C8  UNL     1     -17.515   0.576 -19.918  1.00  0.00     0.272 C 
ENDBRANCH  13  14
ENDBRANCH  10  13
ENDBRANCH   1  10
TORSDOF 6
ENDMDL
MODEL 5
REMARK VINA RESULT: -5.552615559      1.455      1.627
REMARK  6 active torsions:
REMARK  status: ('A' for Active; 'I' for Inactive)
REMARK    1  A    between atoms: N1_2  and  C2_3 
REMARK    2  A    between atoms: N1_2  and  C9_13 
REMARK    3  A    between atoms: C2_3  and  C3_4 
REMARK    4  A    between atoms: C3_4  and  O1_5 
REMARK    5  A    between atoms: C3_4  and  C4_7 
REMARK    6  A    between atoms: C4_7  and  N2_8 
ROOT
HETATM    1  C2  UNL     1     -18.802   0.113 -16.137  1.00  0.00     0.091 C 
ENDROOT
BRANCH   1   2
HETATM    2  N1  UNL     1     -19.994   0.842 -16.277  1.00  0.00    -0.390 N 
HETATM    3  C1  UNL     1     -19.976   1.832 -17.262  1.00  0.00     0.149 C 
BRANCH   2   4
HETATM    4  C9  UNL     1     -20.906   0.883 -15.212  1.00  0.00     0.084 C 
HETATM    5  C10 UNL     1     -22.348   0.927 -15.572  1.00  0.00     0.035 C 
HETATM    6  C11 UNL     1     -23.114  -0.319 -15.103  1.00  0.00     0.076 C 
HETATM    7  S1  UNL     1     -23.044  -0.270 -13.277  1.00  0.00    -0.169 SA
HETATM    8  C12 UNL     1     -21.261  -0.044 -12.901  1.00  0.00     0.076 C 
HETATM    9  C13 UNL     1     -20.555  -0.237 -14.229  1.00  0.00     0.035 C 
ENDBRANCH   2   4
ENDBRANCH   1   2
BRANCH   1  10
HETATM   10  C3  UNL     1     -17.779   0.326 -17.236  1.00  0.00     0.184 C 
BRANCH  10  11
HETATM   11  O1  UNL     1     -16.549   0.687 -16.702  1.00  0.00    -0.389 OA
ATOM     12  H1  UNL     1     -16.025  -0.081 -16.509  1.00  0.00     0.210 HD
ENDBRANCH  10  11
BRANCH  10  13
HETATM   13  C4  UNL     1     -17.696  -0.933 -18.040  1.00  0.00     0.309 C 
BRANCH  13  14
HETATM   14  N2  UNL     1     -17.654  -0.743 -19.457  1.00  0.00     0.091 N 
HETATM   15  C5  UNL     1     -16.340  -1.226 -19.906  1.00  0.00     0.272 C 
HETATM   16  C6  UNL     1     -16.431  -0.841 -21.375  1.00  0.00     0.032 C 
HETATM   17  C7  UNL     1     -16.844   0.629 -21.219  1.00  0.00     0.032 C 
HETATM   18  C8  UNL     1     -17.587   0.633 -19.879  1.00  0.00     0.272 C 
ENDBRANCH  13  14
ENDBRANCH  10  13
ENDBRANCH   1  10
TORSDOF 6
ENDMDL
