MODEL 1
REMARK VINA RESULT: -6.311342568      0.000      0.000
REMARK  2 active torsions:
REMARK  status: ('A' for Active; 'I' for Inactive)
REMARK    1  A    between atoms: C5_5  and  C6_6 
REMARK    2  A    between atoms: C6_6  and  C7_7 
ROOT
HETATM    1  C7  UNL     1      52.098  24.575  39.475  1.00  0.00     0.126 C 
HETATM    2  C8  UNL     1      52.665  24.220  38.176  1.00  0.00     0.059 C 
HETATM    3  N1  UNL     1      53.124  23.933  37.154  1.00  0.00    -0.197 NA
ENDROOT
BRANCH   1   4
HETATM    4  C6  UNL     1      50.821  25.375  39.317  1.00  0.00     0.049 C 
BRANCH   4   5
HETATM    5  C5  UNL     1      49.724  24.842  40.212  1.00  0.00     0.161 C 
HETATM    6  C4  UNL     1      48.412  25.023  39.546  1.00  0.00     0.038 C 
HETATM    7  C3  UNL     1      47.502  23.856  39.579  1.00  0.00     0.037 C 
HETATM    8  C2  UNL     1      48.091  22.599  40.126  1.00  0.00     0.156 C 
HETATM    9  C1  UNL     1      47.014  21.676  40.603  1.00  0.00     0.042 C 
HETATM   10  O2  UNL     1      49.038  22.900  41.098  1.00  0.00    -0.236 OA
HETATM   11  O1  UNL     1      50.041  23.492  40.455  1.00  0.00    -0.235 OA
ENDBRANCH   4   5
ENDBRANCH   1   4
TORSDOF 2
ENDMDL
MODEL 2
REMARK VINA RESULT: -6.190967917      3.621      4.827
REMARK  2 active torsions:
REMARK  status: ('A' for Active; 'I' for Inactive)
REMARK    1  A    between atoms: C5_5  and  C6_6 
REMARK    2  A    between atoms: C6_6  and  C7_7 
ROOT
HETATM    1  C7  UNL     1      48.764  26.226  42.543  1.00  0.00     0.126 C 
HETATM    2  C8  UNL     1      47.412  26.651  42.900  1.00  0.00     0.059 C 
HETATM    3  N1  UNL     1      46.346  26.988  43.196  1.00  0.00    -0.197 NA
ENDROOT
BRANCH   1   4
HETATM    4  C6  UNL     1      48.877  25.943  41.059  1.00  0.00     0.049 C 
BRANCH   4   5
HETATM    5  C5  UNL     1      49.419  24.554  40.805  1.00  0.00     0.161 C 
HETATM    6  C4  UNL     1      50.600  24.641  39.913  1.00  0.00     0.038 C 
HETATM    7  C3  UNL     1      51.778  23.841  40.316  1.00  0.00     0.037 C 
HETATM    8  C2  UNL     1      51.682  23.189  41.654  1.00  0.00     0.156 C 
HETATM    9  C1  UNL     1      52.623  22.028  41.744  1.00  0.00     0.042 C 
HETATM   10  O2  UNL     1      50.361  22.858  41.930  1.00  0.00    -0.236 OA
HETATM   11  O1  UNL     1      49.720  24.015  42.071  1.00  0.00    -0.235 OA
ENDBRANCH   4   5
ENDBRANCH   1   4
TORSDOF 2
ENDMDL
MODEL 3
REMARK VINA RESULT: -6.177900678      3.424      4.467
REMARK  2 active torsions:
REMARK  status: ('A' for Active; 'I' for Inactive)
REMARK    1  A    between atoms: C5_5  and  C6_6 
REMARK    2  A    between atoms: C6_6  and  C7_7 
ROOT
HETATM    1  C7  UNL     1      47.773  23.270  39.678  1.00  0.00     0.126 C 
HETATM    2  C8  UNL     1      47.370  22.117  40.481  1.00  0.00     0.059 C 
HETATM    3  N1  UNL     1      47.039  21.204  41.108  1.00  0.00    -0.197 NA
ENDROOT
BRANCH   1   4
HETATM    4  C6  UNL     1      49.066  23.871  40.191  1.00  0.00     0.049 C 
BRANCH   4   5
HETATM    5  C5  UNL     1      48.836  25.243  40.785  1.00  0.00     0.161 C 
HETATM    6  C4  UNL     1      47.685  25.886  40.109  1.00  0.00     0.038 C 
HETATM    7  C3  UNL     1      46.694  26.539  40.995  1.00  0.00     0.037 C 
HETATM    8  C2  UNL     1      46.895  26.315  42.455  1.00  0.00     0.156 C 
HETATM    9  C1  UNL     1      46.220  27.387  43.252  1.00  0.00     0.042 C 
HETATM   10  O2  UNL     1      48.250  26.181  42.736  1.00  0.00    -0.236 OA
HETATM   11  O1  UNL     1      48.628  25.042  42.163  1.00  0.00    -0.235 OA
ENDBRANCH   4   5
ENDBRANCH   1   4
TORSDOF 2
ENDMDL
MODEL 4
REMARK VINA RESULT: -6.144565532      3.190      4.306
REMARK  2 active torsions:
REMARK  status: ('A' for Active; 'I' for Inactive)
REMARK    1  A    between atoms: C5_5  and  C6_6 
REMARK    2  A    between atoms: C6_6  and  C7_7 
ROOT
HETATM    1  C7  UNL     1      48.288  25.077  39.500  1.00  0.00     0.126 C 
HETATM    2  C8  UNL     1      47.664  26.176  40.233  1.00  0.00     0.059 C 
HETATM    3  N1  UNL     1      47.158  27.042  40.809  1.00  0.00    -0.197 NA
ENDROOT
BRANCH   1   4
HETATM    4  C6  UNL     1      49.786  25.046  39.725  1.00  0.00     0.049 C 
BRANCH   4   5
HETATM    5  C5  UNL     1      50.231  23.709  40.275  1.00  0.00     0.161 C 
HETATM    6  C4  UNL     1      51.711  23.674  40.350  1.00  0.00     0.038 C 
HETATM    7  C3  UNL     1      52.284  23.150  41.611  1.00  0.00     0.037 C 
HETATM    8  C2  UNL     1      51.301  22.887  42.701  1.00  0.00     0.156 C 
HETATM    9  C1  UNL     1      51.855  21.905  43.686  1.00  0.00     0.042 C 
HETATM   10  O2  UNL     1      50.079  22.503  42.160  1.00  0.00    -0.236 OA
HETATM   11  O1  UNL     1      49.609  23.577  41.531  1.00  0.00    -0.235 OA
ENDBRANCH   4   5
ENDBRANCH   1   4
TORSDOF 2
ENDMDL
MODEL 5
REMARK VINA RESULT: -6.135529389      1.798      2.144
REMARK  2 active torsions:
REMARK  status: ('A' for Active; 'I' for Inactive)
REMARK    1  A    between atoms: C5_5  and  C6_6 
REMARK    2  A    between atoms: C6_6  and  C7_7 
ROOT
HETATM    1  C7  UNL     1      52.654  23.721  39.764  1.00  0.00     0.126 C 
HETATM    2  C8  UNL     1      52.910  23.834  38.329  1.00  0.00     0.059 C 
HETATM    3  N1  UNL     1      53.125  23.925  37.197  1.00  0.00    -0.197 NA
ENDROOT
BRANCH   1   4
HETATM    4  C6  UNL     1      51.189  23.450  40.041  1.00  0.00     0.049 C 
BRANCH   4   5
HETATM    5  C5  UNL     1      50.500  24.677  40.597  1.00  0.00     0.161 C 
HETATM    6  C4  UNL     1      49.646  25.281  39.547  1.00  0.00     0.038 C 
HETATM    7  C3  UNL     1      48.279  25.668  39.965  1.00  0.00     0.037 C 
HETATM    8  C2  UNL     1      47.885  25.243  41.339  1.00  0.00     0.156 C 
HETATM    9  C1  UNL     1      46.766  26.092  41.854  1.00  0.00     0.042 C 
HETATM   10  O2  UNL     1      48.999  25.224  42.170  1.00  0.00    -0.236 OA
HETATM   11  O1  UNL     1      49.771  24.239  41.719  1.00  0.00    -0.235 OA
ENDBRANCH   4   5
ENDBRANCH   1   4
TORSDOF 2
ENDMDL
