MODEL 1
REMARK VINA RESULT: -8.611955384      0.000      0.000
REMARK  5 active torsions:
REMARK  status: ('A' for Active; 'I' for Inactive)
REMARK    1  A    between atoms: C3_6  and  O1_7 
REMARK    2  A    between atoms: O1_7  and  C4_8 
REMARK    3  A    between atoms: C8_13  and  C9_14 
REMARK    4  A    between atoms: C12_17  and  C13_18 
REMARK    5  A    between atoms: C13_18  and  N3_19 
ROOT
HETATM    1  N1  UNL     1      50.053  10.461 -18.800  1.00  0.00    -0.190 NA
HETATM    2  C1  UNL     1      49.932  11.363 -19.513  1.00  0.00     0.118 C 
HETATM    3  C2  UNL     1      49.797  12.472 -20.416  1.00  0.00     0.127 A 
HETATM    4  N2  UNL     1      50.415  12.557 -21.576  1.00  0.00    -0.327 N 
ATOM      5  H2  UNL     1      51.032  11.790 -21.840  1.00  0.00     0.168 HD
HETATM    6  C3  UNL     1      50.290  13.574 -22.429  1.00  0.00     0.151 A 
HETATM    7  C8  UNL     1      49.470  14.688 -22.181  1.00  0.00     0.011 A 
HETATM    8  C16 UNL     1      48.827  14.638 -20.962  1.00  0.00     0.027 A 
HETATM    9  C17 UNL     1      48.169  15.705 -20.431  1.00  0.00     0.131 A 
HETATM   10  F1  UNL     1      48.259  16.936 -21.036  1.00  0.00    -0.205 F 
HETATM   11  C18 UNL     1      47.652  15.704 -19.150  1.00  0.00     0.085 A 
HETATM   12  C19 UNL     1      47.788  14.621 -18.332  1.00  0.00     0.120 A 
HETATM   13  F2  UNL     1      47.260  14.647 -17.083  1.00  0.00    -0.206 F 
HETATM   14  C20 UNL     1      48.462  13.519 -18.800  1.00  0.00     0.057 A 
HETATM   15  C21 UNL     1      48.968  13.550 -20.075  1.00  0.00     0.018 A 
ENDROOT
BRANCH   6  16
HETATM   16  O1  UNL     1      50.995  13.537 -23.599  1.00  0.00    -0.328 OA
BRANCH  16  17
HETATM   17  C4  UNL     1      51.309  12.341 -24.253  1.00  0.00     0.156 C 
HETATM   18  C5  UNL     1      51.511  12.501 -25.741  1.00  0.00     0.061 C 
HETATM   19  C6  UNL     1      52.510  11.369 -26.015  1.00  0.00     0.170 C 
HETATM   20  O2  UNL     1      53.384  11.533 -24.953  1.00  0.00    -0.389 OA
HETATM   21  C7  UNL     1      52.644  11.775 -23.821  1.00  0.00     0.200 C 
ENDBRANCH  16  17
ENDBRANCH   6  16
BRANCH   7  22
HETATM   22  C9  UNL     1      49.424  15.775 -23.116  1.00  0.00     0.024 C 
HETATM   23  C10 UNL     1      50.435  15.606 -24.298  1.00  0.00     0.010 C 
HETATM   24  C11 UNL     1      50.036  16.597 -25.418  1.00  0.00     0.007 C 
HETATM   25  C12 UNL     1      49.209  15.726 -26.363  1.00  0.00     0.011 C 
HETATM   26  C14 UNL     1      48.575  14.757 -25.406  1.00  0.00     0.007 C 
HETATM   27  C15 UNL     1      48.185  15.443 -24.115  1.00  0.00     0.010 C 
BRANCH  25  28
HETATM   28  C13 UNL     1      48.158  16.598 -26.984  1.00  0.00     0.234 C 
BRANCH  28  29
HETATM   29  N3  UNL     1      47.129  15.829 -27.658  1.00  0.00    -0.079 N 
ATOM     30  H33 UNL     1      46.868  16.263 -28.544  1.00  0.00     0.274 HD
ATOM     31  H32 UNL     1      47.501  14.947 -28.011  1.00  0.00     0.274 HD
ATOM     32  H31 UNL     1      46.310  15.674 -27.069  1.00  0.00     0.274 HD
ENDBRANCH  28  29
ENDBRANCH  25  28
ENDBRANCH   7  22
TORSDOF 5
ENDMDL
MODEL 2
REMARK VINA RESULT: -8.606552423      1.110      1.242
REMARK  5 active torsions:
REMARK  status: ('A' for Active; 'I' for Inactive)
REMARK    1  A    between atoms: C3_6  and  O1_7 
REMARK    2  A    between atoms: O1_7  and  C4_8 
REMARK    3  A    between atoms: C8_13  and  C9_14 
REMARK    4  A    between atoms: C12_17  and  C13_18 
REMARK    5  A    between atoms: C13_18  and  N3_19 
ROOT
HETATM    1  N1  UNL     1      49.993   9.057 -19.760  1.00  0.00    -0.190 NA
HETATM    2  C1  UNL     1      49.965  10.061 -20.335  1.00  0.00     0.118 C 
HETATM    3  C2  UNL     1      49.944  11.297 -21.067  1.00  0.00     0.127 A 
HETATM    4  N2  UNL     1      50.506  11.465 -22.245  1.00  0.00    -0.327 N 
ATOM      5  H2  UNL     1      50.995  10.669 -22.654  1.00  0.00     0.168 HD
HETATM    6  C3  UNL     1      50.484  12.602 -22.940  1.00  0.00     0.151 A 
HETATM    7  C8  UNL     1      49.844  13.767 -22.486  1.00  0.00     0.011 A 
HETATM    8  C16 UNL     1      49.264  13.629 -21.243  1.00  0.00     0.027 A 
HETATM    9  C17 UNL     1      48.791  14.686 -20.527  1.00  0.00     0.131 A 
HETATM   10  F1  UNL     1      49.024  15.968 -20.964  1.00  0.00    -0.205 F 
HETATM   11  C18 UNL     1      48.345  14.569 -19.226  1.00  0.00     0.085 A 
HETATM   12  C19 UNL     1      48.368  13.371 -18.574  1.00  0.00     0.120 A 
HETATM   13  F2  UNL     1      47.914  13.287 -17.299  1.00  0.00    -0.206 F 
HETATM   14  C20 UNL     1      48.855  12.268 -19.233  1.00  0.00     0.057 A 
HETATM   15  C21 UNL     1      49.294  12.415 -20.525  1.00  0.00     0.018 A 
ENDROOT
BRANCH   6  16
HETATM   16  O1  UNL     1      51.115  12.641 -24.152  1.00  0.00    -0.328 OA
BRANCH  16  17
HETATM   17  C4  UNL     1      51.586  11.490 -24.795  1.00  0.00     0.156 C 
HETATM   18  C5  UNL     1      50.644  10.962 -25.850  1.00  0.00     0.061 C 
HETATM   19  C6  UNL     1      51.640  10.300 -26.812  1.00  0.00     0.170 C 
HETATM   20  O2  UNL     1      52.626  11.272 -26.872  1.00  0.00    -0.389 OA
HETATM   21  C7  UNL     1      52.840  11.745 -25.601  1.00  0.00     0.200 C 
ENDBRANCH  16  17
ENDBRANCH   6  16
BRANCH   7  22
HETATM   22  C9  UNL     1      49.905  14.975 -23.259  1.00  0.00     0.024 C 
HETATM   23  C10 UNL     1      50.739  14.815 -24.575  1.00  0.00     0.010 C 
HETATM   24  C11 UNL     1      50.417  16.017 -25.496  1.00  0.00     0.007 C 
HETATM   25  C12 UNL     1      49.349  15.451 -26.431  1.00  0.00     0.011 C 
HETATM   26  C14 UNL     1      48.648  14.472 -25.533  1.00  0.00     0.007 C 
HETATM   27  C15 UNL     1      48.529  15.012 -24.124  1.00  0.00     0.010 C 
BRANCH  25  28
HETATM   28  C13 UNL     1      48.421  16.572 -26.793  1.00  0.00     0.234 C 
BRANCH  28  29
HETATM   29  N3  UNL     1      47.333  16.136 -27.648  1.00  0.00    -0.079 N 
ATOM     30  H33 UNL     1      47.464  15.169 -27.945  1.00  0.00     0.274 HD
ATOM     31  H32 UNL     1      46.469  16.027 -27.116  1.00  0.00     0.274 HD
ATOM     32  H31 UNL     1      47.196  16.751 -28.450  1.00  0.00     0.274 HD
ENDBRANCH  28  29
ENDBRANCH  25  28
ENDBRANCH   7  22
TORSDOF 5
ENDMDL
MODEL 3
REMARK VINA RESULT: -8.563793509      3.128      5.380
REMARK  5 active torsions:
REMARK  status: ('A' for Active; 'I' for Inactive)
REMARK    1  A    between atoms: C3_6  and  O1_7 
REMARK    2  A    between atoms: O1_7  and  C4_8 
REMARK    3  A    between atoms: C8_13  and  C9_14 
REMARK    4  A    between atoms: C12_17  and  C13_18 
REMARK    5  A    between atoms: C13_18  and  N3_19 
ROOT
HETATM    1  N1  UNL     1      46.242  17.428 -19.845  1.00  0.00    -0.190 NA
HETATM    2  C1  UNL     1      46.971  16.869 -20.548  1.00  0.00     0.118 C 
HETATM    3  C2  UNL     1      47.886  16.164 -21.402  1.00  0.00     0.127 A 
HETATM    4  N2  UNL     1      48.791  15.312 -20.967  1.00  0.00    -0.327 N 
ATOM      5  H2  UNL     1      48.848  15.155 -19.961  1.00  0.00     0.168 HD
HETATM    6  C3  UNL     1      49.638  14.641 -21.748  1.00  0.00     0.151 A 
HETATM    7  C8  UNL     1      49.658  14.770 -23.147  1.00  0.00     0.011 A 
HETATM    8  C16 UNL     1      48.735  15.673 -23.631  1.00  0.00     0.027 A 
HETATM    9  C17 UNL     1      48.737  16.111 -24.920  1.00  0.00     0.131 A 
HETATM   10  F1  UNL     1      49.776  15.777 -25.755  1.00  0.00    -0.205 F 
HETATM   11  C18 UNL     1      47.910  17.122 -25.368  1.00  0.00     0.085 A 
HETATM   12  C19 UNL     1      47.042  17.754 -24.526  1.00  0.00     0.120 A 
HETATM   13  F2  UNL     1      46.236  18.736 -24.999  1.00  0.00    -0.206 F 
HETATM   14  C20 UNL     1      47.008  17.375 -23.206  1.00  0.00     0.057 A 
HETATM   15  C21 UNL     1      47.843  16.370 -22.788  1.00  0.00     0.018 A 
ENDROOT
BRANCH   6  16
HETATM   16  O1  UNL     1      50.533  13.790 -21.163  1.00  0.00    -0.328 OA
BRANCH  16  17
HETATM   17  C4  UNL     1      50.325  13.228 -19.899  1.00  0.00     0.156 C 
HETATM   18  C5  UNL     1      49.483  11.975 -19.928  1.00  0.00     0.061 C 
HETATM   19  C6  UNL     1      50.037  11.232 -18.705  1.00  0.00     0.170 C 
HETATM   20  O2  UNL     1      51.399  11.422 -18.883  1.00  0.00    -0.389 OA
HETATM   21  C7  UNL     1      51.604  12.725 -19.268  1.00  0.00     0.200 C 
ENDBRANCH  16  17
ENDBRANCH   6  16
BRANCH   7  22
HETATM   22  C9  UNL     1      50.633  14.061 -23.925  1.00  0.00     0.024 C 
HETATM   23  C10 UNL     1      51.510  13.090 -23.065  1.00  0.00     0.010 C 
HETATM   24  C11 UNL     1      52.232  12.116 -24.028  1.00  0.00     0.007 C 
HETATM   25  C12 UNL     1      51.330  10.882 -24.001  1.00  0.00     0.011 C 
HETATM   26  C14 UNL     1      49.977  11.501 -23.794  1.00  0.00     0.007 C 
HETATM   27  C15 UNL     1      49.844  12.793 -24.569  1.00  0.00     0.010 C 
BRANCH  25  28
HETATM   28  C13 UNL     1      51.399  10.238 -25.353  1.00  0.00     0.234 C 
BRANCH  28  29
HETATM   29  N3  UNL     1      52.424  10.826 -26.195  1.00  0.00    -0.079 N 
ATOM     30  H33 UNL     1      52.014  11.451 -26.890  1.00  0.00     0.274 HD
ATOM     31  H32 UNL     1      52.983  11.503 -25.675  1.00  0.00     0.274 HD
ATOM     32  H31 UNL     1      53.016  10.122 -26.638  1.00  0.00     0.274 HD
ENDBRANCH  28  29
ENDBRANCH  25  28
ENDBRANCH   7  22
TORSDOF 5
ENDMDL
MODEL 4
REMARK VINA RESULT: -8.434087173      2.522      5.874
REMARK  5 active torsions:
REMARK  status: ('A' for Active; 'I' for Inactive)
REMARK    1  A    between atoms: C3_6  and  O1_7 
REMARK    2  A    between atoms: O1_7  and  C4_8 
REMARK    3  A    between atoms: C8_13  and  C9_14 
REMARK    4  A    between atoms: C12_17  and  C13_18 
REMARK    5  A    between atoms: C13_18  and  N3_19 
ROOT
HETATM    1  N1  UNL     1      46.242  13.852 -27.751  1.00  0.00    -0.190 NA
HETATM    2  C1  UNL     1      46.628  13.900 -26.661  1.00  0.00     0.118 C 
HETATM    3  C2  UNL     1      47.108  13.934 -25.308  1.00  0.00     0.127 A 
HETATM    4  N2  UNL     1      47.429  12.863 -24.614  1.00  0.00    -0.327 N 
ATOM      5  H2  UNL     1      47.320  11.955 -25.065  1.00  0.00     0.168 HD
HETATM    6  C3  UNL     1      47.888  12.881 -23.361  1.00  0.00     0.151 A 
HETATM    7  C8  UNL     1      48.083  14.065 -22.632  1.00  0.00     0.011 A 
HETATM    8  C16 UNL     1      47.733  15.204 -23.327  1.00  0.00     0.027 A 
HETATM    9  C17 UNL     1      47.633  16.427 -22.736  1.00  0.00     0.131 A 
HETATM   10  F1  UNL     1      47.729  16.538 -21.370  1.00  0.00    -0.205 F 
HETATM   11  C18 UNL     1      47.142  17.538 -23.394  1.00  0.00     0.085 A 
HETATM   12  C19 UNL     1      46.712  17.464 -24.687  1.00  0.00     0.120 A 
HETATM   13  F2  UNL     1      46.245  18.574 -25.308  1.00  0.00    -0.206 F 
HETATM   14  C20 UNL     1      46.765  16.252 -25.333  1.00  0.00     0.057 A 
HETATM   15  C21 UNL     1      47.255  15.165 -24.653  1.00  0.00     0.018 A 
ENDROOT
BRANCH   6  16
HETATM   16  O1  UNL     1      48.178  11.691 -22.754  1.00  0.00    -0.328 OA
BRANCH  16  17
HETATM   17  C4  UNL     1      48.761  10.618 -23.437  1.00  0.00     0.156 C 
HETATM   18  C5  UNL     1      50.056  10.975 -24.128  1.00  0.00     0.061 C 
HETATM   19  C6  UNL     1      50.778   9.621 -24.091  1.00  0.00     0.170 C 
HETATM   20  O2  UNL     1      50.517   9.224 -22.788  1.00  0.00    -0.389 OA
HETATM   21  C7  UNL     1      49.202   9.508 -22.509  1.00  0.00     0.200 C 
ENDBRANCH  16  17
ENDBRANCH   6  16
BRANCH   7  22
HETATM   22  C9  UNL     1      48.527  14.011 -21.268  1.00  0.00     0.024 C 
HETATM   23  C10 UNL     1      48.595  12.551 -20.707  1.00  0.00     0.010 C 
HETATM   24  C11 UNL     1      49.435  12.576 -19.408  1.00  0.00     0.007 C 
HETATM   25  C12 UNL     1      50.824  12.160 -19.894  1.00  0.00     0.011 C 
HETATM   26  C14 UNL     1      50.841  12.728 -21.285  1.00  0.00     0.007 C 
HETATM   27  C15 UNL     1      50.150  14.074 -21.332  1.00  0.00     0.010 C 
BRANCH  25  28
HETATM   28  C13 UNL     1      51.835  12.862 -19.039  1.00  0.00     0.234 C 
BRANCH  28  29
HETATM   29  N3  UNL     1      52.745  11.940 -18.386  1.00  0.00    -0.079 N 
ATOM     30  H33 UNL     1      53.452  11.599 -19.037  1.00  0.00     0.274 HD
ATOM     31  H32 UNL     1      53.351  12.427 -17.726  1.00  0.00     0.274 HD
ATOM     32  H31 UNL     1      52.257  11.165 -17.935  1.00  0.00     0.274 HD
ENDBRANCH  28  29
ENDBRANCH  25  28
ENDBRANCH   7  22
TORSDOF 5
ENDMDL
MODEL 5
REMARK VINA RESULT: -8.403846478      3.040      5.937
REMARK  5 active torsions:
REMARK  status: ('A' for Active; 'I' for Inactive)
REMARK    1  A    between atoms: C3_6  and  O1_7 
REMARK    2  A    between atoms: O1_7  and  C4_8 
REMARK    3  A    between atoms: C8_13  and  C9_14 
REMARK    4  A    between atoms: C12_17  and  C13_18 
REMARK    5  A    between atoms: C13_18  and  N3_19 
ROOT
HETATM    1  N1  UNL     1      45.472  11.618 -26.996  1.00  0.00    -0.190 NA
HETATM    2  C1  UNL     1      46.033  12.032 -26.073  1.00  0.00     0.118 C 
HETATM    3  C2  UNL     1      46.731  12.523 -24.917  1.00  0.00     0.127 A 
HETATM    4  N2  UNL     1      47.168  11.757 -23.941  1.00  0.00    -0.327 N 
ATOM      5  H2  UNL     1      46.990  10.755 -24.009  1.00  0.00     0.168 HD
HETATM    6  C3  UNL     1      47.828  12.198 -22.869  1.00  0.00     0.151 A 
HETATM    7  C8  UNL     1      48.136  13.552 -22.660  1.00  0.00     0.011 A 
HETATM    8  C16 UNL     1      47.670  14.383 -23.657  1.00  0.00     0.027 A 
HETATM    9  C17 UNL     1      47.663  15.740 -23.543  1.00  0.00     0.131 A 
HETATM   10  F1  UNL     1      47.984  16.328 -22.343  1.00  0.00    -0.205 F 
HETATM   11  C18 UNL     1      47.064  16.566 -24.474  1.00  0.00     0.085 A 
HETATM   12  C19 UNL     1      46.426  16.057 -25.567  1.00  0.00     0.120 A 
HETATM   13  F2  UNL     1      45.856  16.894 -26.468  1.00  0.00    -0.206 F 
HETATM   14  C20 UNL     1      46.377  14.693 -25.729  1.00  0.00     0.057 A 
HETATM   15  C21 UNL     1      46.978  13.897 -24.786  1.00  0.00     0.018 A 
ENDROOT
BRANCH   6  16
HETATM   16  O1  UNL     1      48.222  11.291 -21.925  1.00  0.00    -0.328 OA
BRANCH  16  17
HETATM   17  C4  UNL     1      48.610   9.986 -22.247  1.00  0.00     0.156 C 
HETATM   18  C5  UNL     1      49.806   9.923 -23.167  1.00  0.00     0.061 C 
HETATM   19  C6  UNL     1      50.422   8.584 -22.739  1.00  0.00     0.170 C 
HETATM   20  O2  UNL     1      50.336   8.689 -21.360  1.00  0.00    -0.389 OA
HETATM   21  C7  UNL     1      49.105   9.212 -21.045  1.00  0.00     0.200 C 
ENDBRANCH  16  17
ENDBRANCH   6  16
BRANCH   7  22
HETATM   22  C9  UNL     1      48.800  13.966 -21.457  1.00  0.00     0.024 C 
HETATM   23  C10 UNL     1      48.989  12.799 -20.432  1.00  0.00     0.010 C 
HETATM   24  C11 UNL     1      50.032  13.247 -19.380  1.00  0.00     0.007 C 
HETATM   25  C12 UNL     1      51.329  12.629 -19.904  1.00  0.00     0.011 C 
HETATM   26  C14 UNL     1      51.104  12.667 -21.389  1.00  0.00     0.007 C 
HETATM   27  C15 UNL     1      50.389  13.936 -21.800  1.00  0.00     0.010 C 
BRANCH  25  28
HETATM   28  C13 UNL     1      52.454  13.547 -19.531  1.00  0.00     0.234 C 
BRANCH  28  29
HETATM   29  N3  UNL     1      53.755  12.975 -19.824  1.00  0.00    -0.079 N 
ATOM     30  H33 UNL     1      53.739  12.458 -20.702  1.00  0.00     0.274 HD
ATOM     31  H32 UNL     1      54.427  13.701 -20.073  1.00  0.00     0.274 HD
ATOM     32  H31 UNL     1      54.106  12.395 -19.061  1.00  0.00     0.274 HD
ENDBRANCH  28  29
ENDBRANCH  25  28
ENDBRANCH   7  22
TORSDOF 5
ENDMDL
